100001
  Mrv171c012241912032D          

  2  1  0  0  0  0            999 V2000
    0.8250    0.0000    0.0000 C   0  0  0  0  0  0  0  0  0  0  0  0
    0.0000    0.0000    0.0000 O   0  0  0  0  0  0  0  0  0  0  0  0
  1  2  2  0  0  0  0
M  END
> <ChemID>
100001

> <CAS>
50-00-0

> <Original_SMILES>
C=O

> <preferred_name>
Formaldehyde

> <dsstox_substance_id>
DTXSID7020637

> <dsstox_compound_id>
DTXCID30637

> <qc_level>
DSSTox_High

> <Canonical_QSARr>
C=O

> <InChI_Code_QSARr>
InChI=1S/CH2O/c1-2/h1H2

> <InChI Key_QSARr>
WSFSSNUMVMOOMR-UHFFFAOYSA-N

> <Salt_Solvent>


> <Salt_Solvent_ID>
0

> <MPID>
98572

> <OH Reference>
KWOK,ESC & ATKINSON,R (1994)

> <OH>
9.369999999999999E-12

> <OH Temperature>
25.0

> <LogOH>
-11.028260409112214

> <Tr_1_Tst_0>
1

$$$$
100002
  Mrv171c012241912032D          

  5  4  0  0  0  0            999 V2000
    0.8250   -1.6500    0.0000 Cl  0  0  0  0  0  0  0  0  0  0  0  0
    0.8250   -0.8250    0.0000 C   0  0  0  0  0  0  0  0  0  0  0  0
    0.8250    0.0000    0.0000 Cl  0  0  0  0  0  0  0  0  0  0  0  0
    1.6500   -0.8250    0.0000 Cl  0  0  0  0  0  0  0  0  0  0  0  0
    0.0000   -0.8250    0.0000 Cl  0  0  0  0  0  0  0  0  0  0  0  0
  1  2  1  0  0  0  0
  2  3  1  0  0  0  0
  2  4  1  0  0  0  0
  2  5  1  0  0  0  0
M  END
> <ChemID>
100002

> <CAS>
56-23-5

> <Original_SMILES>
ClC(Cl)(Cl)Cl

> <preferred_name>
Carbon tetrachloride

> <dsstox_substance_id>
DTXSID8020250

> <dsstox_compound_id>
DTXCID20250

> <qc_level>
DSSTox_Low

> <Canonical_QSARr>
ClC(Cl)(Cl)Cl

> <InChI_Code_QSARr>
InChI=1S/CCl4/c2-1(3,4)5

> <InChI Key_QSARr>
VZGDMQKNWNREIO-UHFFFAOYSA-N

> <Salt_Solvent>


> <Salt_Solvent_ID>
0

> <MPID>
98573

> <OH Reference>
ATKINSON,R (1989);<1.2E-016

> <OH>
1.2E-16

> <OH Temperature>
25.0

> <LogOH>
-15.920818753952382

> <Tr_1_Tst_0>
1

$$$$
100004
  Mrv171c012241912032D          

  5  4  0  0  0  0            999 V2000
    2.2164   -0.9681    0.0000 C   0  0  0  0  0  0  0  0  0  0  0  0
    1.3914   -0.9681    0.0000 C   0  0  0  0  0  0  0  0  0  0  0  0
    0.9789   -1.6826    0.0000 O   0  0  0  0  0  0  0  0  0  0  0  0
    0.9789   -0.2536    0.0000 C   0  0  0  0  0  0  0  0  0  0  0  0
    0.1539   -0.2536    0.0000 O   0  0  0  0  0  0  0  0  0  0  0  0
  1  2  1  0  0  0  0
  2  3  1  0  0  0  0
  2  4  1  0  0  0  0
  4  5  1  0  0  0  0
M  END
> <ChemID>
100004

> <CAS>
57-55-6

> <Original_SMILES>
CC(O)CO

> <preferred_name>
1,2-Propylene glycol

> <dsstox_substance_id>
DTXSID0021206

> <dsstox_compound_id>
DTXCID901206

> <qc_level>
DSSTox_High

> <Canonical_QSARr>
CC(O)CO

> <InChI_Code_QSARr>
InChI=1S/C3H8O2/c1-3(5)2-4/h3-5H,2H2,1H3

> <InChI Key_QSARr>
DNIAPMSPPWPWGF-UHFFFAOYSA-N

> <Salt_Solvent>


> <Salt_Solvent_ID>
0

> <MPID>
98574

> <OH Reference>
ATKINSON,R (1989)

> <OH>
1.2E-11

> <OH Temperature>
25.0

> <LogOH>
-10.920818753952396

> <Tr_1_Tst_0>
0

$$$$
100005
  Mrv171c012241912032D          

 12 12  0  0  0  0            999 V2000
    2.1693   -1.2482    0.0000 C   0  0  0  0  0  0  0  0  0  0  0  0
    2.8837   -0.8357    0.0000 Cl  0  0  0  0  0  0  0  0  0  0  0  0
    1.4548   -0.8357    0.0000 C   0  0  0  0  0  0  0  0  0  0  0  0
    1.4548   -0.0107    0.0000 Cl  0  0  0  0  0  0  0  0  0  0  0  0
    0.7403   -1.2482    0.0000 C   0  0  0  0  0  0  0  0  0  0  0  0
    0.0258   -0.8357    0.0000 Cl  0  0  0  0  0  0  0  0  0  0  0  0
    0.7403   -2.0732    0.0000 C   0  0  0  0  0  0  0  0  0  0  0  0
    0.0258   -2.4857    0.0000 Cl  0  0  0  0  0  0  0  0  0  0  0  0
    1.4548   -2.4857    0.0000 C   0  0  0  0  0  0  0  0  0  0  0  0
    1.4548   -3.3107    0.0000 Cl  0  0  0  0  0  0  0  0  0  0  0  0
    2.1693   -2.0732    0.0000 C   0  0  0  0  0  0  0  0  0  0  0  0
    2.8837   -2.4857    0.0000 Cl  0  0  0  0  0  0  0  0  0  0  0  0
  1  2  1  0  0  0  0
  3  1  1  0  0  0  0
  3  4  1  0  0  0  0
  5  3  1  0  0  0  0
  5  6  1  0  0  0  0
  7  5  1  0  0  0  0
  7  8  1  0  0  0  0
  9  7  1  0  0  0  0
  9 10  1  0  0  0  0
 11  9  1  0  0  0  0
  1 11  1  0  0  0  0
 11 12  1  0  0  0  0
M  END
> <ChemID>
100005

> <CAS>
58-89-9|319-84-6

> <Original_SMILES>
Cl[C@@H]1[C@@H](Cl)[C@H](Cl)[C@H](Cl)[C@@H](Cl)[C@@H]1Cl

> <preferred_name>
Lindane|alpha-1,2,3,4,5,6-Hexachlorocyclohexane

> <dsstox_substance_id>
DTXSID2020686|DTXSID2020684

> <dsstox_compound_id>
DTXCID40196532|DTXCID00196533

> <qc_level>
DSSTox_High

> <Canonical_QSARr>
ClC1C(Cl)C(Cl)C(Cl)C(Cl)C1Cl

> <InChI_Code_QSARr>
InChI=1S/C6H6Cl6/c7-1-2(8)4(10)6(12)5(11)3(1)9/h1-6H

> <InChI Key_QSARr>
JLYXXMFPNIAWKQ-UHFFFAOYSA-N

> <Salt_Solvent>


> <Salt_Solvent_ID>
0

> <MPID>
98575|98932

> <OH Reference>
BRUBAKER,WWJR & HITES,RA (1998A)

> <OH>
1.6500000000000005E-13

> <OH Temperature>
25.0

> <LogOH>
-12.782516055786092

> <Tr_1_Tst_0>
1

$$$$
100006
  Mrv171c012241912032D          

  5  4  0  0  0  0            999 V2000
    1.3473   -0.3899    0.0000 O   0  0  0  0  0  0  0  0  0  0  0  0
    2.1723   -0.3899    0.0000 C   0  0  0  0  0  0  0  0  0  0  0  0
    2.5848   -1.1044    0.0000 C   0  0  0  0  0  0  0  0  0  0  0  0
    0.9348    0.3245    0.0000 C   0  0  0  0  0  0  0  0  0  0  0  0
    0.1098    0.3245    0.0000 C   0  0  0  0  0  0  0  0  0  0  0  0
  1  2  1  0  0  0  0
  2  3  1  0  0  0  0
  1  4  1  0  0  0  0
  4  5  1  0  0  0  0
M  END
> <ChemID>
100006

> <CAS>
60-29-7

> <Original_SMILES>
CCOCC

> <preferred_name>
Diethyl ether

> <dsstox_substance_id>
DTXSID3021720

> <dsstox_compound_id>
DTXCID101720

> <qc_level>
DSSTox_Low

> <Canonical_QSARr>
CCOCC

> <InChI_Code_QSARr>
InChI=1S/C4H10O/c1-3-5-4-2/h3-4H2,1-2H3

> <InChI Key_QSARr>
RTZKZFJDLAIYFH-UHFFFAOYSA-N

> <Salt_Solvent>


> <Salt_Solvent_ID>
0

> <MPID>
98576

> <OH Reference>
ATKINSON,R (1994)

> <OH>
1.31E-11

> <OH Temperature>
25.0

> <LogOH>
-10.882728704344215

> <Tr_1_Tst_0>
1

$$$$
100007
  Mrv171c012241912032D          

  3  2  0  0  0  0            999 V2000
   -0.0002   -0.1377    0.0000 C   0  0  0  0  0  0  0  0  0  0  0  0
    0.7143   -0.5502    0.0000 N   0  0  0  0  0  0  0  0  0  0  0  0
    1.4287   -0.1377    0.0000 N   0  0  0  0  0  0  0  0  0  0  0  0
  1  2  1  0  0  0  0
  2  3  1  0  0  0  0
M  END
> <ChemID>
100007

> <CAS>
60-34-4

> <Original_SMILES>
CNN

> <preferred_name>
Methylhydrazine

> <dsstox_substance_id>
DTXSID4020874

> <dsstox_compound_id>
DTXCID40874

> <qc_level>
DSSTox_Low

> <Canonical_QSARr>
CNN

> <InChI_Code_QSARr>
InChI=1S/CH6N2/c1-3-2/h3H,2H2,1H3

> <InChI Key_QSARr>
HDZGCSFEDULWCS-UHFFFAOYSA-N

> <Salt_Solvent>


> <Salt_Solvent_ID>
0

> <MPID>
98577

> <OH Reference>
ATKINSON,R (1989)

> <OH>
6.500000000000002E-11

> <OH Temperature>
25.0

> <LogOH>
-10.187086643357139

> <Tr_1_Tst_0>
1

$$$$
100008
  Mrv171c012241912032D          

  7  7  0  0  0  0            999 V2000
    1.4153    0.7000    0.0000 N   0  0  0  0  0  0  0  0  0  0  0  0
    1.4153   -0.1250    0.0000 C   0  0  0  0  0  0  0  0  0  0  0  0
    0.7009   -0.5375    0.0000 C   0  0  0  0  0  0  0  0  0  0  0  0
    0.7009   -1.3625    0.0000 C   0  0  0  0  0  0  0  0  0  0  0  0
    1.4153   -1.7750    0.0000 C   0  0  0  0  0  0  0  0  0  0  0  0
    2.1298   -1.3625    0.0000 C   0  0  0  0  0  0  0  0  0  0  0  0
    2.1298   -0.5375    0.0000 C   0  0  0  0  0  0  0  0  0  0  0  0
  1  2  1  0  0  0  0
  3  2  1  0  0  0  0
  4  3  2  0  0  0  0
  5  4  1  0  0  0  0
  6  5  2  0  0  0  0
  7  6  1  0  0  0  0
  2  7  2  0  0  0  0
M  END
> <ChemID>
100008

> <CAS>
62-53-3

> <Original_SMILES>
Nc1ccccc1

> <preferred_name>
Aniline

> <dsstox_substance_id>
DTXSID8020090

> <dsstox_compound_id>
DTXCID9090

> <qc_level>
DSSTox_High

> <Canonical_QSARr>
NC1C=CC=CC=1

> <InChI_Code_QSARr>
InChI=1S/C6H7N/c7-6-4-2-1-3-5-6/h1-5H,7H2

> <InChI Key_QSARr>
PAYRUJLWNCNPSJ-UHFFFAOYSA-N

> <Salt_Solvent>


> <Salt_Solvent_ID>
0

> <MPID>
98578

> <OH Reference>
KWOK,ESC & ATKINSON,R (1994)

> <OH>
1.11E-10

> <OH Temperature>
25.0

> <LogOH>
-9.954677021213335

> <Tr_1_Tst_0>
0

$$$$
100009
  Mrv171c012241912032D          

  5  4  0  0  0  0            999 V2000
    2.2164   -0.9681    0.0000 C   0  0  0  0  0  0  0  0  0  0  0  0
    1.3914   -0.9681    0.0000 N   0  0  0  0  0  0  0  0  0  0  0  0
    0.9789   -1.6826    0.0000 C   0  0  0  0  0  0  0  0  0  0  0  0
    0.9789   -0.2536    0.0000 N   0  0  0  0  0  0  0  0  0  0  0  0
    0.1539   -0.2536    0.0000 O   0  0  0  0  0  0  0  0  0  0  0  0
  1  2  1  0  0  0  0
  2  3  1  0  0  0  0
  2  4  1  0  0  0  0
  4  5  2  0  0  0  0
M  END
> <ChemID>
100009

> <CAS>
62-75-9

> <Original_SMILES>
CN(C)N=O

> <preferred_name>
N-Nitrosodimethylamine

> <dsstox_substance_id>
DTXSID7021029

> <dsstox_compound_id>
DTXCID301029

> <qc_level>
DSSTox_Low

> <Canonical_QSARr>
CN(C)N=O

> <InChI_Code_QSARr>
InChI=1S/C2H6N2O/c1-4(2)3-5/h1-2H3

> <InChI Key_QSARr>
UMFJAHHVKNCGLG-UHFFFAOYSA-N

> <Salt_Solvent>


> <Salt_Solvent_ID>
0

> <MPID>
98579

> <OH Reference>
ATKINSON,R (1989)

> <OH>
2.530000000000001E-12

> <OH Temperature>
25.0

> <LogOH>
-11.596879478824173

> <Tr_1_Tst_0>
1

$$$$
100010
  Mrv171c012241912032D          

  3  2  0  0  0  0            999 V2000
   -0.0002   -0.1377    0.0000 C   0  0  0  0  0  0  0  0  0  0  0  0
    0.7143   -0.5502    0.0000 C   0  0  0  0  0  0  0  0  0  0  0  0
    1.4287   -0.1377    0.0000 O   0  0  0  0  0  0  0  0  0  0  0  0
  1  2  1  0  0  0  0
  2  3  1  0  0  0  0
M  END
> <ChemID>
100010

> <CAS>
64-17-5

> <Original_SMILES>
CCO

> <preferred_name>
Ethanol

> <dsstox_substance_id>
DTXSID9020584

> <dsstox_compound_id>
DTXCID30584

> <qc_level>
DSSTox_High

> <Canonical_QSARr>
CCO

> <InChI_Code_QSARr>
InChI=1S/C2H6O/c1-2-3/h3H,2H2,1H3

> <InChI Key_QSARr>
LFQSCWFLJHTTHZ-UHFFFAOYSA-N

> <Salt_Solvent>


> <Salt_Solvent_ID>
0

> <MPID>
98580

> <OH Reference>
ATKINSON,R (1989)

> <OH>
3.27E-12

> <OH Temperature>
25.0

> <LogOH>
-11.485452247339719

> <Tr_1_Tst_0>
1

$$$$
100011
  Mrv171c012241912032D          

  3  2  0  0  0  0            999 V2000
    0.7161   -0.4116    0.0000 C   0  0  0  0  0  0  0  0  0  0  0  0
    0.0016    0.0009    0.0000 O   0  0  0  0  0  0  0  0  0  0  0  0
    1.4306    0.0009    0.0000 O   0  0  0  0  0  0  0  0  0  0  0  0
  1  2  1  0  0  0  0
  1  3  2  0  0  0  0
M  END
> <ChemID>
100011

> <CAS>
64-18-6

> <Original_SMILES>
OC=O

> <preferred_name>
Formic acid

> <dsstox_substance_id>
DTXSID2024115

> <dsstox_compound_id>
DTXCID904115

> <qc_level>
DSSTox_Low

> <Canonical_QSARr>
OC=O

> <InChI_Code_QSARr>
InChI=1S/CH2O2/c2-1-3/h1H,(H,2,3)

> <InChI Key_QSARr>
BDAGIHXWWSANSR-UHFFFAOYSA-N

> <Salt_Solvent>


> <Salt_Solvent_ID>
0

> <MPID>
98581

> <OH Reference>
ATKINSON,R (1989)

> <OH>
4.499999999999999E-13

> <OH Temperature>
25.0

> <LogOH>
-12.346787486224647

> <Tr_1_Tst_0>
1

$$$$
100012
  Mrv171c012241912032D          

  4  3  0  0  0  0            999 V2000
    0.8246   -0.7143    0.0000 C   0  0  0  0  0  0  0  0  0  0  0  0
    1.2371    0.0002    0.0000 O   0  0  0  0  0  0  0  0  0  0  0  0
    1.2371   -1.4287    0.0000 O   0  0  0  0  0  0  0  0  0  0  0  0
   -0.0004   -0.7143    0.0000 C   0  0  0  0  0  0  0  0  0  0  0  0
  1  2  1  0  0  0  0
  1  3  2  0  0  0  0
  1  4  1  0  0  0  0
M  END
> <ChemID>
100012

> <CAS>
64-19-7

> <Original_SMILES>
CC(O)=O

> <preferred_name>
Acetic acid

> <dsstox_substance_id>
DTXSID5024394

> <dsstox_compound_id>
DTXCID304394

> <qc_level>
DSSTox_High

> <Canonical_QSARr>
CC(O)=O

> <InChI_Code_QSARr>
InChI=1S/C2H4O2/c1-2(3)4/h1H3,(H,3,4)

> <InChI Key_QSARr>
QTBSBXVTEAMEQO-UHFFFAOYSA-N

> <Salt_Solvent>


> <Salt_Solvent_ID>
0

> <MPID>
98582

> <OH Reference>
ATKINSON,R (1989)

> <OH>
7.399999999999999E-13

> <OH Temperature>
25.0

> <LogOH>
-12.130768280269036

> <Tr_1_Tst_0>
0

$$$$
100013
  Mrv171c012241912032D          

  9  8  0  0  0  0            999 V2000
    3.8858   -1.7479    0.0000 C   0  0  0  0  0  0  0  0  0  0  0  0
    3.0608   -1.7479    0.0000 C   0  0  0  0  0  0  0  0  0  0  0  0
    2.6483   -1.0334    0.0000 O   0  0  0  0  0  0  0  0  0  0  0  0
    1.8233   -1.0334    0.0000 S   0  0  0  0  0  0  0  0  0  0  0  0
    1.8233   -0.2084    0.0000 O   0  0  0  0  0  0  0  0  0  0  0  0
    1.8233   -1.8584    0.0000 O   0  0  0  0  0  0  0  0  0  0  0  0
    0.9983   -1.0334    0.0000 O   0  0  0  0  0  0  0  0  0  0  0  0
    0.5858   -0.3189    0.0000 C   0  0  0  0  0  0  0  0  0  0  0  0
   -0.2392   -0.3189    0.0000 C   0  0  0  0  0  0  0  0  0  0  0  0
  1  2  1  0  0  0  0
  2  3  1  0  0  0  0
  3  4  1  0  0  0  0
  4  5  2  0  0  0  0
  4  6  2  0  0  0  0
  4  7  1  0  0  0  0
  7  8  1  0  0  0  0
  8  9  1  0  0  0  0
M  END
> <ChemID>
100013

> <CAS>
64-67-5

> <Original_SMILES>
CCOS(=O)(=O)OCC

> <preferred_name>
Diethyl sulfate

> <dsstox_substance_id>
DTXSID1024045

> <dsstox_compound_id>
DTXCID604045

> <qc_level>
DSSTox_Low

> <Canonical_QSARr>
CCOS(=O)(=O)OCC

> <InChI_Code_QSARr>
InChI=1S/C4H10O4S/c1-3-7-9(5,6)8-4-2/h3-4H2,1-2H3

> <InChI Key_QSARr>
DENRZWYUOJLTMF-UHFFFAOYSA-N

> <Salt_Solvent>


> <Salt_Solvent_ID>
0

> <MPID>
98583

> <OH Reference>
JAPAR,SM ET AL. (1990A)

> <OH>
1.8E-12

> <OH Temperature>
25.0

> <LogOH>
-11.744727494896681

> <Tr_1_Tst_0>
1

$$$$
100014
  Mrv171c012241912032D          

  7  6  0  0  0  0            999 V2000
   -0.0018   -0.0582    0.0000 C   0  0  0  0  0  0  0  0  0  0  0  0
    0.7127   -0.4707    0.0000 C   0  0  0  0  0  0  0  0  0  0  0  0
    1.4272   -0.0582    0.0000 C   0  0  0  0  0  0  0  0  0  0  0  0
    2.1416   -0.4707    0.0000 C   0  0  0  0  0  0  0  0  0  0  0  0
    2.8561   -0.0582    0.0000 C   0  0  0  0  0  0  0  0  0  0  0  0
    3.5706   -0.4707    0.0000 C   0  0  0  0  0  0  0  0  0  0  0  0
    4.2850   -0.0582    0.0000 O   0  0  0  0  0  0  0  0  0  0  0  0
  1  2  1  0  0  0  0
  2  3  1  0  0  0  0
  3  4  1  0  0  0  0
  4  5  1  0  0  0  0
  5  6  1  0  0  0  0
  6  7  2  0  0  0  0
M  END
> <ChemID>
100014

> <CAS>
66-25-1

> <Original_SMILES>
CCCCCC=O

> <preferred_name>
Hexanal

> <dsstox_substance_id>
DTXSID2021604

> <dsstox_compound_id>
DTXCID901604

> <qc_level>
DSSTox_Low

> <Canonical_QSARr>
CCCCCC=O

> <InChI_Code_QSARr>
InChI=1S/C6H12O/c1-2-3-4-5-6-7/h6H,2-5H2,1H3

> <InChI Key_QSARr>
JARKCYVAAOWBJS-UHFFFAOYSA-N

> <Salt_Solvent>


> <Salt_Solvent_ID>
0

> <MPID>
98584

> <OH Reference>
PAPAGNI,C ET AL. (2000)

> <OH>
3.17E-11

> <OH Temperature>
23.0

> <LogOH>
-10.498940737782242

> <Tr_1_Tst_0>
1

$$$$
100015
  Mrv171c012241912032D          

  2  1  0  0  0  0            999 V2000
    0.8250    0.0000    0.0000 C   0  0  0  0  0  0  0  0  0  0  0  0
    0.0000    0.0000    0.0000 O   0  0  0  0  0  0  0  0  0  0  0  0
  1  2  1  0  0  0  0
M  END
> <ChemID>
100015

> <CAS>
67-56-1

> <Original_SMILES>
CO

> <preferred_name>
Methanol

> <dsstox_substance_id>
DTXSID2021731

> <dsstox_compound_id>
DTXCID801731

> <qc_level>
DSSTox_Low

> <Canonical_QSARr>
CO

> <InChI_Code_QSARr>
InChI=1S/CH4O/c1-2/h2H,1H3

> <InChI Key_QSARr>
OKKJLVBELUTLKV-UHFFFAOYSA-N

> <Salt_Solvent>


> <Salt_Solvent_ID>
0

> <MPID>
98585

> <OH Reference>
KWOK,ESC & ATKINSON,R (1994)

> <OH>
9.44E-13

> <OH Temperature>
25.0

> <LogOH>
-12.025028005701937

> <Tr_1_Tst_0>
1

$$$$
100016
  Mrv171c012241912032D          

  4  3  0  0  0  0            999 V2000
    1.1268   -0.1101    0.0000 O   0  0  0  0  0  0  0  0  0  0  0  0
    0.7143   -0.8246    0.0000 C   0  0  0  0  0  0  0  0  0  0  0  0
    1.1268   -1.5391    0.0000 C   0  0  0  0  0  0  0  0  0  0  0  0
   -0.1107   -0.8246    0.0000 C   0  0  0  0  0  0  0  0  0  0  0  0
  1  2  1  0  0  0  0
  2  3  1  0  0  0  0
  2  4  1  0  0  0  0
M  END
> <ChemID>
100016

> <CAS>
67-63-0

> <Original_SMILES>
CC(C)O

> <preferred_name>
Isopropanol

> <dsstox_substance_id>
DTXSID7020762

> <dsstox_compound_id>
DTXCID50762

> <qc_level>
DSSTox_Low

> <Canonical_QSARr>
CC(C)O

> <InChI_Code_QSARr>
InChI=1S/C3H8O/c1-3(2)4/h3-4H,1-2H3

> <InChI Key_QSARr>
KFZMGEQAYNKOFK-UHFFFAOYSA-N

> <Salt_Solvent>


> <Salt_Solvent_ID>
0

> <MPID>
98586

> <OH Reference>
KWOK,ESC & ATKINSON,R (1994)

> <OH>
5.07E-12

> <OH Temperature>
25.0

> <LogOH>
-11.294992040666681

> <Tr_1_Tst_0>
0

$$$$
100017
  Mrv171c012241912032D          

  4  3  0  0  0  0            999 V2000
    1.2371    0.0002    0.0000 C   0  0  0  0  0  0  0  0  0  0  0  0
    0.8246   -0.7143    0.0000 C   0  0  0  0  0  0  0  0  0  0  0  0
    1.2371   -1.4287    0.0000 O   0  0  0  0  0  0  0  0  0  0  0  0
   -0.0004   -0.7143    0.0000 C   0  0  0  0  0  0  0  0  0  0  0  0
  1  2  1  0  0  0  0
  2  3  2  0  0  0  0
  2  4  1  0  0  0  0
M  END
> <ChemID>
100017

> <CAS>
67-64-1

> <Original_SMILES>
CC(C)=O

> <preferred_name>
Acetone

> <dsstox_substance_id>
DTXSID8021482

> <dsstox_compound_id>
DTXCID101482

> <qc_level>
DSSTox_Low

> <Canonical_QSARr>
CC(C)=O

> <InChI_Code_QSARr>
InChI=1S/C3H6O/c1-3(2)4/h1-2H3

> <InChI Key_QSARr>
CSCPPACGZOOCGX-UHFFFAOYSA-N

> <Salt_Solvent>


> <Salt_Solvent_ID>
0

> <MPID>
98587

> <OH Reference>
KWOK,ESC & ATKINSON,R (1994)

> <OH>
2.19E-13

> <OH Temperature>
25.0

> <LogOH>
-12.659555885159888

> <Tr_1_Tst_0>
1

$$$$
100018
  Mrv171c012241912032D          

  4  3  0  0  0  0            999 V2000
    1.2371    0.0002    0.0000 Cl  0  0  0  0  0  0  0  0  0  0  0  0
    0.8246   -0.7143    0.0000 C   0  0  0  0  0  0  0  0  0  0  0  0
    1.2371   -1.4287    0.0000 Cl  0  0  0  0  0  0  0  0  0  0  0  0
   -0.0004   -0.7143    0.0000 Cl  0  0  0  0  0  0  0  0  0  0  0  0
  1  2  1  0  0  0  0
  2  3  1  0  0  0  0
  2  4  1  0  0  0  0
M  END
> <ChemID>
100018

> <CAS>
67-66-3

> <Original_SMILES>
ClC(Cl)Cl

> <preferred_name>
Chloroform

> <dsstox_substance_id>
DTXSID1020306

> <dsstox_compound_id>
DTXCID10306

> <qc_level>
DSSTox_Low

> <Canonical_QSARr>
ClC(Cl)Cl

> <InChI_Code_QSARr>
InChI=1S/CHCl3/c2-1(3)4/h1H

> <InChI Key_QSARr>
HEDRZPFGACZZDS-UHFFFAOYSA-N

> <Salt_Solvent>


> <Salt_Solvent_ID>
0

> <MPID>
98588

> <OH Reference>
ATKINSON,R (1989)

> <OH>
1.03E-13

> <OH Temperature>
25.0

> <LogOH>
-12.987162775294804

> <Tr_1_Tst_0>
1

$$$$
100019
  Mrv171c012241912032D          

  4  3  0  0  0  0            999 V2000
    1.2371    0.0002    0.0000 C   0  0  0  0  0  0  0  0  0  0  0  0
    0.8246   -0.7143    0.0000 S   0  0  0  0  0  0  0  0  0  0  0  0
    1.2371   -1.4287    0.0000 C   0  0  0  0  0  0  0  0  0  0  0  0
   -0.0004   -0.7143    0.0000 O   0  0  0  0  0  0  0  0  0  0  0  0
  1  2  1  0  0  0  0
  2  3  1  0  0  0  0
  2  4  2  0  0  0  0
M  END
> <ChemID>
100019

> <CAS>
67-68-5

> <Original_SMILES>
CS(C)=O

> <preferred_name>
Dimethyl sulfoxide

> <dsstox_substance_id>
DTXSID2021735

> <dsstox_compound_id>
DTXCID401735

> <qc_level>
DSSTox_Low

> <Canonical_QSARr>
CS(C)=O

> <InChI_Code_QSARr>
InChI=1S/C2H6OS/c1-4(2)3/h1-2H3

> <InChI Key_QSARr>
IAZDPXIOMUYVGZ-UHFFFAOYSA-N

> <Salt_Solvent>


> <Salt_Solvent_ID>
0

> <MPID>
98589

> <OH Reference>
ATKINSON,R (1989)

> <OH>
6.200000000000002E-11

> <OH Temperature>
25.0

> <LogOH>
-10.207608310501765

> <Tr_1_Tst_0>
1

$$$$
100020
  Mrv171c012241912032D          

  4  3  0  0  0  0            999 V2000
    2.1043   -0.5633    0.0000 O   0  0  0  0  0  0  0  0  0  0  0  0
    1.2793   -0.5633    0.0000 C   0  0  0  0  0  0  0  0  0  0  0  0
    0.8668    0.1512    0.0000 C   0  0  0  0  0  0  0  0  0  0  0  0
    0.0418    0.1512    0.0000 C   0  0  0  0  0  0  0  0  0  0  0  0
  1  2  1  0  0  0  0
  2  3  1  0  0  0  0
  3  4  1  0  0  0  0
M  END
> <ChemID>
100020

> <CAS>
71-23-8

> <Original_SMILES>
CCCO

> <preferred_name>
1-Propanol

> <dsstox_substance_id>
DTXSID2021739

> <dsstox_compound_id>
DTXCID001739

> <qc_level>
DSSTox_High

> <Canonical_QSARr>
CCCO

> <InChI_Code_QSARr>
InChI=1S/C3H8O/c1-2-3-4/h4H,2-3H2,1H3

> <InChI Key_QSARr>
BDERNNFJNOPAEC-UHFFFAOYSA-N

> <Salt_Solvent>


> <Salt_Solvent_ID>
0

> <MPID>
98590

> <OH Reference>
KWOK,ESC & ATKINSON,R (1994)

> <OH>
5.530000000000001E-12

> <OH Temperature>
25.0

> <LogOH>
-11.257274868695298

> <Tr_1_Tst_0>
0

$$$$
100021
  Mrv171c012241912032D          

  5  4  0  0  0  0            999 V2000
    2.5848   -1.1044    0.0000 C   0  0  0  0  0  0  0  0  0  0  0  0
    2.1723   -0.3899    0.0000 C   0  0  0  0  0  0  0  0  0  0  0  0
    1.3473   -0.3899    0.0000 C   0  0  0  0  0  0  0  0  0  0  0  0
    0.9348    0.3245    0.0000 C   0  0  0  0  0  0  0  0  0  0  0  0
    0.1098    0.3245    0.0000 O   0  0  0  0  0  0  0  0  0  0  0  0
  1  2  1  0  0  0  0
  2  3  1  0  0  0  0
  3  4  1  0  0  0  0
  4  5  1  0  0  0  0
M  END
> <ChemID>
100021

> <CAS>
71-36-3

> <Original_SMILES>
CCCCO

> <preferred_name>
1-Butanol

> <dsstox_substance_id>
DTXSID1021740

> <dsstox_compound_id>
DTXCID701740

> <qc_level>
DSSTox_Low

> <Canonical_QSARr>
CCCCO

> <InChI_Code_QSARr>
InChI=1S/C4H10O/c1-2-3-4-5/h5H,2-4H2,1H3

> <InChI Key_QSARr>
LRHPLDYGYMQRHN-UHFFFAOYSA-N

> <Salt_Solvent>


> <Salt_Solvent_ID>
0

> <MPID>
98591

> <OH Reference>
KWOK,ESC & ATKINSON,R (1994)

> <OH>
8.57E-12

> <OH Temperature>
25.0

> <LogOH>
-11.06701917807682

> <Tr_1_Tst_0>
1

$$$$
100022
  Mrv171c012241912032D          

  6  5  0  0  0  0            999 V2000
    0.0018   -0.4119    0.0000 C   0  0  0  0  0  0  0  0  0  0  0  0
    0.7163    0.0006    0.0000 C   0  0  0  0  0  0  0  0  0  0  0  0
    1.4307   -0.4119    0.0000 C   0  0  0  0  0  0  0  0  0  0  0  0
    2.1452    0.0006    0.0000 C   0  0  0  0  0  0  0  0  0  0  0  0
    2.8597   -0.4119    0.0000 C   0  0  0  0  0  0  0  0  0  0  0  0
    3.5741    0.0006    0.0000 O   0  0  0  0  0  0  0  0  0  0  0  0
  1  2  1  0  0  0  0
  2  3  1  0  0  0  0
  3  4  1  0  0  0  0
  4  5  1  0  0  0  0
  5  6  1  0  0  0  0
M  END
> <ChemID>
100022

> <CAS>
71-41-0

> <Original_SMILES>
CCCCCO

> <preferred_name>
1-Pentanol

> <dsstox_substance_id>
DTXSID6021741

> <dsstox_compound_id>
DTXCID101741

> <qc_level>
DSSTox_Low

> <Canonical_QSARr>
CCCCCO

> <InChI_Code_QSARr>
InChI=1S/C5H12O/c1-2-3-4-5-6/h6H,2-5H2,1H3

> <InChI Key_QSARr>
AMQJEAYHLZJPGS-UHFFFAOYSA-N

> <Salt_Solvent>


> <Salt_Solvent_ID>
0

> <MPID>
98592

> <OH Reference>
KWOK,ESC & ATKINSON,R (1994)

> <OH>
1.11E-11

> <OH Temperature>
25.0

> <LogOH>
-10.954677021213358

> <Tr_1_Tst_0>
1

$$$$
100023
  Mrv171c012241912032D          

  6  6  0  0  0  0            999 V2000
    1.4289   -0.4125    0.0000 C   0  0  0  0  0  0  0  0  0  0  0  0
    0.7145    0.0000    0.0000 C   0  0  0  0  0  0  0  0  0  0  0  0
    0.0000   -0.4125    0.0000 C   0  0  0  0  0  0  0  0  0  0  0  0
    0.0000   -1.2375    0.0000 C   0  0  0  0  0  0  0  0  0  0  0  0
    0.7145   -1.6500    0.0000 C   0  0  0  0  0  0  0  0  0  0  0  0
    1.4289   -1.2375    0.0000 C   0  0  0  0  0  0  0  0  0  0  0  0
  2  1  1  0  0  0  0
  3  2  2  0  0  0  0
  4  3  1  0  0  0  0
  5  4  2  0  0  0  0
  6  5  1  0  0  0  0
  1  6  2  0  0  0  0
M  END
> <ChemID>
100023

> <CAS>
71-43-2

> <Original_SMILES>
c1ccccc1

> <preferred_name>
Benzene

> <dsstox_substance_id>
DTXSID3039242

> <dsstox_compound_id>
DTXCID20135

> <qc_level>
DSSTox_Low

> <Canonical_QSARr>
C1C=CC=CC=1

> <InChI_Code_QSARr>
InChI=1S/C6H6/c1-2-4-6-5-3-1/h1-6H

> <InChI Key_QSARr>
UHOVQNZJYSORNB-UHFFFAOYSA-N

> <Salt_Solvent>


> <Salt_Solvent_ID>
0

> <MPID>
98593

> <OH Reference>
ATKINSON,R (1989)

> <OH>
1.23E-12

> <OH Temperature>
25.0

> <LogOH>
-11.910094888560591

> <Tr_1_Tst_0>
1

$$$$
100024
  Mrv171c012241912032D          

  5  4  0  0  0  0            999 V2000
    0.8250   -1.6500    0.0000 C   0  0  0  0  0  0  0  0  0  0  0  0
    0.8250   -0.8250    0.0000 C   0  0  0  0  0  0  0  0  0  0  0  0
    0.8250    0.0000    0.0000 Cl  0  0  0  0  0  0  0  0  0  0  0  0
    1.6500   -0.8250    0.0000 Cl  0  0  0  0  0  0  0  0  0  0  0  0
    0.0000   -0.8250    0.0000 Cl  0  0  0  0  0  0  0  0  0  0  0  0
  1  2  1  0  0  0  0
  2  3  1  0  0  0  0
  2  4  1  0  0  0  0
  2  5  1  0  0  0  0
M  END
> <ChemID>
100024

> <CAS>
71-55-6

> <Original_SMILES>
CC(Cl)(Cl)Cl

> <preferred_name>
1,1,1-Trichloroethane

> <dsstox_substance_id>
DTXSID0021381

> <dsstox_compound_id>
DTXCID501381

> <qc_level>
DSSTox_Low

> <Canonical_QSARr>
CC(Cl)(Cl)Cl

> <InChI_Code_QSARr>
InChI=1S/C2H3Cl3/c1-2(3,4)5/h1H3

> <InChI Key_QSARr>
UOCLXMDMGBRAIB-UHFFFAOYSA-N

> <Salt_Solvent>


> <Salt_Solvent_ID>
0

> <MPID>
98594

> <OH Reference>
KWOK,ESC & ATKINSON,R (1994)

> <OH>
9.429999999999999E-15

> <OH Temperature>
25.0

> <LogOH>
-14.02548830726266

> <Tr_1_Tst_0>
0

$$$$
100025
  Mrv171c012241912032D          

  1  0  0  0  0  0            999 V2000
    0.0000    0.0000    0.0000 C   0  0  0  0  0  0  0  0  0  0  0  0
M  END
> <ChemID>
100025

> <CAS>
74-82-8

> <Original_SMILES>
C

> <preferred_name>
Methane

> <dsstox_substance_id>
DTXSID8025545

> <dsstox_compound_id>
DTXCID705545

> <qc_level>
DSSTox_Low

> <Canonical_QSARr>
C

> <InChI_Code_QSARr>
InChI=1S/CH4/h1H4

> <InChI Key_QSARr>
VNWKTOKETHGBQD-UHFFFAOYSA-N

> <Salt_Solvent>


> <Salt_Solvent_ID>
0

> <MPID>
98595

> <OH Reference>
ATKINSON,R (1994)

> <OH>
6.86E-15

> <OH Temperature>
25.0

> <LogOH>
-14.16367588429325

> <Tr_1_Tst_0>
1

$$$$
100026
  Mrv171c012241912032D          

  2  1  0  0  0  0            999 V2000
    0.8250    0.0000    0.0000 C   0  0  0  0  0  0  0  0  0  0  0  0
    0.0000    0.0000    0.0000 Br  0  0  0  0  0  0  0  0  0  0  0  0
  1  2  1  0  0  0  0
M  END
> <ChemID>
100026

> <CAS>
74-83-9

> <Original_SMILES>
CBr

> <preferred_name>
Methyl bromide

> <dsstox_substance_id>
DTXSID8020832

> <dsstox_compound_id>
DTXCID00832

> <qc_level>
DSSTox_Low

> <Canonical_QSARr>
CBr

> <InChI_Code_QSARr>
InChI=1S/CH3Br/c1-2/h1H3

> <InChI Key_QSARr>
GZUXJHMPEANEGY-UHFFFAOYSA-N

> <Salt_Solvent>


> <Salt_Solvent_ID>
0

> <MPID>
98596

> <OH Reference>
ATKINSON,R (1989)

> <OH>
4.020000000000001E-14

> <OH Temperature>
25.0

> <LogOH>
-13.395773946915524

> <Tr_1_Tst_0>
1

$$$$
100027
  Mrv171c012241912032D          

  2  1  0  0  0  0            999 V2000
    0.8250    0.0000    0.0000 C   0  0  0  0  0  0  0  0  0  0  0  0
    0.0000    0.0000    0.0000 C   0  0  0  0  0  0  0  0  0  0  0  0
  1  2  1  0  0  0  0
M  END
> <ChemID>
100027

> <CAS>
74-84-0

> <Original_SMILES>
CC

> <preferred_name>
Ethane

> <dsstox_substance_id>
DTXSID6026377

> <dsstox_compound_id>
DTXCID106377

> <qc_level>
DSSTox_Low

> <Canonical_QSARr>
CC

> <InChI_Code_QSARr>
InChI=1S/C2H6/c1-2/h1-2H3

> <InChI Key_QSARr>
OTMSDBZUPAUEDD-UHFFFAOYSA-N

> <Salt_Solvent>


> <Salt_Solvent_ID>
0

> <MPID>
98597

> <OH Reference>
ATKINSON,R (1989)

> <OH>
2.68E-13

> <OH Temperature>
25.0

> <LogOH>
-12.571865205971198

> <Tr_1_Tst_0>
1

$$$$
100028
  Mrv171c012241912032D          

  2  1  0  0  0  0            999 V2000
    0.8250    0.0000    0.0000 C   0  0  0  0  0  0  0  0  0  0  0  0
    0.0000    0.0000    0.0000 C   0  0  0  0  0  0  0  0  0  0  0  0
  1  2  2  0  0  0  0
M  END
> <ChemID>
100028

> <CAS>
74-85-1

> <Original_SMILES>
C=C

> <preferred_name>
Ethylene

> <dsstox_substance_id>
DTXSID1026378

> <dsstox_compound_id>
DTXCID605931

> <qc_level>
DSSTox_Low

> <Canonical_QSARr>
C=C

> <InChI_Code_QSARr>
InChI=1S/C2H4/c1-2/h1-2H2

> <InChI Key_QSARr>
VGGSQFUCUMXWEO-UHFFFAOYSA-N

> <Salt_Solvent>


> <Salt_Solvent_ID>
0

> <MPID>
98598

> <OH Reference>
ATKINSON,R (1989)

> <OH>
8.52E-12

> <OH Temperature>
25.0

> <LogOH>
-11.069560405233288

> <Tr_1_Tst_0>
0

$$$$
100029
  Mrv171c012241912032D          

  2  1  0  0  0  0            999 V2000
    0.8250    0.0000    0.0000 C   0  0  0  0  0  0  0  0  0  0  0  0
    0.0000    0.0000    0.0000 C   0  0  0  0  0  0  0  0  0  0  0  0
  1  2  3  0  0  0  0
M  END
> <ChemID>
100029

> <CAS>
74-86-2

> <Original_SMILES>
C#C

> <preferred_name>
Ethyne

> <dsstox_substance_id>
DTXSID6026379

> <dsstox_compound_id>
DTXCID906379

> <qc_level>
DSSTox_Low

> <Canonical_QSARr>
C#C

> <InChI_Code_QSARr>
InChI=1S/C2H2/c1-2/h1-2H

> <InChI Key_QSARr>
HSFWRNGVRCDJHI-UHFFFAOYSA-N

> <Salt_Solvent>


> <Salt_Solvent_ID>
0

> <MPID>
98599

> <OH Reference>
ATKINSON,R (1989)

> <OH>
8.150000000000001E-13

> <OH Temperature>
25.0

> <LogOH>
-12.088842391260012

> <Tr_1_Tst_0>
1

$$$$
100030
  Mrv171c012241912032D          

  2  1  0  0  0  0            999 V2000
    0.8250    0.0000    0.0000 Cl  0  0  0  0  0  0  0  0  0  0  0  0
    0.0000    0.0000    0.0000 C   0  0  0  0  0  0  0  0  0  0  0  0
  1  2  1  0  0  0  0
M  END
> <ChemID>
100030

> <CAS>
74-87-3

> <Original_SMILES>
CCl

> <preferred_name>
Chloromethane

> <dsstox_substance_id>
DTXSID0021541

> <dsstox_compound_id>
DTXCID701541

> <qc_level>
DSSTox_Low

> <Canonical_QSARr>
CCl

> <InChI_Code_QSARr>
InChI=1S/CH3Cl/c1-2/h1H3

> <InChI Key_QSARr>
NEHMKBQYUWJMIP-UHFFFAOYSA-N

> <Salt_Solvent>


> <Salt_Solvent_ID>
0

> <MPID>
98600

> <OH Reference>
ATKINSON,R (1989)

> <OH>
4.359999999999999E-14

> <OH Temperature>
25.0

> <LogOH>
-13.360513510731414

> <Tr_1_Tst_0>
1

$$$$
100031
  Mrv171c012241912032D          

  2  1  0  0  0  0            999 V2000
    0.8250    0.0000    0.0000 C   0  0  0  0  0  0  0  0  0  0  0  0
    0.0000    0.0000    0.0000 I   0  0  0  0  0  0  0  0  0  0  0  0
  1  2  1  0  0  0  0
M  END
> <ChemID>
100031

> <CAS>
74-88-4

> <Original_SMILES>
CI

> <preferred_name>
Methyl iodide

> <dsstox_substance_id>
DTXSID0024187

> <dsstox_compound_id>
DTXCID804187

> <qc_level>
DSSTox_Low

> <Canonical_QSARr>
CI

> <InChI_Code_QSARr>
InChI=1S/CH3I/c1-2/h1H3

> <InChI Key_QSARr>
INQOMBQAUSQDDS-UHFFFAOYSA-N

> <Salt_Solvent>


> <Salt_Solvent_ID>
0

> <MPID>
98601

> <OH Reference>
BROWN,AC ET AL. (1990B)

> <OH>
7.199999999999998E-14

> <OH Temperature>
25.0

> <LogOH>
-13.142667503568717

> <Tr_1_Tst_0>
1

$$$$
100032
  Mrv171c012241912032D          

  2  1  0  0  0  0            999 V2000
    0.8250    0.0000    0.0000 N   0  0  0  0  0  0  0  0  0  0  0  0
    0.0000    0.0000    0.0000 C   0  0  0  0  0  0  0  0  0  0  0  0
  1  2  1  0  0  0  0
M  END
> <ChemID>
100032

> <CAS>
74-89-5

> <Original_SMILES>
CN

> <preferred_name>
Methylamine

> <dsstox_substance_id>
DTXSID7025683

> <dsstox_compound_id>
DTXCID305683

> <qc_level>
DSSTox_Low

> <Canonical_QSARr>
CN

> <InChI_Code_QSARr>
InChI=1S/CH5N/c1-2/h2H2,1H3

> <InChI Key_QSARr>
BAVYZALUXZFZLV-UHFFFAOYSA-N

> <Salt_Solvent>


> <Salt_Solvent_ID>
0

> <MPID>
98602

> <OH Reference>
ATKINSON,R (1989)

> <OH>
2.2E-11

> <OH Temperature>
26.0

> <LogOH>
-10.65757731917778

> <Tr_1_Tst_0>
0

$$$$
100033
  Mrv171c012241912032D          

  2  1  0  0  0  0            999 V2000
    0.8250    0.0000    0.0000 N   0  0  0  0  0  0  0  0  0  0  0  0
    0.0000    0.0000    0.0000 C   0  0  0  0  0  0  0  0  0  0  0  0
  1  2  3  0  0  0  0
M  END
> <ChemID>
100033

> <CAS>
74-90-8

> <Original_SMILES>
C#N

> <preferred_name>
Hydrogen cyanide

> <dsstox_substance_id>
DTXSID9024148

> <dsstox_compound_id>
DTXCID004148

> <qc_level>
DSSTox_Low

> <Canonical_QSARr>
C#N

> <InChI_Code_QSARr>
InChI=1S/CHN/c1-2/h1H

> <InChI Key_QSARr>
LELOWRISYMNNSU-UHFFFAOYSA-N

> <Salt_Solvent>


> <Salt_Solvent_ID>
0

> <MPID>
98603

> <OH Reference>
ATKINSON,R (1989)

> <OH>
3.000000000000001E-14

> <OH Temperature>
25.0

> <LogOH>
-13.522878745280323

> <Tr_1_Tst_0>
1

$$$$
100034
  Mrv171c012241912032D          

  2  1  0  0  0  0            999 V2000
    0.8250    0.0000    0.0000 C   0  0  0  0  0  0  0  0  0  0  0  0
    0.0000    0.0000    0.0000 S   0  0  0  0  0  0  0  0  0  0  0  0
  1  2  1  0  0  0  0
M  END
> <ChemID>
100034

> <CAS>
74-93-1

> <Original_SMILES>
CS

> <preferred_name>
Methanethiol

> <dsstox_substance_id>
DTXSID5026382

> <dsstox_compound_id>
DTXCID406382

> <qc_level>
DSSTox_Low

> <Canonical_QSARr>
CS

> <InChI_Code_QSARr>
InChI=1S/CH4S/c1-2/h2H,1H3

> <InChI Key_QSARr>
LSDPWZHWYPCBBB-UHFFFAOYSA-N

> <Salt_Solvent>


> <Salt_Solvent_ID>
0

> <MPID>
98604

> <OH Reference>
ATKINSON,R (1989)

> <OH>
3.29E-11

> <OH Temperature>
25.0

> <LogOH>
-10.482804102050016

> <Tr_1_Tst_0>
1

$$$$
100035
  Mrv171c012241912032D          

  3  2  0  0  0  0            999 V2000
   -0.0002   -0.1377    0.0000 Br  0  0  0  0  0  0  0  0  0  0  0  0
    0.7143   -0.5502    0.0000 C   0  0  0  0  0  0  0  0  0  0  0  0
    1.4287   -0.1377    0.0000 Br  0  0  0  0  0  0  0  0  0  0  0  0
  1  2  1  0  0  0  0
  2  3  1  0  0  0  0
M  END
> <ChemID>
100035

> <CAS>
74-95-3

> <Original_SMILES>
BrCBr

> <preferred_name>
Dibromomethane

> <dsstox_substance_id>
DTXSID4021557

> <dsstox_compound_id>
DTXCID401557

> <qc_level>
DSSTox_Low

> <Canonical_QSARr>
BrCBr

> <InChI_Code_QSARr>
InChI=1S/CH2Br2/c2-1-3/h1H2

> <InChI Key_QSARr>
FJBFPHVGVWTDIP-UHFFFAOYSA-N

> <Salt_Solvent>


> <Salt_Solvent_ID>
0

> <MPID>
98605

> <OH Reference>
MELLOUKI,A ET AL. (1992)

> <OH>
1.13E-13

> <OH Temperature>
25.0

> <LogOH>
-12.94692155651656

> <Tr_1_Tst_0>
1

$$$$
100036
  Mrv171c012241912032D          

  3  2  0  0  0  0            999 V2000
   -0.0002   -0.1377    0.0000 C   0  0  0  0  0  0  0  0  0  0  0  0
    0.7143   -0.5502    0.0000 C   0  0  0  0  0  0  0  0  0  0  0  0
    1.4287   -0.1377    0.0000 Br  0  0  0  0  0  0  0  0  0  0  0  0
  1  2  1  0  0  0  0
  2  3  1  0  0  0  0
M  END
> <ChemID>
100036

> <CAS>
74-96-4

> <Original_SMILES>
CCBr

> <preferred_name>
Bromoethane

> <dsstox_substance_id>
DTXSID6020199

> <dsstox_compound_id>
DTXCID60199

> <qc_level>
DSSTox_Low

> <Canonical_QSARr>
CCBr

> <InChI_Code_QSARr>
InChI=1S/C2H5Br/c1-2-3/h2H2,1H3

> <InChI Key_QSARr>
RDHPKYGYEGBMSE-UHFFFAOYSA-N

> <Salt_Solvent>


> <Salt_Solvent_ID>
0

> <MPID>
98606

> <OH Reference>
TOSATO,ML ET AL. (1991)

> <OH>
3.5E-13

> <OH Temperature>
25.0

> <LogOH>
-12.455931955649712

> <Tr_1_Tst_0>
0

$$$$
100037
  Mrv171c012241912032D          

  3  2  0  0  0  0            999 V2000
   -0.0002   -0.1377    0.0000 Cl  0  0  0  0  0  0  0  0  0  0  0  0
    0.7143   -0.5502    0.0000 C   0  0  0  0  0  0  0  0  0  0  0  0
    1.4287   -0.1377    0.0000 Br  0  0  0  0  0  0  0  0  0  0  0  0
  1  2  1  0  0  0  0
  2  3  1  0  0  0  0
M  END
> <ChemID>
100037

> <CAS>
74-97-5

> <Original_SMILES>
ClCBr

> <preferred_name>
Bromochloromethane

> <dsstox_substance_id>
DTXSID4021503

> <dsstox_compound_id>
DTXCID301503

> <qc_level>
DSSTox_Low

> <Canonical_QSARr>
ClCBr

> <InChI_Code_QSARr>
InChI=1S/CH2BrCl/c2-1-3/h1H2

> <InChI Key_QSARr>
JPOXNPPZZKNXOV-UHFFFAOYSA-N

> <Salt_Solvent>


> <Salt_Solvent_ID>
0

> <MPID>
98607

> <OH Reference>
DEMORE,WB (1996)

> <OH>
8.8E-14

> <OH Temperature>
25.0

> <LogOH>
-13.055517327849838

> <Tr_1_Tst_0>
1

$$$$
100038
  Mrv171c012241912032D          

  3  2  0  0  0  0            999 V2000
    0.5473   -0.7528    0.0000 C   0  0  0  0  0  0  0  0  0  0  0  0
   -0.1672   -0.3403    0.0000 C   0  0  0  0  0  0  0  0  0  0  0  0
    1.2617   -0.3403    0.0000 C   0  0  0  0  0  0  0  0  0  0  0  0
  1  2  1  0  0  0  0
  1  3  1  0  0  0  0
M  END
> <ChemID>
100038

> <CAS>
74-98-6

> <Original_SMILES>
CCC

> <preferred_name>
Propane

> <dsstox_substance_id>
DTXSID5026386

> <dsstox_compound_id>
DTXCID006386

> <qc_level>
DSSTox_Low

> <Canonical_QSARr>
CCC

> <InChI_Code_QSARr>
InChI=1S/C3H8/c1-3-2/h3H2,1-2H3

> <InChI Key_QSARr>
ATUOYWHBWRKTHZ-UHFFFAOYSA-N

> <Salt_Solvent>


> <Salt_Solvent_ID>
0

> <MPID>
98608

> <OH Reference>
ATKINSON,R (1989)

> <OH>
1.15E-12

> <OH Temperature>
25.0

> <LogOH>
-11.939302159646392

> <Tr_1_Tst_0>
1

$$$$
100039
  Mrv171c012241912032D          

  3  2  0  0  0  0            999 V2000
   -0.1099   -0.1380    0.0000 C   0  0  0  0  0  0  0  0  0  0  0  0
    0.7151   -0.1380    0.0000 C   0  0  0  0  0  0  0  0  0  0  0  0
    1.5401   -0.1380    0.0000 C   0  0  0  0  0  0  0  0  0  0  0  0
  1  2  3  0  0  0  0
  2  3  1  0  0  0  0
M  END
> <ChemID>
100039

> <CAS>
74-99-7

> <Original_SMILES>
CC#C

> <preferred_name>
1-Propyne

> <dsstox_substance_id>
DTXSID0026387

> <dsstox_compound_id>
DTXCID406387

> <qc_level>
DSSTox_Low

> <Canonical_QSARr>
CC#C

> <InChI_Code_QSARr>
InChI=1S/C3H4/c1-3-2/h1H,2H3

> <InChI Key_QSARr>
MWWATHDPGQKSAR-UHFFFAOYSA-N

> <Salt_Solvent>


> <Salt_Solvent_ID>
0

> <MPID>
98609

> <OH Reference>
ATKINSON,R (1989)

> <OH>
5.9E-12

> <OH Temperature>
25.0

> <LogOH>
-11.229147988357866

> <Tr_1_Tst_0>
1

$$$$
100040
  Mrv171c012241912032D          

  3  2  0  0  0  0            999 V2000
   -0.0002   -0.1377    0.0000 C   0  0  0  0  0  0  0  0  0  0  0  0
    0.7143   -0.5502    0.0000 C   0  0  0  0  0  0  0  0  0  0  0  0
    1.4287   -0.1377    0.0000 Cl  0  0  0  0  0  0  0  0  0  0  0  0
  1  2  1  0  0  0  0
  2  3  1  0  0  0  0
M  END
> <ChemID>
100040

> <CAS>
75-00-3

> <Original_SMILES>
CCCl

> <preferred_name>
Chloroethane

> <dsstox_substance_id>
DTXSID1020302

> <dsstox_compound_id>
DTXCID90302

> <qc_level>
DSSTox_Low

> <Canonical_QSARr>
CCCl

> <InChI_Code_QSARr>
InChI=1S/C2H5Cl/c1-2-3/h2H2,1H3

> <InChI Key_QSARr>
HRYZWHHZPQKTII-UHFFFAOYSA-N

> <Salt_Solvent>


> <Salt_Solvent_ID>
0

> <MPID>
98610

> <OH Reference>
ATKINSON,R (1994)

> <OH>
4.109999999999998E-13

> <OH Temperature>
25.0

> <LogOH>
-12.386158178123951

> <Tr_1_Tst_0>
0

$$$$
100041
  Mrv171c012241912032D          

  3  2  0  0  0  0            999 V2000
   -0.0002   -0.1377    0.0000 C   0  0  0  0  0  0  0  0  0  0  0  0
    0.7143   -0.5502    0.0000 C   0  0  0  0  0  0  0  0  0  0  0  0
    1.4287   -0.1377    0.0000 Cl  0  0  0  0  0  0  0  0  0  0  0  0
  1  2  2  0  0  0  0
  2  3  1  0  0  0  0
M  END
> <ChemID>
100041

> <CAS>
75-01-4

> <Original_SMILES>
C=CCl

> <preferred_name>
Vinyl chloride

> <dsstox_substance_id>
DTXSID8021434

> <dsstox_compound_id>
DTXCID401434

> <qc_level>
DSSTox_Low

> <Canonical_QSARr>
C=CCl

> <InChI_Code_QSARr>
InChI=1S/C2H3Cl/c1-2-3/h2H,1H2

> <InChI Key_QSARr>
BZHJMEDXRYGGRV-UHFFFAOYSA-N

> <Salt_Solvent>


> <Salt_Solvent_ID>
0

> <MPID>
98611

> <OH Reference>
KWOK,ESC & ATKINSON,R (1994)

> <OH>
6.959999999999999E-12

> <OH Temperature>
25.0

> <LogOH>
-11.157390760389427

> <Tr_1_Tst_0>
1

$$$$
100042
  Mrv171c012241912032D          

  3  2  0  0  0  0            999 V2000
   -0.1657   -0.1011    0.0000 C   0  0  0  0  0  0  0  0  0  0  0  0
    0.5488   -0.5136    0.0000 C   0  0  0  0  0  0  0  0  0  0  0  0
    1.2633   -0.1011    0.0000 F   0  0  0  0  0  0  0  0  0  0  0  0
  1  2  2  0  0  0  0
  2  3  1  0  0  0  0
M  END
> <ChemID>
100042

> <CAS>
75-02-5

> <Original_SMILES>
C=CF

> <preferred_name>
Vinyl fluoride

> <dsstox_substance_id>
DTXSID3021435

> <dsstox_compound_id>
DTXCID801435

> <qc_level>
DSSTox_Low

> <Canonical_QSARr>
C=CF

> <InChI_Code_QSARr>
InChI=1S/C2H3F/c1-2-3/h2H,1H2

> <InChI Key_QSARr>
XUCNUKMRBVNAPB-UHFFFAOYSA-N

> <Salt_Solvent>


> <Salt_Solvent_ID>
0

> <MPID>
98612

> <OH Reference>
ATKINSON,R (1989)

> <OH>
5.56E-12

> <OH Temperature>
25.0

> <LogOH>
-11.25492520841796

> <Tr_1_Tst_0>
1

$$$$
100043
  Mrv171c012241912032D          

  3  2  0  0  0  0            999 V2000
   -0.0002   -0.1377    0.0000 N   0  0  0  0  0  0  0  0  0  0  0  0
    0.7143   -0.5502    0.0000 C   0  0  0  0  0  0  0  0  0  0  0  0
    1.4287   -0.1377    0.0000 C   0  0  0  0  0  0  0  0  0  0  0  0
  1  2  1  0  0  0  0
  2  3  1  0  0  0  0
M  END
> <ChemID>
100043

> <CAS>
75-04-7

> <Original_SMILES>
CCN

> <preferred_name>
Ethanamine

> <dsstox_substance_id>
DTXSID8025678

> <dsstox_compound_id>
DTXCID005678

> <qc_level>
DSSTox_Low

> <Canonical_QSARr>
CCN

> <InChI_Code_QSARr>
InChI=1S/C2H7N/c1-2-3/h2-3H2,1H3

> <InChI Key_QSARr>
QUSNBJAOOMFDIB-UHFFFAOYSA-N

> <Salt_Solvent>


> <Salt_Solvent_ID>
0

> <MPID>
98613

> <OH Reference>
ATKINSON,R (1989)

> <OH>
2.77E-11

> <OH Temperature>
27.0

> <LogOH>
-10.55752023093557

> <Tr_1_Tst_0>
1

$$$$
100044
  Mrv171c012241912032D          

  3  2  0  0  0  0            999 V2000
    0.0000   -0.0000    0.0000 C   0  0  0  0  0  0  0  0  0  0  0  0
    0.8250   -0.0000    0.0000 C   0  0  0  0  0  0  0  0  0  0  0  0
    1.6500    0.0000    0.0000 N   0  0  0  0  0  0  0  0  0  0  0  0
  1  2  1  0  0  0  0
  2  3  3  0  0  0  0
M  END
> <ChemID>
100044

> <CAS>
75-05-8

> <Original_SMILES>
CC#N

> <preferred_name>
Acetonitrile

> <dsstox_substance_id>
DTXSID7020009

> <dsstox_compound_id>
DTXCID909

> <qc_level>
DSSTox_Low

> <Canonical_QSARr>
CC#N

> <InChI_Code_QSARr>
InChI=1S/C2H3N/c1-2-3/h1H3

> <InChI Key_QSARr>
WEVYAHXRMPXWCK-UHFFFAOYSA-N

> <Salt_Solvent>


> <Salt_Solvent_ID>
0

> <MPID>
98614

> <OH Reference>
ATKINSON,R (1994)

> <OH>
2.629999999999999E-14

> <OH Temperature>
25.0

> <LogOH>
-13.580044251510255

> <Tr_1_Tst_0>
0

$$$$
100045
  Mrv171c012241912032D          

  3  2  0  0  0  0            999 V2000
   -0.0002   -0.1377    0.0000 C   0  0  0  0  0  0  0  0  0  0  0  0
    0.7143   -0.5502    0.0000 C   0  0  0  0  0  0  0  0  0  0  0  0
    1.4287   -0.1377    0.0000 O   0  0  0  0  0  0  0  0  0  0  0  0
  1  2  1  0  0  0  0
  2  3  2  0  0  0  0
M  END
> <ChemID>
100045

> <CAS>
75-07-0

> <Original_SMILES>
CC=O

> <preferred_name>
Acetaldehyde

> <dsstox_substance_id>
DTXSID5039224

> <dsstox_compound_id>
DTXCID202

> <qc_level>
DSSTox_Low

> <Canonical_QSARr>
CC=O

> <InChI_Code_QSARr>
InChI=1S/C2H4O/c1-2-3/h2H,1H3

> <InChI Key_QSARr>
IKHGUXGNUITLKF-UHFFFAOYSA-N

> <Salt_Solvent>


> <Salt_Solvent_ID>
0

> <MPID>
98615

> <OH Reference>
ATKINSON,R (1989)

> <OH>
1.58E-11

> <OH Temperature>
25.0

> <LogOH>
-10.801342913045564

> <Tr_1_Tst_0>
1

$$$$
100046
  Mrv171c012241912032D          

  3  2  0  0  0  0            999 V2000
    0.2397   -0.9543    0.0000 C   0  0  0  0  0  0  0  0  0  0  0  0
   -0.4747   -0.5418    0.0000 S   0  0  0  0  0  0  0  0  0  0  0  0
    0.9542   -0.5418    0.0000 C   0  0  0  0  0  0  0  0  0  0  0  0
  1  2  1  0  0  0  0
  1  3  1  0  0  0  0
M  END
> <ChemID>
100046

> <CAS>
75-08-1

> <Original_SMILES>
CCS

> <preferred_name>
Ethanethiol

> <dsstox_substance_id>
DTXSID9026394

> <dsstox_compound_id>
DTXCID506394

> <qc_level>
DSSTox_Low

> <Canonical_QSARr>
CCS

> <InChI_Code_QSARr>
InChI=1S/C2H6S/c1-2-3/h3H,2H2,1H3

> <InChI Key_QSARr>
DNJIEGIFACGWOD-UHFFFAOYSA-N

> <Salt_Solvent>


> <Salt_Solvent_ID>
0

> <MPID>
98616

> <OH Reference>
ATKINSON,R (1989)

> <OH>
4.679999999999998E-11

> <OH Temperature>
25.0

> <LogOH>
-10.329754146925897

> <Tr_1_Tst_0>
1

$$$$
100047
  Mrv171c012241912032D          

  3  2  0  0  0  0            999 V2000
   -0.0002   -0.1377    0.0000 Cl  0  0  0  0  0  0  0  0  0  0  0  0
    0.7143   -0.5502    0.0000 C   0  0  0  0  0  0  0  0  0  0  0  0
    1.4287   -0.1377    0.0000 Cl  0  0  0  0  0  0  0  0  0  0  0  0
  1  2  1  0  0  0  0
  2  3  1  0  0  0  0
M  END
> <ChemID>
100047

> <CAS>
75-09-2

> <Original_SMILES>
ClCCl

> <preferred_name>
Dichloromethane

> <dsstox_substance_id>
DTXSID0020868

> <dsstox_compound_id>
DTXCID40868

> <qc_level>
DSSTox_Low

> <Canonical_QSARr>
ClCCl

> <InChI_Code_QSARr>
InChI=1S/CH2Cl2/c2-1-3/h1H2

> <InChI Key_QSARr>
YMWUJEATGCHHMB-UHFFFAOYSA-N

> <Salt_Solvent>


> <Salt_Solvent_ID>
0

> <MPID>
98617

> <OH Reference>
ATKINSON,R (1989)

> <OH>
1.42E-13

> <OH Temperature>
25.0

> <LogOH>
-12.847711655616932

> <Tr_1_Tst_0>
1

$$$$
100048
  Mrv171c012241912032D          

  3  2  0  0  0  0            999 V2000
    0.6841   -0.5151    0.0000 C   0  0  0  0  0  0  0  0  0  0  0  0
   -0.0303   -0.1026    0.0000 F   0  0  0  0  0  0  0  0  0  0  0  0
    1.3986   -0.1026    0.0000 F   0  0  0  0  0  0  0  0  0  0  0  0
  1  2  1  0  0  0  0
  1  3  1  0  0  0  0
M  END
> <ChemID>
100048

> <CAS>
75-10-5

> <Original_SMILES>
FCF

> <preferred_name>
Methane, difluoro-

> <dsstox_substance_id>
DTXSID6029597

> <dsstox_compound_id>
DTXCID409597

> <qc_level>
DSSTox_Low

> <Canonical_QSARr>
FCF

> <InChI_Code_QSARr>
InChI=1S/CH2F2/c2-1-3/h1H2

> <InChI Key_QSARr>
RWRIWBAIICGTTQ-UHFFFAOYSA-N

> <Salt_Solvent>


> <Salt_Solvent_ID>
0

> <MPID>
98618

> <OH Reference>
ATKINSON,R (1989)

> <OH>
1.09E-14

> <OH Temperature>
25.0

> <LogOH>
-13.962573502059382

> <Tr_1_Tst_0>
0

$$$$
100051
  Mrv171c012241912032D          

  3  2  0  0  0  0            999 V2000
   -0.1652   -0.1026    0.0000 C   0  0  0  0  0  0  0  0  0  0  0  0
    0.5493   -0.5151    0.0000 S   0  0  0  0  0  0  0  0  0  0  0  0
    1.2637   -0.1026    0.0000 C   0  0  0  0  0  0  0  0  0  0  0  0
  1  2  1  0  0  0  0
  2  3  1  0  0  0  0
M  END
> <ChemID>
100051

> <CAS>
75-18-3

> <Original_SMILES>
CSC

> <preferred_name>
Dimethyl sulfide

> <dsstox_substance_id>
DTXSID9026398

> <dsstox_compound_id>
DTXCID106398

> <qc_level>
DSSTox_Low

> <Canonical_QSARr>
CSC

> <InChI_Code_QSARr>
InChI=1S/C2H6S/c1-3-2/h1-2H3

> <InChI Key_QSARr>
QMMFVYPAHWMCMS-UHFFFAOYSA-N

> <Salt_Solvent>


> <Salt_Solvent_ID>
0

> <MPID>
98619

> <OH Reference>
ATKINSON,R (1994)

> <OH>
4.82E-12

> <OH Temperature>
25.0

> <LogOH>
-11.316952961761134

> <Tr_1_Tst_0>
1

$$$$
100052
  Mrv171c012241912032D          

  3  3  0  0  0  0            999 V2000
    0.6507    0.1743    0.0000 C   0  0  0  0  0  0  0  0  0  0  0  0
    0.2382    0.8888    0.0000 C   0  0  0  0  0  0  0  0  0  0  0  0
   -0.1743    0.1743    0.0000 C   0  0  0  0  0  0  0  0  0  0  0  0
  2  1  1  0  0  0  0
  3  2  1  0  0  0  0
  1  3  1  0  0  0  0
M  END
> <ChemID>
100052

> <CAS>
75-19-4

> <Original_SMILES>
C1CC1

> <preferred_name>
Cyclopropane

> <dsstox_substance_id>
DTXSID4058786

> <dsstox_compound_id>
DTXCID1047734

> <qc_level>
Public_High

> <Canonical_QSARr>
C1CC1

> <InChI_Code_QSARr>
InChI=1S/C3H6/c1-2-3-1/h1-3H2

> <InChI Key_QSARr>
LVZWSLJZHVFIQJ-UHFFFAOYSA-N

> <Salt_Solvent>


> <Salt_Solvent_ID>
0

> <MPID>
98620

> <OH Reference>
KWOK,ESC & ATKINSON,R (1994)

> <OH>
8.400000000000002E-14

> <OH Temperature>
25.0

> <LogOH>
-13.075720713938129

> <Tr_1_Tst_0>
1

$$$$
100053
  Mrv171c012241912032D          

  3  3  0  0  0  0            999 V2000
    1.0774   -0.9330    0.0000 C   0  0  0  0  0  0  0  0  0  0  0  0
    0.6649   -0.2186    0.0000 O   0  0  0  0  0  0  0  0  0  0  0  0
    0.2524   -0.9330    0.0000 C   0  0  0  0  0  0  0  0  0  0  0  0
  2  1  1  0  0  0  0
  3  2  1  0  0  0  0
  1  3  1  0  0  0  0
M  END
> <ChemID>
100053

> <CAS>
75-21-8

> <Original_SMILES>
C1CO1

> <preferred_name>
Ethylene oxide

> <dsstox_substance_id>
DTXSID0020600

> <dsstox_compound_id>
DTXCID60600

> <qc_level>
DSSTox_High

> <Canonical_QSARr>
C1CO1

> <InChI_Code_QSARr>
InChI=1S/C2H4O/c1-2-3-1/h1-2H2

> <InChI Key_QSARr>
IAYPIBMASNFSPL-UHFFFAOYSA-N

> <Salt_Solvent>


> <Salt_Solvent_ID>
0

> <MPID>
98621

> <OH Reference>
ATKINSON,R (1989)

> <OH>
7.600000000000002E-14

> <OH Temperature>
25.0

> <LogOH>
-13.119186407719228

> <Tr_1_Tst_0>
0

$$$$
100055
  Mrv171c012241912032D          

  4  3  0  0  0  0            999 V2000
    1.1269    0.3035    0.0000 C   0  0  0  0  0  0  0  0  0  0  0  0
    0.7144   -0.4110    0.0000 C   0  0  0  0  0  0  0  0  0  0  0  0
    1.1269   -1.1254    0.0000 Br  0  0  0  0  0  0  0  0  0  0  0  0
   -0.1106   -0.4110    0.0000 C   0  0  0  0  0  0  0  0  0  0  0  0
  1  2  1  0  0  0  0
  2  3  1  0  0  0  0
  2  4  1  0  0  0  0
M  END
> <ChemID>
100055

> <CAS>
75-26-3

> <Original_SMILES>
CC(C)Br

> <preferred_name>
2-Bromopropane

> <dsstox_substance_id>
DTXSID7030197

> <dsstox_compound_id>
DTXCID5010197

> <qc_level>
DSSTox_Low

> <Canonical_QSARr>
CC(C)Br

> <InChI_Code_QSARr>
InChI=1S/C3H7Br/c1-3(2)4/h3H,1-2H3

> <InChI Key_QSARr>
NAMYKGVDVNBCFQ-UHFFFAOYSA-N

> <Salt_Solvent>


> <Salt_Solvent_ID>
0

> <MPID>
98622

> <OH Reference>
DONAGHY,T ET AL. (1993)

> <OH>
8.800000000000001E-13

> <OH Temperature>
25.0

> <LogOH>
-12.055517327849815

> <Tr_1_Tst_0>
1

$$$$
100056
  Mrv171c012241912032D          

  4  3  0  0  0  0            999 V2000
    1.1269    0.3035    0.0000 C   0  0  0  0  0  0  0  0  0  0  0  0
    0.7144   -0.4110    0.0000 C   0  0  0  0  0  0  0  0  0  0  0  0
    1.1269   -1.1254    0.0000 C   0  0  0  0  0  0  0  0  0  0  0  0
   -0.1106   -0.4110    0.0000 C   0  0  0  0  0  0  0  0  0  0  0  0
  1  2  1  0  0  0  0
  2  3  1  0  0  0  0
  2  4  1  0  0  0  0
M  END
> <ChemID>
100056

> <CAS>
75-28-5

> <Original_SMILES>
CC(C)C

> <preferred_name>
Isobutane

> <dsstox_substance_id>
DTXSID1026401

> <dsstox_compound_id>
DTXCID806401

> <qc_level>
DSSTox_High

> <Canonical_QSARr>
CC(C)C

> <InChI_Code_QSARr>
InChI=1S/C4H10/c1-4(2)3/h4H,1-3H3

> <InChI Key_QSARr>
NNPPMTNAJDCUHE-UHFFFAOYSA-N

> <Salt_Solvent>


> <Salt_Solvent_ID>
0

> <MPID>
98623

> <OH Reference>
ATKINSON,R (1989)

> <OH>
2.339999999999999E-12

> <OH Temperature>
25.0

> <LogOH>
-11.630784142589839

> <Tr_1_Tst_0>
1

$$$$
100057
  Mrv171c012241912032D          

  4  3  0  0  0  0            999 V2000
    1.1269    0.3035    0.0000 C   0  0  0  0  0  0  0  0  0  0  0  0
    0.7144   -0.4110    0.0000 C   0  0  0  0  0  0  0  0  0  0  0  0
    1.1269   -1.1254    0.0000 Cl  0  0  0  0  0  0  0  0  0  0  0  0
   -0.1106   -0.4110    0.0000 C   0  0  0  0  0  0  0  0  0  0  0  0
  1  2  1  0  0  0  0
  2  3  1  0  0  0  0
  2  4  1  0  0  0  0
M  END
> <ChemID>
100057

> <CAS>
75-29-6

> <Original_SMILES>
CC(C)Cl

> <preferred_name>
2-Chloropropane

> <dsstox_substance_id>
DTXSID6047739

> <dsstox_compound_id>
DTXCID0027723

> <qc_level>
DSSTox_Low

> <Canonical_QSARr>
CC(C)Cl

> <InChI_Code_QSARr>
InChI=1S/C3H7Cl/c1-3(2)4/h3H,1-2H3

> <InChI Key_QSARr>
ULYZAYCEDJDHCC-UHFFFAOYSA-N

> <Salt_Solvent>


> <Salt_Solvent_ID>
0

> <MPID>
98624

> <OH Reference>
DONAGHY,T ET AL. (1993)

> <OH>
9.2E-13

> <OH Temperature>
25.0

> <LogOH>
-12.036212172654444

> <Tr_1_Tst_0>
0

$$$$
100058
  Mrv171c012241912032D          

  4  3  0  0  0  0            999 V2000
    1.2371    0.0002    0.0000 C   0  0  0  0  0  0  0  0  0  0  0  0
    0.8246   -0.7143    0.0000 C   0  0  0  0  0  0  0  0  0  0  0  0
    1.2371   -1.4287    0.0000 S   0  0  0  0  0  0  0  0  0  0  0  0
   -0.0004   -0.7143    0.0000 C   0  0  0  0  0  0  0  0  0  0  0  0
  1  2  1  0  0  0  0
  2  3  1  0  0  0  0
  2  4  1  0  0  0  0
M  END
> <ChemID>
100058

> <CAS>
75-33-2

> <Original_SMILES>
CC(C)S

> <preferred_name>
Isopropyl mercaptan

> <dsstox_substance_id>
DTXSID1025481

> <dsstox_compound_id>
DTXCID105481

> <qc_level>
DSSTox_Low

> <Canonical_QSARr>
CC(C)S

> <InChI_Code_QSARr>
InChI=1S/C3H8S/c1-3(2)4/h3-4H,1-2H3

> <InChI Key_QSARr>
KJRCEJOSASVSRA-UHFFFAOYSA-N

> <Salt_Solvent>


> <Salt_Solvent_ID>
0

> <MPID>
98625

> <OH Reference>
ATKINSON,R (1989)

> <OH>
4.2E-11

> <OH Temperature>
25.0

> <LogOH>
-10.376750709602106

> <Tr_1_Tst_0>
1

$$$$
100059
  Mrv171c012241912032D          

  4  3  0  0  0  0            999 V2000
    1.2371    0.0002    0.0000 C   0  0  0  0  0  0  0  0  0  0  0  0
    0.8246   -0.7143    0.0000 C   0  0  0  0  0  0  0  0  0  0  0  0
    1.2371   -1.4287    0.0000 Cl  0  0  0  0  0  0  0  0  0  0  0  0
   -0.0004   -0.7143    0.0000 Cl  0  0  0  0  0  0  0  0  0  0  0  0
  1  2  1  0  0  0  0
  2  3  1  0  0  0  0
  2  4  1  0  0  0  0
M  END
> <ChemID>
100059

> <CAS>
75-34-3

> <Original_SMILES>
CC(Cl)Cl

> <preferred_name>
1,1-Dichloroethane

> <dsstox_substance_id>
DTXSID1020437

> <dsstox_compound_id>
DTXCID10437

> <qc_level>
DSSTox_Low

> <Canonical_QSARr>
CC(Cl)Cl

> <InChI_Code_QSARr>
InChI=1S/C2H4Cl2/c1-2(3)4/h2H,1H3

> <InChI Key_QSARr>
SCYULBFZEHDVBN-UHFFFAOYSA-N

> <Salt_Solvent>


> <Salt_Solvent_ID>
0

> <MPID>
98626

> <OH Reference>
KWOK,ESC & ATKINSON,R (1994)

> <OH>
2.74E-13

> <OH Temperature>
25.0

> <LogOH>
-12.562249437179604

> <Tr_1_Tst_0>
1

$$$$
100060
  Mrv171c012241912032D          

  4  3  0  0  0  0            999 V2000
    1.2371    0.0002    0.0000 C   0  0  0  0  0  0  0  0  0  0  0  0
    0.8246   -0.7143    0.0000 C   0  0  0  0  0  0  0  0  0  0  0  0
    1.2371   -1.4287    0.0000 Cl  0  0  0  0  0  0  0  0  0  0  0  0
   -0.0004   -0.7143    0.0000 Cl  0  0  0  0  0  0  0  0  0  0  0  0
  1  2  2  0  0  0  0
  2  3  1  0  0  0  0
  2  4  1  0  0  0  0
M  END
> <ChemID>
100060

> <CAS>
75-35-4

> <Original_SMILES>
C=C(Cl)Cl

> <preferred_name>
1,1-Dichloroethylene

> <dsstox_substance_id>
DTXSID8021438

> <dsstox_compound_id>
DTXCID001438

> <qc_level>
DSSTox_Low

> <Canonical_QSARr>
C=C(Cl)Cl

> <InChI_Code_QSARr>
InChI=1S/C2H2Cl2/c1-2(3)4/h1H2

> <InChI Key_QSARr>
LGXVIGDEPROXKC-UHFFFAOYSA-N

> <Salt_Solvent>


> <Salt_Solvent_ID>
0

> <MPID>
98627

> <OH Reference>
KWOK,ESC & ATKINSON,R (1994)

> <OH>
1.09E-11

> <OH Temperature>
25.0

> <LogOH>
-10.962573502059396

> <Tr_1_Tst_0>
1

$$$$
100061
  Mrv171c012241912032D          

  4  3  0  0  0  0            999 V2000
    1.1273   -0.1088    0.0000 Cl  0  0  0  0  0  0  0  0  0  0  0  0
    0.7148   -0.8233    0.0000 C   0  0  0  0  0  0  0  0  0  0  0  0
    1.1273   -1.5377    0.0000 C   0  0  0  0  0  0  0  0  0  0  0  0
   -0.1102   -0.8233    0.0000 O   0  0  0  0  0  0  0  0  0  0  0  0
  1  2  1  0  0  0  0
  2  3  1  0  0  0  0
  2  4  2  0  0  0  0
M  END
> <ChemID>
100061

> <CAS>
75-36-5

> <Original_SMILES>
CC(=O)Cl

> <preferred_name>
Acetyl chloride

> <dsstox_substance_id>
DTXSID2023852

> <dsstox_compound_id>
DTXCID203852

> <qc_level>
DSSTox_Low

> <Canonical_QSARr>
CC(=O)Cl

> <InChI_Code_QSARr>
InChI=1S/C2H3ClO/c1-2(3)4/h1H3

> <InChI Key_QSARr>
WETWJCDKMRHUPV-UHFFFAOYSA-N

> <Salt_Solvent>


> <Salt_Solvent_ID>
0

> <MPID>
98628

> <OH Reference>
KWOK,ESC & ATKINSON,R (1994)

> <OH>
9.100000000000002E-15

> <OH Temperature>
25.0

> <LogOH>
-14.040958607678911

> <Tr_1_Tst_0>
0

$$$$
100062
  Mrv171c012241912032D          

  4  3  0  0  0  0            999 V2000
    0.4090   -0.7088    0.0000 C   0  0  0  0  0  0  0  0  0  0  0  0
    0.8215    0.0057    0.0000 F   0  0  0  0  0  0  0  0  0  0  0  0
    0.8215   -1.4232    0.0000 F   0  0  0  0  0  0  0  0  0  0  0  0
   -0.4160   -0.7088    0.0000 C   0  0  0  0  0  0  0  0  0  0  0  0
  1  2  1  0  0  0  0
  1  3  1  0  0  0  0
  1  4  1  0  0  0  0
M  END
> <ChemID>
100062

> <CAS>
75-37-6

> <Original_SMILES>
CC(F)F

> <preferred_name>
1,1-Difluoroethane

> <dsstox_substance_id>
DTXSID0024050

> <dsstox_compound_id>
DTXCID904050

> <qc_level>
DSSTox_Low

> <Canonical_QSARr>
CC(F)F

> <InChI_Code_QSARr>
InChI=1S/C2H4F2/c1-2(3)4/h2H,1H3

> <InChI Key_QSARr>
NPNPZTNLOVBDOC-UHFFFAOYSA-N

> <Salt_Solvent>


> <Salt_Solvent_ID>
0

> <MPID>
98629

> <OH Reference>
ATKINSON,R (1989)

> <OH>
3.4E-14

> <OH Temperature>
25.0

> <LogOH>
-13.468521082957734

> <Tr_1_Tst_0>
1

$$$$
100063
  Mrv171c012241912032D          

  4  3  0  0  0  0            999 V2000
    1.2371   -0.0043    0.0000 C   0  0  0  0  0  0  0  0  0  0  0  0
    0.8246   -0.7188    0.0000 C   0  0  0  0  0  0  0  0  0  0  0  0
    1.2371   -1.4333    0.0000 F   0  0  0  0  0  0  0  0  0  0  0  0
   -0.0004   -0.7188    0.0000 F   0  0  0  0  0  0  0  0  0  0  0  0
  1  2  2  0  0  0  0
  2  3  1  0  0  0  0
  2  4  1  0  0  0  0
M  END
> <ChemID>
100063

> <CAS>
75-38-7

> <Original_SMILES>
C=C(F)F

> <preferred_name>
Vinylidene fluoride

> <dsstox_substance_id>
DTXSID3021439

> <dsstox_compound_id>
DTXCID401439

> <qc_level>
DSSTox_Low

> <Canonical_QSARr>
C=C(F)F

> <InChI_Code_QSARr>
InChI=1S/C2H2F2/c1-2(3)4/h1H2

> <InChI Key_QSARr>
BQCIDUSAKPWEOX-UHFFFAOYSA-N

> <Salt_Solvent>


> <Salt_Solvent_ID>
0

> <MPID>
98630

> <OH Reference>
HOWARD,CJ (1976)

> <OH>
2.1E-12

> <OH Temperature>
23.0

> <LogOH>
-11.677780705266093

> <Tr_1_Tst_0>
1

$$$$
100064
  Mrv171c012241912032D          

  4  3  0  0  0  0            999 V2000
    0.7167   -0.8235    0.0000 C   0  0  0  0  0  0  0  0  0  0  0  0
    1.1292   -0.1090    0.0000 Cl  0  0  0  0  0  0  0  0  0  0  0  0
    1.1292   -1.5380    0.0000 F   0  0  0  0  0  0  0  0  0  0  0  0
   -0.1083   -0.8235    0.0000 Cl  0  0  0  0  0  0  0  0  0  0  0  0
  1  2  1  0  0  0  0
  1  3  1  0  0  0  0
  1  4  1  0  0  0  0
M  END
> <ChemID>
100064

> <CAS>
75-43-4

> <Original_SMILES>
FC(Cl)Cl

> <preferred_name>
Dichlorofluoromethane

> <dsstox_substance_id>
DTXSID7052498

> <dsstox_compound_id>
DTXCID8031071

> <qc_level>
DSSTox_Low

> <Canonical_QSARr>
FC(Cl)Cl

> <InChI_Code_QSARr>
InChI=1S/CHCl2F/c2-1(3)4/h1H

> <InChI Key_QSARr>
UMNKXPULIDJLSU-UHFFFAOYSA-N

> <Salt_Solvent>


> <Salt_Solvent_ID>
0

> <MPID>
98631

> <OH Reference>
ATKINSON,R (1989)

> <OH>
3.03E-14

> <OH Temperature>
25.0

> <LogOH>
-13.51855737149771

> <Tr_1_Tst_0>
1

$$$$
100065
  Mrv171c012241912032D          

  4  3  0  0  0  0            999 V2000
    0.7182   -0.8221    0.0000 C   0  0  0  0  0  0  0  0  0  0  0  0
    1.1307   -0.1076    0.0000 Cl  0  0  0  0  0  0  0  0  0  0  0  0
    1.1307   -1.5366    0.0000 Cl  0  0  0  0  0  0  0  0  0  0  0  0
   -0.1068   -0.8221    0.0000 O   0  0  0  0  0  0  0  0  0  0  0  0
  1  2  1  0  0  0  0
  1  3  1  0  0  0  0
  1  4  2  0  0  0  0
M  END
> <ChemID>
100065

> <CAS>
75-44-5

> <Original_SMILES>
O=C(Cl)Cl

> <preferred_name>
Phosgene

> <dsstox_substance_id>
DTXSID0024260

> <dsstox_compound_id>
DTXCID604260

> <qc_level>
DSSTox_High

> <Canonical_QSARr>
O=C(Cl)Cl

> <InChI_Code_QSARr>
InChI=1S/CCl2O/c2-1(3)4

> <InChI Key_QSARr>
YGYAWVDWMABLBF-UHFFFAOYSA-N

> <Salt_Solvent>


> <Salt_Solvent_ID>
0

> <MPID>
98632

> <OH Reference>
ATKINSON,R (1994); <1.0E-15

> <OH>
1.0E-15

> <OH Temperature>
25.0

> <LogOH>
-15.000000000000004

> <Tr_1_Tst_0>
0

$$$$
100066
  Mrv171c012241912032D          

  4  3  0  0  0  0            999 V2000
    1.2371    0.0002    0.0000 F   0  0  0  0  0  0  0  0  0  0  0  0
    0.8246   -0.7143    0.0000 C   0  0  0  0  0  0  0  0  0  0  0  0
    1.2371   -1.4287    0.0000 Cl  0  0  0  0  0  0  0  0  0  0  0  0
   -0.0004   -0.7143    0.0000 F   0  0  0  0  0  0  0  0  0  0  0  0
  1  2  1  0  0  0  0
  2  3  1  0  0  0  0
  2  4  1  0  0  0  0
M  END
> <ChemID>
100066

> <CAS>
75-45-6

> <Original_SMILES>
FC(F)Cl

> <preferred_name>
Chlorodifluoromethane

> <dsstox_substance_id>
DTXSID6020301

> <dsstox_compound_id>
DTXCID60301

> <qc_level>
DSSTox_Low

> <Canonical_QSARr>
FC(F)Cl

> <InChI_Code_QSARr>
InChI=1S/CHClF2/c2-1(3)4/h1H

> <InChI Key_QSARr>
VOPWNXZWBYDODV-UHFFFAOYSA-N

> <Salt_Solvent>


> <Salt_Solvent_ID>
0

> <MPID>
98633

> <OH Reference>
ATKINSON,R (1989)

> <OH>
4.679999999999998E-15

> <OH Temperature>
25.0

> <LogOH>
-14.32975414692586

> <Tr_1_Tst_0>
1

$$$$
100067
  Mrv171c012241912032D          

  4  3  0  0  0  0            999 V2000
    0.8160   -0.7168    0.0000 C   0  0  0  0  0  0  0  0  0  0  0  0
    1.2285   -0.0023    0.0000 F   0  0  0  0  0  0  0  0  0  0  0  0
    1.2285   -1.4313    0.0000 F   0  0  0  0  0  0  0  0  0  0  0  0
   -0.0090   -0.7168    0.0000 F   0  0  0  0  0  0  0  0  0  0  0  0
  1  2  1  0  0  0  0
  1  3  1  0  0  0  0
  1  4  1  0  0  0  0
M  END
> <ChemID>
100067

> <CAS>
75-46-7

> <Original_SMILES>
FC(F)F

> <preferred_name>
Trifluoromethane

> <dsstox_substance_id>
DTXSID0026410

> <dsstox_compound_id>
DTXCID706410

> <qc_level>
DSSTox_Low

> <Canonical_QSARr>
FC(F)F

> <InChI_Code_QSARr>
InChI=1S/CHF3/c2-1(3)4/h1H

> <InChI Key_QSARr>
XPDWGBQVDMORPB-UHFFFAOYSA-N

> <Salt_Solvent>


> <Salt_Solvent_ID>
0

> <MPID>
98634

> <OH Reference>
KWOK,ESC & ATKINSON,R (1994)

> <OH>
3.1E-16

> <OH Temperature>
25.0

> <LogOH>
-15.508638306165713

> <Tr_1_Tst_0>
1

$$$$
100069
  Mrv171c012241912032D          

  4  3  0  0  0  0            999 V2000
    0.8246   -0.7143    0.0000 N   0  0  0  0  0  0  0  0  0  0  0  0
    1.2371    0.0002    0.0000 C   0  0  0  0  0  0  0  0  0  0  0  0
    1.2371   -1.4287    0.0000 C   0  0  0  0  0  0  0  0  0  0  0  0
   -0.0004   -0.7143    0.0000 C   0  0  0  0  0  0  0  0  0  0  0  0
  1  2  1  0  0  0  0
  1  3  1  0  0  0  0
  1  4  1  0  0  0  0
M  END
> <ChemID>
100069

> <CAS>
75-50-3

> <Original_SMILES>
CN(C)C

> <preferred_name>
Trimethylamine

> <dsstox_substance_id>
DTXSID2026238

> <dsstox_compound_id>
DTXCID106238

> <qc_level>
DSSTox_Low

> <Canonical_QSARr>
CN(C)C

> <InChI_Code_QSARr>
InChI=1S/C3H9N/c1-4(2)3/h1-3H3

> <InChI Key_QSARr>
GETQZCLCWQTVFV-UHFFFAOYSA-N

> <Salt_Solvent>


> <Salt_Solvent_ID>
0

> <MPID>
98635

> <OH Reference>
ATKINSON,R (1989)

> <OH>
6.089999999999999E-11

> <OH Temperature>
25.0

> <LogOH>
-10.215382707367125

> <Tr_1_Tst_0>
0

$$$$
100070
  Mrv171c012241912032D          

  4  3  0  0  0  0            999 V2000
    1.2393    0.0002    0.0000 C   0  0  0  0  0  0  0  0  0  0  0  0
    0.8268   -0.7143    0.0000 N   0  3  0  0  0  0  0  0  0  0  0  0
    1.2393   -1.4288    0.0000 O   0  5  0  0  0  0  0  0  0  0  0  0
    0.0018   -0.7143    0.0000 O   0  0  0  0  0  0  0  0  0  0  0  0
  1  2  1  0  0  0  0
  2  3  1  0  0  0  0
  2  4  2  0  0  0  0
M  CHG  2   2   1   3  -1
M  END
> <ChemID>
100070

> <CAS>
75-52-5

> <Original_SMILES>
C[N+]([O-])=O

> <preferred_name>
Nitromethane

> <dsstox_substance_id>
DTXSID2020977

> <dsstox_compound_id>
DTXCID40977

> <qc_level>
DSSTox_Low

> <Canonical_QSARr>
C[N+]([O-])=O

> <InChI_Code_QSARr>
InChI=1S/CH3NO2/c1-2(3)4/h1H3

> <InChI Key_QSARr>
LYGJENNIWJXYER-UHFFFAOYSA-N

> <Salt_Solvent>


> <Salt_Solvent_ID>
0

> <MPID>
98636

> <OH Reference>
KWOK,ESC & ATKINSON,R (1994)

> <OH>
1.3E-13

> <OH Temperature>
25.0

> <LogOH>
-12.886056647693161

> <Tr_1_Tst_0>
1

$$$$
100071
  Mrv171c012241912032D          

  4  4  0  0  0  0            999 V2000
    1.4472    0.3108    0.0000 C   0  0  0  0  0  0  0  0  0  0  0  0
    1.4472   -0.5142    0.0000 C   0  0  0  0  0  0  0  0  0  0  0  0
    1.0347   -1.2286    0.0000 O   0  0  0  0  0  0  0  0  0  0  0  0
    1.8597   -1.2286    0.0000 C   0  0  0  0  0  0  0  0  0  0  0  0
  1  2  1  0  0  0  0
  3  2  1  0  0  0  0
  4  3  1  0  0  0  0
  2  4  1  0  0  0  0
M  END
> <ChemID>
100071

> <CAS>
75-56-9

> <Original_SMILES>
CC1CO1

> <preferred_name>
1,2-Propylene oxide

> <dsstox_substance_id>
DTXSID5021207

> <dsstox_compound_id>
DTXCID301207

> <qc_level>
DSSTox_High

> <Canonical_QSARr>
CC1CO1

> <InChI_Code_QSARr>
InChI=1S/C3H6O/c1-3-2-4-3/h3H,2H2,1H3

> <InChI Key_QSARr>
GOOHAUXETOMSMM-UHFFFAOYSA-N

> <Salt_Solvent>


> <Salt_Solvent_ID>
0

> <MPID>
98637

> <OH Reference>
ATKINSON,R (1989)

> <OH>
5.2E-13

> <OH Temperature>
25.0

> <LogOH>
-12.283996656365193

> <Tr_1_Tst_0>
1

$$$$
100072
  Mrv171c012241912032D          

  5  4  0  0  0  0            999 V2000
    0.8250    0.0000    0.0000 C   0  0  0  0  0  0  0  0  0  0  0  0
    0.8250   -0.8250    0.0000 Br  0  0  0  0  0  0  0  0  0  0  0  0
    0.8250    0.8250    0.0000 Br  0  0  0  0  0  0  0  0  0  0  0  0
    1.6500   -0.0000    0.0000 F   0  0  0  0  0  0  0  0  0  0  0  0
    0.0000    0.0000    0.0000 F   0  0  0  0  0  0  0  0  0  0  0  0
  1  2  1  0  0  0  0
  1  3  1  0  0  0  0
  1  4  1  0  0  0  0
  1  5  1  0  0  0  0
M  END
> <ChemID>
100072

> <CAS>
75-61-6

> <Original_SMILES>
FC(F)(Br)Br

> <preferred_name>
Dibromodifluoromethane

> <dsstox_substance_id>
DTXSID9058789

> <dsstox_compound_id>
DTXCID6047737

> <qc_level>
Public_High

> <Canonical_QSARr>
FC(F)(Br)Br

> <InChI_Code_QSARr>
InChI=1S/CBr2F2/c2-1(3,4)5

> <InChI Key_QSARr>
AZSZCFSOHXEJQE-UHFFFAOYSA-N

> <Salt_Solvent>


> <Salt_Solvent_ID>
0

> <MPID>
98638

> <OH Reference>
ATKINSON,R (1994);<5.9E-16

> <OH>
5.9E-16

> <OH Temperature>
24.0

> <LogOH>
-15.229147988357873

> <Tr_1_Tst_0>
1

$$$$
100073
  Mrv171c012241912032D          

  5  4  0  0  0  0            999 V2000
    0.8250   -0.8250    0.0000 C   0  0  0  0  0  0  0  0  0  0  0  0
    0.8250   -1.6500    0.0000 F   0  0  0  0  0  0  0  0  0  0  0  0
    0.8250    0.0000    0.0000 F   0  0  0  0  0  0  0  0  0  0  0  0
    1.6500   -0.8250    0.0000 F   0  0  0  0  0  0  0  0  0  0  0  0
    0.0000   -0.8250    0.0000 Br  0  0  0  0  0  0  0  0  0  0  0  0
  1  2  1  0  0  0  0
  1  3  1  0  0  0  0
  1  4  1  0  0  0  0
  1  5  1  0  0  0  0
M  END
> <ChemID>
100073

> <CAS>
75-63-8

> <Original_SMILES>
FC(F)(F)Br

> <preferred_name>
Bromotrifluoromethane

> <dsstox_substance_id>
DTXSID5026415

> <dsstox_compound_id>
DTXCID706415

> <qc_level>
DSSTox_Low

> <Canonical_QSARr>
FC(F)(F)Br

> <InChI_Code_QSARr>
InChI=1S/CBrF3/c2-1(3,4)5

> <InChI Key_QSARr>
RJCQBQGAPKAMLL-UHFFFAOYSA-N

> <Salt_Solvent>


> <Salt_Solvent_ID>
0

> <MPID>
98639

> <OH Reference>
ATKINSON,R (1994);<1.0E-16

> <OH>
1.0E-16

> <OH Temperature>
25.0

> <LogOH>
-15.999999999999984

> <Tr_1_Tst_0>
0

$$$$
100074
  Mrv171c012241912032D          

  5  4  0  0  0  0            999 V2000
    0.8250   -0.8250    0.0000 C   0  0  0  0  0  0  0  0  0  0  0  0
    0.8250   -1.6500    0.0000 N   0  0  0  0  0  0  0  0  0  0  0  0
    0.8250    0.0000    0.0000 C   0  0  0  0  0  0  0  0  0  0  0  0
    1.6500   -0.8250    0.0000 C   0  0  0  0  0  0  0  0  0  0  0  0
    0.0000   -0.8250    0.0000 C   0  0  0  0  0  0  0  0  0  0  0  0
  1  2  1  0  0  0  0
  1  3  1  0  0  0  0
  1  4  1  0  0  0  0
  1  5  1  0  0  0  0
M  END
> <ChemID>
100074

> <CAS>
75-64-9

> <Original_SMILES>
CC(C)(C)N

> <preferred_name>
tert-Butylamine

> <dsstox_substance_id>
DTXSID5024681

> <dsstox_compound_id>
DTXCID404681

> <qc_level>
DSSTox_Low

> <Canonical_QSARr>
CC(C)(C)N

> <InChI_Code_QSARr>
InChI=1S/C4H11N/c1-4(2,3)5/h5H2,1-3H3

> <InChI Key_QSARr>
YBRBMKDOPFTVDT-UHFFFAOYSA-N

> <Salt_Solvent>


> <Salt_Solvent_ID>
0

> <MPID>
98640

> <OH Reference>
KOCH,R ET AL. (1996)

> <OH>
1.18E-11

> <OH Temperature>
25.0

> <LogOH>
-10.928117992693862

> <Tr_1_Tst_0>
1

$$$$
100075
  Mrv171c012241912032D          

  5  4  0  0  0  0            999 V2000
    0.8250   -0.8250    0.0000 C   0  0  0  0  0  0  0  0  0  0  0  0
    0.8250   -1.6500    0.0000 O   0  0  0  0  0  0  0  0  0  0  0  0
    0.8250    0.0000    0.0000 C   0  0  0  0  0  0  0  0  0  0  0  0
    1.6500   -0.8250    0.0000 C   0  0  0  0  0  0  0  0  0  0  0  0
    0.0000   -0.8250    0.0000 C   0  0  0  0  0  0  0  0  0  0  0  0
  1  2  1  0  0  0  0
  1  3  1  0  0  0  0
  1  4  1  0  0  0  0
  1  5  1  0  0  0  0
M  END
> <ChemID>
100075

> <CAS>
75-65-0

> <Original_SMILES>
CC(C)(C)O

> <preferred_name>
tert-Butyl alcohol

> <dsstox_substance_id>
DTXSID8020204

> <dsstox_compound_id>
DTXCID40204

> <qc_level>
DSSTox_Low

> <Canonical_QSARr>
CC(C)(C)O

> <InChI_Code_QSARr>
InChI=1S/C4H10O/c1-4(2,3)5/h5H,1-3H3

> <InChI Key_QSARr>
DKGAVHZHDRPRBM-UHFFFAOYSA-N

> <Salt_Solvent>


> <Salt_Solvent_ID>
0

> <MPID>
98641

> <OH Reference>
ATKINSON,R (1989)

> <OH>
1.12E-12

> <OH Temperature>
25.0

> <LogOH>
-11.950781977329799

> <Tr_1_Tst_0>
1

$$$$
100076
  Mrv171c012241912032D          

  5  4  0  0  0  0            999 V2000
    0.7127   -1.5438    0.0000 C   0  0  0  0  0  0  0  0  0  0  0  0
    0.7127   -0.7188    0.0000 C   0  0  0  0  0  0  0  0  0  0  0  0
    0.7127    0.1062    0.0000 C   0  0  0  0  0  0  0  0  0  0  0  0
    1.5377   -0.7188    0.0000 S   0  0  0  0  0  0  0  0  0  0  0  0
   -0.1123   -0.7188    0.0000 C   0  0  0  0  0  0  0  0  0  0  0  0
  1  2  1  0  0  0  0
  2  3  1  0  0  0  0
  2  4  1  0  0  0  0
  2  5  1  0  0  0  0
M  END
> <ChemID>
100076

> <CAS>
75-66-1

> <Original_SMILES>
CC(C)(C)S

> <preferred_name>
2-Methyl-2-propanethiol

> <dsstox_substance_id>
DTXSID0026418

> <dsstox_compound_id>
DTXCID906418

> <qc_level>
DSSTox_Low

> <Canonical_QSARr>
CC(C)(C)S

> <InChI_Code_QSARr>
InChI=1S/C4H10S/c1-4(2,3)5/h5H,1-3H3

> <InChI Key_QSARr>
WMXCDAVJEZZYLT-UHFFFAOYSA-N

> <Salt_Solvent>


> <Salt_Solvent_ID>
0

> <MPID>
98642

> <OH Reference>
ATKINSON,R (1989)

> <OH>
3.31E-11

> <OH Temperature>
25.0

> <LogOH>
-10.480172006224267

> <Tr_1_Tst_0>
1

$$$$
100077
  Mrv171c012241912032D          

  5  4  0  0  0  0            999 V2000
    0.8250   -0.8250    0.0000 C   0  0  0  0  0  0  0  0  0  0  0  0
    0.8250   -1.6500    0.0000 F   0  0  0  0  0  0  0  0  0  0  0  0
    0.8250    0.0000    0.0000 F   0  0  0  0  0  0  0  0  0  0  0  0
    1.6500   -0.8250    0.0000 Cl  0  0  0  0  0  0  0  0  0  0  0  0
    0.0000   -0.8250    0.0000 C   0  0  0  0  0  0  0  0  0  0  0  0
  1  2  1  0  0  0  0
  1  3  1  0  0  0  0
  1  4  1  0  0  0  0
  1  5  1  0  0  0  0
M  END
> <ChemID>
100077

> <CAS>
75-68-3

> <Original_SMILES>
CC(F)(F)Cl

> <preferred_name>
1-Chloro-1,1-difluoroethane

> <dsstox_substance_id>
DTXSID9023960

> <dsstox_compound_id>
DTXCID903960

> <qc_level>
DSSTox_Low

> <Canonical_QSARr>
CC(F)(F)Cl

> <InChI_Code_QSARr>
InChI=1S/C2H3ClF2/c1-2(3,4)5/h1H3

> <InChI Key_QSARr>
BHNZEZWIUMJCGF-UHFFFAOYSA-N

> <Salt_Solvent>


> <Salt_Solvent_ID>
0

> <MPID>
98643

> <OH Reference>
KWOK,ESC & ATKINSON,R (1994)

> <OH>
3.06E-15

> <OH Temperature>
25.0

> <LogOH>
-14.51427857351842

> <Tr_1_Tst_0>
0

$$$$
100078
  Mrv171c012241912032D          

  5  4  0  0  0  0            999 V2000
    0.8250   -1.6500    0.0000 F   0  0  0  0  0  0  0  0  0  0  0  0
    0.8250   -0.8250    0.0000 C   0  0  0  0  0  0  0  0  0  0  0  0
    0.8250    0.0000    0.0000 Cl  0  0  0  0  0  0  0  0  0  0  0  0
    1.6500   -0.8250    0.0000 Cl  0  0  0  0  0  0  0  0  0  0  0  0
    0.0000   -0.8250    0.0000 Cl  0  0  0  0  0  0  0  0  0  0  0  0
  1  2  1  0  0  0  0
  2  3  1  0  0  0  0
  2  4  1  0  0  0  0
  2  5  1  0  0  0  0
M  END
> <ChemID>
100078

> <CAS>
75-69-4

> <Original_SMILES>
FC(Cl)(Cl)Cl

> <preferred_name>
Trichlorofluoromethane

> <dsstox_substance_id>
DTXSID5021384

> <dsstox_compound_id>
DTXCID701384

> <qc_level>
DSSTox_Low

> <Canonical_QSARr>
FC(Cl)(Cl)Cl

> <InChI_Code_QSARr>
InChI=1S/CCl3F/c2-1(3,4)5

> <InChI Key_QSARr>
CYRMSUTZVYGINF-UHFFFAOYSA-N

> <Salt_Solvent>


> <Salt_Solvent_ID>
0

> <MPID>
98644

> <OH Reference>
ATKINSON,R (1994);<5E-16

> <OH>
5.0E-16

> <OH Temperature>
25.0

> <LogOH>
-15.301029995663967

> <Tr_1_Tst_0>
1

$$$$
100079
  Mrv171c012241912032D          

  5  4  0  0  0  0            999 V2000
    0.8250   -1.6500    0.0000 F   0  0  0  0  0  0  0  0  0  0  0  0
    0.8250   -0.8250    0.0000 C   0  0  0  0  0  0  0  0  0  0  0  0
    0.8250    0.0000    0.0000 Cl  0  0  0  0  0  0  0  0  0  0  0  0
    1.6500   -0.8250    0.0000 Cl  0  0  0  0  0  0  0  0  0  0  0  0
    0.0000   -0.8250    0.0000 F   0  0  0  0  0  0  0  0  0  0  0  0
  1  2  1  0  0  0  0
  2  3  1  0  0  0  0
  2  4  1  0  0  0  0
  2  5  1  0  0  0  0
M  END
> <ChemID>
100079

> <CAS>
75-71-8

> <Original_SMILES>
FC(F)(Cl)Cl

> <preferred_name>
Dichlorodifluoromethane

> <dsstox_substance_id>
DTXSID6020436

> <dsstox_compound_id>
DTXCID80436

> <qc_level>
DSSTox_Low

> <Canonical_QSARr>
FC(F)(Cl)Cl

> <InChI_Code_QSARr>
InChI=1S/CCl2F2/c2-1(3,4)5

> <InChI Key_QSARr>
PXBRQCKWGAHEHS-UHFFFAOYSA-N

> <Salt_Solvent>


> <Salt_Solvent_ID>
0

> <MPID>
98645

> <OH Reference>
ATKINSON,R (1989);<4E-16

> <OH>
4.0E-16

> <OH Temperature>
25.0

> <LogOH>
-15.397940008672018

> <Tr_1_Tst_0>
1

$$$$
100080
  Mrv171c012241912032D          

  5  4  0  0  0  0            999 V2000
    0.7163   -0.9887    0.0000 C   0  0  0  0  0  0  0  0  0  0  0  0
    0.7163   -1.8137    0.0000 Cl  0  0  0  0  0  0  0  0  0  0  0  0
    0.7163   -0.1637    0.0000 F   0  0  0  0  0  0  0  0  0  0  0  0
    1.5413   -0.9887    0.0000 F   0  0  0  0  0  0  0  0  0  0  0  0
   -0.1087   -0.9887    0.0000 F   0  0  0  0  0  0  0  0  0  0  0  0
  1  2  1  0  0  0  0
  1  3  1  0  0  0  0
  1  4  1  0  0  0  0
  1  5  1  0  0  0  0
M  END
> <ChemID>
100080

> <CAS>
75-72-9

> <Original_SMILES>
FC(F)(F)Cl

> <preferred_name>
Chlorotrifluoromethane

> <dsstox_substance_id>
DTXSID4052500

> <dsstox_compound_id>
DTXCID8031073

> <qc_level>
DSSTox_Low

> <Canonical_QSARr>
FC(F)(F)Cl

> <InChI_Code_QSARr>
InChI=1S/CClF3/c2-1(3,4)5

> <InChI Key_QSARr>
AFYPFACVUDMOHA-UHFFFAOYSA-N

> <Salt_Solvent>


> <Salt_Solvent_ID>
0

> <MPID>
98646

> <OH Reference>
ATKINSON,R (1989);<7E-16

> <OH>
6.999999999999999E-16

> <OH Temperature>
25.0

> <LogOH>
-15.154901959985732

> <Tr_1_Tst_0>
1

$$$$
100081
  Mrv171c012241912032D          

  5  4  0  0  0  0            999 V2000
    0.8250   -0.8250    0.0000 C   0  0  0  0  0  0  0  0  0  0  0  0
    0.8250   -1.6500    0.0000 F   0  0  0  0  0  0  0  0  0  0  0  0
    0.8250    0.0000    0.0000 F   0  0  0  0  0  0  0  0  0  0  0  0
    1.6500   -0.8250    0.0000 F   0  0  0  0  0  0  0  0  0  0  0  0
    0.0000   -0.8250    0.0000 F   0  0  0  0  0  0  0  0  0  0  0  0
  1  2  1  0  0  0  0
  1  3  1  0  0  0  0
  1  4  1  0  0  0  0
  1  5  1  0  0  0  0
M  END
> <ChemID>
100081

> <CAS>
75-73-0

> <Original_SMILES>
FC(F)(F)F

> <preferred_name>
Carbon tetrafluoride

> <dsstox_substance_id>
DTXSID2041757

> <dsstox_compound_id>
DTXCID0021757

> <qc_level>
DSSTox_Low

> <Canonical_QSARr>
FC(F)(F)F

> <InChI_Code_QSARr>
InChI=1S/CF4/c2-1(3,4)5

> <InChI Key_QSARr>
TXEYQDLBPFQVAA-UHFFFAOYSA-N

> <Salt_Solvent>


> <Salt_Solvent_ID>
0

> <MPID>
98647

> <OH Reference>
ATKINSON,R (1989);<4E-16

> <OH>
4.0E-16

> <OH Temperature>
25.0

> <LogOH>
-15.397940008672018

> <Tr_1_Tst_0>
0

$$$$
100083
  Mrv171c012241912032D          

  5  4  0  0  0  0            999 V2000
    0.8250   -0.8250    0.0000 Si  0  0  0  0  0  0  0  0  0  0  0  0
    0.8250   -1.6500    0.0000 C   0  0  0  0  0  0  0  0  0  0  0  0
    0.8250    0.0000    0.0000 C   0  0  0  0  0  0  0  0  0  0  0  0
    1.6500   -0.8250    0.0000 C   0  0  0  0  0  0  0  0  0  0  0  0
    0.0000   -0.8250    0.0000 C   0  0  0  0  0  0  0  0  0  0  0  0
  1  2  1  0  0  0  0
  1  3  1  0  0  0  0
  1  4  1  0  0  0  0
  1  5  1  0  0  0  0
M  END
> <ChemID>
100083

> <CAS>
75-76-3

> <Original_SMILES>
C[Si](C)(C)C

> <preferred_name>
Tetramethylsilane

> <dsstox_substance_id>
DTXSID9026423

> <dsstox_compound_id>
DTXCID206423

> <qc_level>
DSSTox_Low

> <Canonical_QSARr>
C[Si](C)(C)C

> <InChI_Code_QSARr>
InChI=1S/C4H12Si/c1-5(2,3)4/h1-4H3

> <InChI Key_QSARr>
CZDYPVPMEAXLPK-UHFFFAOYSA-N

> <Salt_Solvent>


> <Salt_Solvent_ID>
0

> <MPID>
98648

> <OH Reference>
ATKINSON,R (1991)

> <OH>
1.0E-12

> <OH Temperature>
24.0

> <LogOH>
-11.999999999999979

> <Tr_1_Tst_0>
1

$$$$
100084
  Mrv171c012241912032D          

  6  5  0  0  0  0            999 V2000
    0.3574   -1.7465    0.0000 C   0  0  0  0  0  0  0  0  0  0  0  0
    1.0718   -1.3340    0.0000 C   0  0  0  0  0  0  0  0  0  0  0  0
    1.0718   -0.5090    0.0000 C   0  0  0  0  0  0  0  0  0  0  0  0
    1.0718    0.3160    0.0000 C   0  0  0  0  0  0  0  0  0  0  0  0
    1.8968   -0.5090    0.0000 C   0  0  0  0  0  0  0  0  0  0  0  0
    0.2468   -0.5090    0.0000 C   0  0  0  0  0  0  0  0  0  0  0  0
  1  2  1  0  0  0  0
  2  3  1  0  0  0  0
  3  4  1  0  0  0  0
  3  5  1  0  0  0  0
  3  6  1  0  0  0  0
M  END
> <ChemID>
100084

> <CAS>
75-83-2

> <Original_SMILES>
CCC(C)(C)C

> <preferred_name>
2,2-Dimethylbutane

> <dsstox_substance_id>
DTXSID4025111

> <dsstox_compound_id>
DTXCID405111

> <qc_level>
DSSTox_Low

> <Canonical_QSARr>
CCC(C)(C)C

> <InChI_Code_QSARr>
InChI=1S/C6H14/c1-5-6(2,3)4/h5H2,1-4H3

> <InChI Key_QSARr>
HNRMPXKDFBEGFZ-UHFFFAOYSA-N

> <Salt_Solvent>


> <Salt_Solvent_ID>
0

> <MPID>
98649

> <OH Reference>
ATKINSON,R (1989)

> <OH>
2.32E-12

> <OH Temperature>
25.0

> <LogOH>
-11.634512015109086

> <Tr_1_Tst_0>
1

$$$$
100085
  Mrv171c012241912032D          

  6  5  0  0  0  0            999 V2000
    1.1537   -1.0829    0.0000 C   0  0  0  0  0  0  0  0  0  0  0  0
    1.5662   -1.7974    0.0000 C   0  0  0  0  0  0  0  0  0  0  0  0
    1.8682   -0.6704    0.0000 C   0  0  0  0  0  0  0  0  0  0  0  0
    0.4392   -1.4954    0.0000 C   0  0  0  0  0  0  0  0  0  0  0  0
    0.7412   -0.3684    0.0000 C   0  0  0  0  0  0  0  0  0  0  0  0
   -0.0838   -0.3684    0.0000 O   0  0  0  0  0  0  0  0  0  0  0  0
  1  2  1  0  0  0  0
  1  3  1  0  0  0  0
  1  4  1  0  0  0  0
  1  5  1  0  0  0  0
  5  6  1  0  0  0  0
M  END
> <ChemID>
100085

> <CAS>
75-84-3

> <Original_SMILES>
CC(C)(C)CO

> <preferred_name>
2,2-Dimethylpropanol

> <dsstox_substance_id>
DTXSID9052501

> <dsstox_compound_id>
DTXCID3031074

> <qc_level>
DSSTox_Low

> <Canonical_QSARr>
CC(C)(C)CO

> <InChI_Code_QSARr>
InChI=1S/C5H12O/c1-5(2,3)4-6/h6H,4H2,1-3H3

> <InChI Key_QSARr>
KPSSIOMAKSHJJG-UHFFFAOYSA-N

> <Salt_Solvent>


> <Salt_Solvent_ID>
0

> <MPID>
98650

> <OH Reference>
KWOK,ESC & ATKINSON,R (1994)

> <OH>
5.530000000000001E-12

> <OH Temperature>
25.0

> <LogOH>
-11.257274868695298

> <Tr_1_Tst_0>
1

$$$$
100086
  Mrv171c012241912032D          

  6  5  0  0  0  0            999 V2000
    0.3559   -1.7453    0.0000 O   0  0  0  0  0  0  0  0  0  0  0  0
    1.0703   -1.3328    0.0000 C   0  0  0  0  0  0  0  0  0  0  0  0
    1.0703   -0.5078    0.0000 C   0  0  0  0  0  0  0  0  0  0  0  0
    1.0703    0.3172    0.0000 Cl  0  0  0  0  0  0  0  0  0  0  0  0
    1.8953   -0.5078    0.0000 Cl  0  0  0  0  0  0  0  0  0  0  0  0
    0.2453   -0.5078    0.0000 Cl  0  0  0  0  0  0  0  0  0  0  0  0
  1  2  2  0  0  0  0
  2  3  1  0  0  0  0
  3  4  1  0  0  0  0
  3  5  1  0  0  0  0
  3  6  1  0  0  0  0
M  END
> <ChemID>
100086

> <CAS>
75-87-6

> <Original_SMILES>
O=CC(Cl)(Cl)Cl

> <preferred_name>
Chloral

> <dsstox_substance_id>
DTXSID7024744

> <dsstox_compound_id>
DTXCID604744

> <qc_level>
DSSTox_Low

> <Canonical_QSARr>
O=CC(Cl)(Cl)Cl

> <InChI_Code_QSARr>
InChI=1S/C2HCl3O/c3-2(4,5)1-6/h1H

> <InChI Key_QSARr>
HFFLGKNGCAIQMO-UHFFFAOYSA-N

> <Salt_Solvent>


> <Salt_Solvent_ID>
0

> <MPID>
98651

> <OH Reference>
SCOLLARD,DJ ET AL. (1993)

> <OH>
1.6E-12

> <OH Temperature>
25.0

> <LogOH>
-11.795880017344068

> <Tr_1_Tst_0>
0

$$$$
100087
  Mrv171c012241912032D          

  6  5  0  0  0  0            999 V2000
    1.1575   -0.8331    0.0000 C   0  0  0  0  0  0  0  0  0  0  0  0
    1.5700   -1.5476    0.0000 F   0  0  0  0  0  0  0  0  0  0  0  0
    1.8720   -0.4206    0.0000 F   0  0  0  0  0  0  0  0  0  0  0  0
    0.4430   -1.2456    0.0000 F   0  0  0  0  0  0  0  0  0  0  0  0
    0.7450   -0.1187    0.0000 C   0  0  0  0  0  0  0  0  0  0  0  0
   -0.0800   -0.1187    0.0000 Cl  0  0  0  0  0  0  0  0  0  0  0  0
  1  2  1  0  0  0  0
  1  3  1  0  0  0  0
  1  4  1  0  0  0  0
  1  5  1  0  0  0  0
  5  6  1  0  0  0  0
M  END
> <ChemID>
100087

> <CAS>
75-88-7

> <Original_SMILES>
FC(F)(F)CCl

> <preferred_name>
2-Chloro-1,1,1-trifluoroethane

> <dsstox_substance_id>
DTXSID5020289

> <dsstox_compound_id>
DTXCID50289

> <qc_level>
DSSTox_Low

> <Canonical_QSARr>
FC(F)(F)CCl

> <InChI_Code_QSARr>
InChI=1S/C2H2ClF3/c3-1-2(4,5)6/h1H2

> <InChI Key_QSARr>
CYXIKYKBLDZZNW-UHFFFAOYSA-N

> <Salt_Solvent>


> <Salt_Solvent_ID>
0

> <MPID>
98652

> <OH Reference>
ATKINSON,R (1989)

> <OH>
1.62E-14

> <OH Temperature>
25.0

> <LogOH>
-13.790484985457347

> <Tr_1_Tst_0>
1

$$$$
100088
  Mrv171c012241912032D          

  6  5  0  0  0  0            999 V2000
    1.0703   -0.5078    0.0000 C   0  0  0  0  0  0  0  0  0  0  0  0
    1.0703   -1.3328    0.0000 C   0  0  0  0  0  0  0  0  0  0  0  0
    0.3559   -1.7453    0.0000 O   0  0  0  0  0  0  0  0  0  0  0  0
    1.0703    0.3172    0.0000 F   0  0  0  0  0  0  0  0  0  0  0  0
    1.8953   -0.5078    0.0000 F   0  0  0  0  0  0  0  0  0  0  0  0
    0.2453   -0.5078    0.0000 F   0  0  0  0  0  0  0  0  0  0  0  0
  1  2  1  0  0  0  0
  2  3  1  0  0  0  0
  1  4  1  0  0  0  0
  1  5  1  0  0  0  0
  1  6  1  0  0  0  0
M  END
> <ChemID>
100088

> <CAS>
75-89-8

> <Original_SMILES>
OCC(F)(F)F

> <preferred_name>
2,2,2-Trifluoroethanol

> <dsstox_substance_id>
DTXSID0021751

> <dsstox_compound_id>
DTXCID401751

> <qc_level>
DSSTox_Low

> <Canonical_QSARr>
OCC(F)(F)F

> <InChI_Code_QSARr>
InChI=1S/C2H3F3O/c3-2(4,5)1-6/h6H,1H2

> <InChI Key_QSARr>
RHQDFWAXVIIEBN-UHFFFAOYSA-N

> <Salt_Solvent>


> <Salt_Solvent_ID>
0

> <MPID>
98653

> <OH Reference>
ATKINSON,R (1989)

> <OH>
9.549999999999997E-14

> <OH Temperature>
25.0

> <LogOH>
-13.019996628416251

> <Tr_1_Tst_0>
1

$$$$
100089
  Mrv171c012241912032D          

  6  5  0  0  0  0            999 V2000
    1.1503   -1.2141    0.0000 C   0  0  0  0  0  0  0  0  0  0  0  0
    0.4358   -1.6266    0.0000 O   0  0  0  0  0  0  0  0  0  0  0  0
    1.1503   -0.3891    0.0000 C   0  0  0  0  0  0  0  0  0  0  0  0
    1.1503    0.4359    0.0000 F   0  0  0  0  0  0  0  0  0  0  0  0
    1.9753   -0.3891    0.0000 F   0  0  0  0  0  0  0  0  0  0  0  0
    0.3253   -0.3891    0.0000 F   0  0  0  0  0  0  0  0  0  0  0  0
  1  2  2  0  0  0  0
  1  3  1  0  0  0  0
  3  4  1  0  0  0  0
  3  5  1  0  0  0  0
  3  6  1  0  0  0  0
M  END
> <ChemID>
100089

> <CAS>
75-90-1

> <Original_SMILES>
O=CC(F)(F)F

> <preferred_name>
Acetaldehyde, trifluoro-

> <dsstox_substance_id>
DTXSID3058791

> <dsstox_compound_id>
DTXCID6047739

> <qc_level>
Public_High

> <Canonical_QSARr>
O=CC(F)(F)F

> <InChI_Code_QSARr>
InChI=1S/C2HF3O/c3-2(4,5)1-6/h1H

> <InChI Key_QSARr>
JVTSHOJDBRTPHD-UHFFFAOYSA-N

> <Salt_Solvent>


> <Salt_Solvent_ID>
0

> <MPID>
98654

> <OH Reference>
SCOLLARD,DJ ET AL. (1993)

> <OH>
6.0E-13

> <OH Temperature>
25.0

> <LogOH>
-12.221848749616338

> <Tr_1_Tst_0>
1

$$$$
100090
  Mrv171c012241912032D          

  6  5  0  0  0  0            999 V2000
    1.0718   -0.5090    0.0000 C   0  0  0  0  0  0  0  0  0  0  0  0
    1.0718   -1.3340    0.0000 O   0  0  0  0  0  0  0  0  0  0  0  0
    0.3574   -1.7465    0.0000 O   0  0  0  0  0  0  0  0  0  0  0  0
    1.0718    0.3160    0.0000 C   0  0  0  0  0  0  0  0  0  0  0  0
    1.8968   -0.5090    0.0000 C   0  0  0  0  0  0  0  0  0  0  0  0
    0.2468   -0.5090    0.0000 C   0  0  0  0  0  0  0  0  0  0  0  0
  1  2  1  0  0  0  0
  2  3  1  0  0  0  0
  1  4  1  0  0  0  0
  1  5  1  0  0  0  0
  1  6  1  0  0  0  0
M  END
> <ChemID>
100090

> <CAS>
75-91-2

> <Original_SMILES>
CC(C)(C)OO

> <preferred_name>
tert-Butyl hydroperoxide

> <dsstox_substance_id>
DTXSID9024693

> <dsstox_compound_id>
DTXCID504693

> <qc_level>
DSSTox_Low

> <Canonical_QSARr>
CC(C)(C)OO

> <InChI_Code_QSARr>
InChI=1S/C4H10O2/c1-4(2,3)6-5/h5H,1-3H3

> <InChI Key_QSARr>
CIHOLLKRGTVIJN-UHFFFAOYSA-N

> <Salt_Solvent>


> <Salt_Solvent_ID>
0

> <MPID>
98655

> <OH Reference>
ATKINSON,R (1994)

> <OH>
3.000000000000001E-12

> <OH Temperature>
25.0

> <LogOH>
-11.52287874528032

> <Tr_1_Tst_0>
0

$$$$
100091
  Mrv171c012241912032D          

  7  6  0  0  0  0            999 V2000
    1.0018    0.2388    0.0000 C   0  0  0  0  0  0  0  0  0  0  0  0
    0.5893   -0.4757    0.0000 C   0  0  0  0  0  0  0  0  0  0  0  0
    1.0018   -1.1901    0.0000 C   0  0  0  0  0  0  0  0  0  0  0  0
    1.4143   -1.9046    0.0000 C   0  0  0  0  0  0  0  0  0  0  0  0
    0.2873   -1.6026    0.0000 C   0  0  0  0  0  0  0  0  0  0  0  0
    1.7163   -0.7776    0.0000 C   0  0  0  0  0  0  0  0  0  0  0  0
   -0.2357   -0.4757    0.0000 O   0  0  0  0  0  0  0  0  0  0  0  0
  1  2  1  0  0  0  0
  2  3  1  0  0  0  0
  3  4  1  0  0  0  0
  3  5  1  0  0  0  0
  3  6  1  0  0  0  0
  2  7  2  0  0  0  0
M  END
> <ChemID>
100091

> <CAS>
75-97-8

> <Original_SMILES>
CC(=O)C(C)(C)C

> <preferred_name>
3,3-Dimethyl-2-butanone

> <dsstox_substance_id>
DTXSID5021752

> <dsstox_compound_id>
DTXCID801752

> <qc_level>
DSSTox_Low

> <Canonical_QSARr>
CC(=O)C(C)(C)C

> <InChI_Code_QSARr>
InChI=1S/C6H12O/c1-5(7)6(2,3)4/h1-4H3

> <InChI Key_QSARr>
PJGSXYOJTGTZAV-UHFFFAOYSA-N

> <Salt_Solvent>


> <Salt_Solvent_ID>
0

> <MPID>
98656

> <OH Reference>
ATKINSON,R (1989)

> <OH>
1.21E-12

> <OH Temperature>
25.0

> <LogOH>
-11.91721462968355

> <Tr_1_Tst_0>
1

$$$$
100092
  Mrv171c012241912032D          

 14 15  0  0  0  0            999 V2000
    1.3810   -2.1989    0.0000 C   0  0  0  0  0  0  0  0  0  0  0  0
    1.4386   -3.0751    0.0000 C   0  0  0  0  0  0  0  0  0  0  0  0
    0.5840   -1.8689    0.0000 C   0  0  0  0  0  0  0  0  0  0  0  0
    0.5840   -0.8789    0.0000 C   0  0  0  0  0  0  0  0  0  0  0  0
    1.3810   -0.5489    0.0000 C   0  0  0  0  0  0  0  0  0  0  0  0
    1.5872   -1.3739    0.0000 C   0  0  0  0  0  0  0  0  0  0  0  0
    0.9149   -0.5503    0.0000 C   0  0  0  0  0  0  0  0  0  0  0  0
    0.7752   -1.3950    0.0000 C   0  0  0  0  0  0  0  0  0  0  0  0
    2.0954   -0.9614    0.0000 C   0  0  0  0  0  0  0  0  0  0  0  0
    2.0954   -1.7864    0.0000 C   0  0  0  0  0  0  0  0  0  0  0  0
    2.8822   -2.1939    0.0000 O   0  0  0  0  0  0  0  0  0  0  0  0
    3.6946   -1.9475    0.0000 C   0  0  0  0  0  0  0  0  0  0  0  0
    3.8819   -1.1440    0.0000 C   0  0  0  0  0  0  0  0  0  0  0  0
    4.2968   -2.5114    0.0000 O   0  0  0  0  0  0  0  0  0  0  0  0
  1  2  1  0  0  0  0
  3  1  1  0  0  0  0
  4  3  1  0  0  0  0
  5  4  1  0  0  0  0
  5  6  1  0  0  0  0
  6  1  1  0  0  0  0
  6  7  1  0  0  0  0
  6  8  1  0  0  0  0
  9  5  1  0  0  0  0
 10  9  1  0  0  0  0
  1 10  1  0  0  0  0
 10 11  1  0  0  0  0
 11 12  1  0  0  0  0
 12 13  1  0  0  0  0
 12 14  2  0  0  0  0
M  END
> <ChemID>
100092

> <CAS>
76-49-3

> <Original_SMILES>
CC1(C)C2C[C@@H](OC(C)=O)C1(C)CC2

> <preferred_name>
Bornyl acetate

> <dsstox_substance_id>
DTXSID7041675

> <dsstox_compound_id>
DTXCID5021675

> <qc_level>
DSSTox_Low

> <Canonical_QSARr>
CC1(C)C2CC(OC(C)=O)C1(C)CC2

> <InChI_Code_QSARr>
InChI=1S/C12H20O2/c1-8(13)14-10-7-9-5-6-12(10,4)11(9,2)3/h9-10H,5-7H2,1-4H3

> <InChI Key_QSARr>
KGEKLUUHTZCSIP-UHFFFAOYSA-N

> <Salt_Solvent>


> <Salt_Solvent_ID>
0

> <MPID>
98657

> <OH Reference>
COEUR,C ET AL. (1998)

> <OH>
1.39E-11

> <OH Temperature>
25.0

> <LogOH>
-10.856985199745903

> <Tr_1_Tst_0>
1

$$$$
100093
  Mrv171c012241912032D          

  7  6  0  0  0  0            999 V2000
    1.7880   -0.9018    0.0000 C   0  0  0  0  0  0  0  0  0  0  0  0
    0.9630   -0.9018    0.0000 C   0  0  0  0  0  0  0  0  0  0  0  0
    0.9630   -0.0768    0.0000 O   0  0  0  0  0  0  0  0  0  0  0  0
    0.2485    0.3357    0.0000 C   0  0  0  0  0  0  0  0  0  0  0  0
    0.9630   -1.7268    0.0000 O   0  0  0  0  0  0  0  0  0  0  0  0
    1.6774   -2.1393    0.0000 C   0  0  0  0  0  0  0  0  0  0  0  0
    0.1380   -0.9018    0.0000 C   0  0  0  0  0  0  0  0  0  0  0  0
  1  2  1  0  0  0  0
  2  3  1  0  0  0  0
  3  4  1  0  0  0  0
  2  5  1  0  0  0  0
  5  6  1  0  0  0  0
  2  7  1  0  0  0  0
M  END
> <ChemID>
100093

> <CAS>
77-76-9

> <Original_SMILES>
CC(C)(OC)OC

> <preferred_name>
2,2-Dimethoxypropane

> <dsstox_substance_id>
DTXSID7026441

> <dsstox_compound_id>
DTXCID006441

> <qc_level>
DSSTox_Low

> <Canonical_QSARr>
CC(C)(OC)OC

> <InChI_Code_QSARr>
InChI=1S/C5H12O2/c1-5(2,6-3)7-4/h1-4H3

> <InChI Key_QSARr>
HEWZVZIVELJPQZ-UHFFFAOYSA-N

> <Salt_Solvent>


> <Salt_Solvent_ID>
0

> <MPID>
98658

> <OH Reference>
ATKINSON,R (1989)

> <OH>
3.919999999999998E-12

> <OH Temperature>
25.0

> <LogOH>
-11.406713932979551

> <Tr_1_Tst_0>
1

$$$$
100094
  Mrv171c012241912032D          

  7  6  0  0  0  0            999 V2000
    0.7307   -0.8328    0.0000 S   0  0  0  0  0  0  0  0  0  0  0  0
    0.7307   -1.6578    0.0000 O   0  0  0  0  0  0  0  0  0  0  0  0
    1.4451   -2.0703    0.0000 C   0  0  0  0  0  0  0  0  0  0  0  0
    0.7307   -0.0078    0.0000 O   0  0  0  0  0  0  0  0  0  0  0  0
    0.0162    0.4047    0.0000 C   0  0  0  0  0  0  0  0  0  0  0  0
    1.5557   -0.8328    0.0000 O   0  0  0  0  0  0  0  0  0  0  0  0
   -0.0943   -0.8328    0.0000 O   0  0  0  0  0  0  0  0  0  0  0  0
  1  2  1  0  0  0  0
  2  3  1  0  0  0  0
  1  4  1  0  0  0  0
  4  5  1  0  0  0  0
  1  6  2  0  0  0  0
  1  7  2  0  0  0  0
M  END
> <ChemID>
100094

> <CAS>
77-78-1

> <Original_SMILES>
COS(=O)(=O)OC

> <preferred_name>
Dimethyl sulfate

> <dsstox_substance_id>
DTXSID5024055

> <dsstox_compound_id>
DTXCID904055

> <qc_level>
DSSTox_Low

> <Canonical_QSARr>
COS(=O)(=O)OC

> <InChI_Code_QSARr>
InChI=1S/C2H6O4S/c1-5-7(3,4)6-2/h1-2H3

> <InChI Key_QSARr>
VAYGXNSJCAHWJZ-UHFFFAOYSA-N

> <Salt_Solvent>


> <Salt_Solvent_ID>
0

> <MPID>
98659

> <OH Reference>
ATKINSON,R (1994);<5E-13

> <OH>
5.000000000000001E-13

> <OH Temperature>
25.0

> <LogOH>
-12.301029995663983

> <Tr_1_Tst_0>
0

$$$$
100096
  Mrv171c012241912032D          

 11 10  0  0  0  0            999 V2000
    1.8128   -0.5177    0.0000 O   0  0  0  0  0  0  0  0  0  0  0  0
    2.2253   -1.2322    0.0000 P   0  0  0  0  0  0  0  0  0  0  0  0
    1.5109   -1.6447    0.0000 O   0  0  0  0  0  0  0  0  0  0  0  0
    0.7964   -1.2322    0.0000 C   0  0  0  0  0  0  0  0  0  0  0  0
    0.0819   -1.6447    0.0000 C   0  0  0  0  0  0  0  0  0  0  0  0
    2.9398   -0.8197    0.0000 O   0  0  0  0  0  0  0  0  0  0  0  0
    3.6543   -1.2322    0.0000 C   0  0  0  0  0  0  0  0  0  0  0  0
    4.3688   -0.8197    0.0000 C   0  0  0  0  0  0  0  0  0  0  0  0
    2.6378   -1.9466    0.0000 O   0  0  0  0  0  0  0  0  0  0  0  0
    2.2253   -2.6611    0.0000 C   0  0  0  0  0  0  0  0  0  0  0  0
    1.4003   -2.6611    0.0000 C   0  0  0  0  0  0  0  0  0  0  0  0
  1  2  2  0  0  0  0
  2  3  1  0  0  0  0
  3  4  1  0  0  0  0
  4  5  1  0  0  0  0
  2  6  1  0  0  0  0
  6  7  1  0  0  0  0
  7  8  1  0  0  0  0
  2  9  1  0  0  0  0
  9 10  1  0  0  0  0
 10 11  1  0  0  0  0
M  END
> <ChemID>
100096

> <CAS>
78-40-0

> <Original_SMILES>
CCOP(=O)(OCC)OCC

> <preferred_name>
Triethyl phosphate

> <dsstox_substance_id>
DTXSID8026228

> <dsstox_compound_id>
DTXCID806228

> <qc_level>
DSSTox_Low

> <Canonical_QSARr>
CCOP(=O)(OCC)OCC

> <InChI_Code_QSARr>
InChI=1S/C6H15O4P/c1-4-8-11(7,9-5-2)10-6-3/h4-6H2,1-3H3

> <InChI Key_QSARr>
DQWPFSLDHJDLRL-UHFFFAOYSA-N

> <Salt_Solvent>


> <Salt_Solvent_ID>
0

> <MPID>
98660

> <OH Reference>
KWOK,ESC & ATKINSON,R (1994)

> <OH>
5.530000000000001E-11

> <OH Temperature>
25.0

> <LogOH>
-10.257274868695319

> <Tr_1_Tst_0>
1

$$$$
100097
  Mrv171c012241912032D          

 11 10  0  0  0  0            999 V2000
    2.4956   -1.7101    0.0000 O   0  0  0  0  0  0  0  0  0  0  0  0
    3.2101   -1.2976    0.0000 C   0  0  0  0  0  0  0  0  0  0  0  0
    3.9246   -0.8851    0.0000 C   0  0  0  0  0  0  0  0  0  0  0  0
    2.7976   -0.5832    0.0000 C   0  0  0  0  0  0  0  0  0  0  0  0
    1.9726   -0.5832    0.0000 C   0  0  0  0  0  0  0  0  0  0  0  0
    1.5601    0.1313    0.0000 C   0  0  0  0  0  0  0  0  0  0  0  0
    0.7351    0.1313    0.0000 C   0  0  0  0  0  0  0  0  0  0  0  0
    0.3226   -0.5832    0.0000 C   0  0  0  0  0  0  0  0  0  0  0  0
    0.3226    0.8458    0.0000 C   0  0  0  0  0  0  0  0  0  0  0  0
    3.6226   -2.0121    0.0000 C   0  0  0  0  0  0  0  0  0  0  0  0
    4.4476   -2.0121    0.0000 C   0  0  0  0  0  0  0  0  0  0  0  0
  1  2  1  0  0  0  0
  2  3  1  0  0  0  0
  2  4  1  0  0  0  0
  4  5  1  0  0  0  0
  5  6  1  0  0  0  0
  6  7  2  0  0  0  0
  7  8  1  0  0  0  0
  7  9  1  0  0  0  0
  2 10  1  0  0  0  0
 10 11  2  0  0  0  0
M  END
> <ChemID>
100097

> <CAS>
78-70-6

> <Original_SMILES>
CC(C)=CCCC(C)(O)C=C

> <preferred_name>
Linalool

> <dsstox_substance_id>
DTXSID7025502

> <dsstox_compound_id>
DTXCID305502

> <qc_level>
DSSTox_Low

> <Canonical_QSARr>
CC(C)=CCCC(C)(O)C=C

> <InChI_Code_QSARr>
InChI=1S/C10H18O/c1-5-10(4,11)8-6-7-9(2)3/h5,7,11H,1,6,8H2,2-4H3

> <InChI Key_QSARr>
CDOSHBSSFJOMGT-UHFFFAOYSA-N

> <Salt_Solvent>


> <Salt_Solvent_ID>
0

> <MPID>
98661

> <OH Reference>
ATKINSON,R ET AL. (1995)

> <OH>
1.6E-10

> <OH Temperature>
23.0

> <LogOH>
-9.795880017344066

> <Tr_1_Tst_0>
1

$$$$
100098
  Mrv171c012241912032D          

  5  4  0  0  0  0            999 V2000
    1.1439   -1.1110    0.0000 C   0  0  0  0  0  0  0  0  0  0  0  0
    1.5564   -0.3965    0.0000 C   0  0  0  0  0  0  0  0  0  0  0  0
    1.1439    0.3179    0.0000 C   0  0  0  0  0  0  0  0  0  0  0  0
    1.5564   -1.8255    0.0000 C   0  0  0  0  0  0  0  0  0  0  0  0
    0.3189   -1.1110    0.0000 C   0  0  0  0  0  0  0  0  0  0  0  0
  1  2  1  0  0  0  0
  2  3  1  0  0  0  0
  1  4  1  0  0  0  0
  1  5  1  0  0  0  0
M  END
> <ChemID>
100098

> <CAS>
78-78-4

> <Original_SMILES>
CCC(C)C

> <preferred_name>
2-Methylbutane

> <dsstox_substance_id>
DTXSID8025468

> <dsstox_compound_id>
DTXCID305468

> <qc_level>
DSSTox_Low

> <Canonical_QSARr>
CCC(C)C

> <InChI_Code_QSARr>
InChI=1S/C5H12/c1-4-5(2)3/h5H,4H2,1-3H3

> <InChI Key_QSARr>
QWTDNUCVQCZILF-UHFFFAOYSA-N

> <Salt_Solvent>


> <Salt_Solvent_ID>
0

> <MPID>
98662

> <OH Reference>
ATKINSON,R (1989)

> <OH>
3.9E-12

> <OH Temperature>
25.0

> <LogOH>
-11.40893539297348

> <Tr_1_Tst_0>
1

$$$$
100099
  Mrv171c012241912032D          

  5  4  0  0  0  0            999 V2000
    1.5564   -1.8255    0.0000 C   0  0  0  0  0  0  0  0  0  0  0  0
    1.1439   -1.1110    0.0000 C   0  0  0  0  0  0  0  0  0  0  0  0
    1.5564   -0.3965    0.0000 C   0  0  0  0  0  0  0  0  0  0  0  0
    1.1439    0.3179    0.0000 C   0  0  0  0  0  0  0  0  0  0  0  0
    0.3189   -1.1110    0.0000 C   0  0  0  0  0  0  0  0  0  0  0  0
  1  2  1  0  0  0  0
  2  3  1  0  0  0  0
  3  4  2  0  0  0  0
  2  5  2  0  0  0  0
M  END
> <ChemID>
100099

> <CAS>
78-79-5

> <Original_SMILES>
CC(=C)C=C

> <preferred_name>
Isoprene

> <dsstox_substance_id>
DTXSID2020761

> <dsstox_compound_id>
DTXCID20761

> <qc_level>
DSSTox_Low

> <Canonical_QSARr>
CC(=C)C=C

> <InChI_Code_QSARr>
InChI=1S/C5H8/c1-4-5(2)3/h4H,1-2H2,3H3

> <InChI Key_QSARr>
RRHGJUQNOFWUDK-UHFFFAOYSA-N

> <Salt_Solvent>


> <Salt_Solvent_ID>
0

> <MPID>
98663

> <OH Reference>
ATKINSON,R (1989)

> <OH>
1.01E-10

> <OH Temperature>
25.0

> <LogOH>
-9.99567862621736

> <Tr_1_Tst_0>
0

$$$$
100100
  Mrv171c012241912032D          

  5  4  0  0  0  0            999 V2000
    1.5555   -1.8248    0.0000 C   0  0  0  0  0  0  0  0  0  0  0  0
    1.1430   -1.1104    0.0000 C   0  0  0  0  0  0  0  0  0  0  0  0
    1.5555   -0.3959    0.0000 C   0  0  0  0  0  0  0  0  0  0  0  0
    1.1430    0.3186    0.0000 O   0  0  0  0  0  0  0  0  0  0  0  0
    0.3180   -1.1104    0.0000 C   0  0  0  0  0  0  0  0  0  0  0  0
  1  2  1  0  0  0  0
  2  3  1  0  0  0  0
  3  4  2  0  0  0  0
  2  5  1  0  0  0  0
M  END
> <ChemID>
100100

> <CAS>
78-84-2

> <Original_SMILES>
CC(C)C=O

> <preferred_name>
2-Methylpropanal

> <dsstox_substance_id>
DTXSID9021635

> <dsstox_compound_id>
DTXCID201635

> <qc_level>
DSSTox_Low

> <Canonical_QSARr>
CC(C)C=O

> <InChI_Code_QSARr>
InChI=1S/C4H8O/c1-4(2)3-5/h3-4H,1-2H3

> <InChI Key_QSARr>
AMIMRNSIRUDHCM-UHFFFAOYSA-N

> <Salt_Solvent>


> <Salt_Solvent_ID>
0

> <MPID>
98664

> <OH Reference>
ATKINSON,R (1989)

> <OH>
2.63E-11

> <OH Temperature>
25.0

> <LogOH>
-10.580044251510227

> <Tr_1_Tst_0>
1

$$$$
100101
  Mrv171c012241912032D          

  5  4  0  0  0  0            999 V2000
    2.0737   -0.9670    0.0000 C   0  0  0  0  0  0  0  0  0  0  0  0
    1.2487   -0.9670    0.0000 C   0  0  0  0  0  0  0  0  0  0  0  0
    0.8362   -1.6814    0.0000 C   0  0  0  0  0  0  0  0  0  0  0  0
    0.8362   -0.2525    0.0000 C   0  0  0  0  0  0  0  0  0  0  0  0
    0.0112   -0.2525    0.0000 O   0  0  0  0  0  0  0  0  0  0  0  0
  1  2  1  0  0  0  0
  2  3  2  0  0  0  0
  2  4  1  0  0  0  0
  4  5  2  0  0  0  0
M  END
> <ChemID>
100101

> <CAS>
78-85-3

> <Original_SMILES>
CC(=C)C=O

> <preferred_name>
Methacrylaldehyde

> <dsstox_substance_id>
DTXSID0052540

> <dsstox_compound_id>
DTXCID7031113

> <qc_level>
DSSTox_Low

> <Canonical_QSARr>
CC(=C)C=O

> <InChI_Code_QSARr>
InChI=1S/C4H6O/c1-4(2)3-5/h3H,1H2,2H3

> <InChI Key_QSARr>
STNJBCKSHOAVAJ-UHFFFAOYSA-N

> <Salt_Solvent>


> <Salt_Solvent_ID>
0

> <MPID>
98665

> <OH Reference>
ATKINSON,R (1989)

> <OH>
3.349999999999999E-11

> <OH Temperature>
25.0

> <LogOH>
-10.474955192963142

> <Tr_1_Tst_0>
1

$$$$
100102
  Mrv171c012241912032D          

  5  4  0  0  0  0            999 V2000
    1.4100   -1.4146    0.0000 Cl  0  0  0  0  0  0  0  0  0  0  0  0
    0.9975   -0.7001    0.0000 C   0  0  0  0  0  0  0  0  0  0  0  0
    1.4100    0.0144    0.0000 C   0  0  0  0  0  0  0  0  0  0  0  0
    0.9975    0.7288    0.0000 C   0  0  0  0  0  0  0  0  0  0  0  0
    0.1725   -0.7001    0.0000 C   0  0  0  0  0  0  0  0  0  0  0  0
  1  2  1  0  0  0  0
  2  3  1  0  0  0  0
  3  4  1  0  0  0  0
  2  5  1  0  0  0  0
M  END
> <ChemID>
100102

> <CAS>
78-86-4

> <Original_SMILES>
CCC(C)Cl

> <preferred_name>
2-Chlorobutane

> <dsstox_substance_id>
DTXSID9023966

> <dsstox_compound_id>
DTXCID303966

> <qc_level>
DSSTox_Low

> <Canonical_QSARr>
CCC(C)Cl

> <InChI_Code_QSARr>
InChI=1S/C4H9Cl/c1-3-4(2)5/h4H,3H2,1-2H3

> <InChI Key_QSARr>
BSPCSKHALVHRSR-UHFFFAOYSA-N

> <Salt_Solvent>


> <Salt_Solvent_ID>
0

> <MPID>
98666

> <OH Reference>
MILL,T ET AL. (1982)

> <OH>
2.3E-12

> <OH Temperature>
25.0

> <LogOH>
-11.638272163982387

> <Tr_1_Tst_0>
1

$$$$
100103
  Mrv171c012241912032D          

  5  4  0  0  0  0            999 V2000
    1.5573   -1.8261    0.0000 C   0  0  0  0  0  0  0  0  0  0  0  0
    1.1448   -1.1117    0.0000 C   0  0  0  0  0  0  0  0  0  0  0  0
    1.5573   -0.3972    0.0000 C   0  0  0  0  0  0  0  0  0  0  0  0
    1.1448    0.3173    0.0000 C   0  0  0  0  0  0  0  0  0  0  0  0
    0.3198   -1.1117    0.0000 O   0  0  0  0  0  0  0  0  0  0  0  0
  1  2  1  0  0  0  0
  2  3  1  0  0  0  0
  3  4  1  0  0  0  0
  2  5  1  0  0  0  0
M  END
> <ChemID>
100103

> <CAS>
78-92-2

> <Original_SMILES>
CCC(C)O

> <preferred_name>
2-Butanol

> <dsstox_substance_id>
DTXSID9021762

> <dsstox_compound_id>
DTXCID101762

> <qc_level>
DSSTox_Low

> <Canonical_QSARr>
CCC(C)O

> <InChI_Code_QSARr>
InChI=1S/C4H10O/c1-3-4(2)5/h4-5H,3H2,1-2H3

> <InChI Key_QSARr>
BTANRVKWQNVYAZ-UHFFFAOYSA-N

> <Salt_Solvent>


> <Salt_Solvent_ID>
0

> <MPID>
98667

> <OH Reference>
EDNEY,EO & CORSE,EW (1987)

> <OH>
9.600000000000001E-12

> <OH Temperature>
25.0

> <LogOH>
-11.017728766960449

> <Tr_1_Tst_0>
0

$$$$
100104
  Mrv171c012241912032D          

  5  4  0  0  0  0            999 V2000
    2.2173   -0.9688    0.0000 C   0  0  0  0  0  0  0  0  0  0  0  0
    1.3923   -0.9688    0.0000 C   0  0  0  0  0  0  0  0  0  0  0  0
    0.9798   -1.6832    0.0000 O   0  0  0  0  0  0  0  0  0  0  0  0
    0.9798   -0.2543    0.0000 C   0  0  0  0  0  0  0  0  0  0  0  0
    0.1548   -0.2543    0.0000 C   0  0  0  0  0  0  0  0  0  0  0  0
  1  2  1  0  0  0  0
  2  3  2  0  0  0  0
  2  4  1  0  0  0  0
  4  5  1  0  0  0  0
M  END
> <ChemID>
100104

> <CAS>
78-93-3

> <Original_SMILES>
CCC(C)=O

> <preferred_name>
Methyl ethyl ketone

> <dsstox_substance_id>
DTXSID3021516

> <dsstox_compound_id>
DTXCID801516

> <qc_level>
DSSTox_Low

> <Canonical_QSARr>
CCC(C)=O

> <InChI_Code_QSARr>
InChI=1S/C4H8O/c1-3-4(2)5/h3H2,1-2H3

> <InChI Key_QSARr>
ZWEHNKRNPOVVGH-UHFFFAOYSA-N

> <Salt_Solvent>


> <Salt_Solvent_ID>
0

> <MPID>
98668

> <OH Reference>
ATKINSON,R (1989)

> <OH>
1.15E-12

> <OH Temperature>
25.0

> <LogOH>
-11.939302159646392

> <Tr_1_Tst_0>
1

$$$$
100105
  Mrv171c012241912032D          

  5  4  0  0  0  0            999 V2000
    2.2173   -0.9688    0.0000 O   0  0  0  0  0  0  0  0  0  0  0  0
    1.3923   -0.9688    0.0000 C   0  0  0  0  0  0  0  0  0  0  0  0
    0.9798   -1.6832    0.0000 C   0  0  0  0  0  0  0  0  0  0  0  0
    0.9798   -0.2543    0.0000 C   0  0  0  0  0  0  0  0  0  0  0  0
    0.1548   -0.2543    0.0000 C   0  0  0  0  0  0  0  0  0  0  0  0
  1  2  2  0  0  0  0
  2  3  1  0  0  0  0
  2  4  1  0  0  0  0
  4  5  2  0  0  0  0
M  END
> <ChemID>
100105

> <CAS>
78-94-4

> <Original_SMILES>
CC(=O)C=C

> <preferred_name>
Methyl vinyl ketone

> <dsstox_substance_id>
DTXSID3025671

> <dsstox_compound_id>
DTXCID205671

> <qc_level>
DSSTox_Low

> <Canonical_QSARr>
CC(=O)C=C

> <InChI_Code_QSARr>
InChI=1S/C4H6O/c1-3-4(2)5/h3H,1H2,2H3

> <InChI Key_QSARr>
FUSUHKVFWTUUBE-UHFFFAOYSA-N

> <Salt_Solvent>


> <Salt_Solvent_ID>
0

> <MPID>
98669

> <OH Reference>
ATKINSON,R (1989)

> <OH>
1.88E-11

> <OH Temperature>
25.0

> <LogOH>
-10.7258421507363

> <Tr_1_Tst_0>
1

$$$$
100106
  Mrv171c012241912032D          

  5  4  0  0  0  0            999 V2000
    2.2164   -0.9681    0.0000 C   0  0  0  0  0  0  0  0  0  0  0  0
    1.3914   -0.9681    0.0000 C   0  0  0  0  0  0  0  0  0  0  0  0
    0.9789   -1.6826    0.0000 O   0  0  0  0  0  0  0  0  0  0  0  0
    0.9789   -0.2536    0.0000 C   0  0  0  0  0  0  0  0  0  0  0  0
    0.1539   -0.2536    0.0000 O   0  0  0  0  0  0  0  0  0  0  0  0
  1  2  1  0  0  0  0
  2  3  2  0  0  0  0
  2  4  1  0  0  0  0
  4  5  2  0  0  0  0
M  END
> <ChemID>
100106

> <CAS>
78-98-8

> <Original_SMILES>
CC(=O)C=O

> <preferred_name>
Methyl glyoxal

> <dsstox_substance_id>
DTXSID0021628

> <dsstox_compound_id>
DTXCID101628

> <qc_level>
DSSTox_Low

> <Canonical_QSARr>
CC(=O)C=O

> <InChI_Code_QSARr>
InChI=1S/C3H4O2/c1-3(5)2-4/h2H,1H3

> <InChI Key_QSARr>
AIJULSRZWUXGPQ-UHFFFAOYSA-N

> <Salt_Solvent>


> <Salt_Solvent_ID>
0

> <MPID>
98670

> <OH Reference>
ATKINSON,R (1989)

> <OH>
1.72E-11

> <OH Temperature>
25.0

> <LogOH>
-10.764471553092433

> <Tr_1_Tst_0>
1

$$$$
100107
  Mrv171c012241912032D          

  5  4  0  0  0  0            999 V2000
    2.2148   -0.9669    0.0000 Cl  0  0  0  0  0  0  0  0  0  0  0  0
    1.3898   -0.9669    0.0000 C   0  0  0  0  0  0  0  0  0  0  0  0
    0.9773   -1.6814    0.0000 Cl  0  0  0  0  0  0  0  0  0  0  0  0
    0.9773   -0.2525    0.0000 C   0  0  0  0  0  0  0  0  0  0  0  0
    0.1523   -0.2525    0.0000 Cl  0  0  0  0  0  0  0  0  0  0  0  0
  1  2  1  0  0  0  0
  2  3  1  0  0  0  0
  2  4  1  0  0  0  0
  4  5  1  0  0  0  0
M  END
> <ChemID>
100107

> <CAS>
79-00-5

> <Original_SMILES>
ClCC(Cl)Cl

> <preferred_name>
1,1,2-Trichloroethane

> <dsstox_substance_id>
DTXSID5021380

> <dsstox_compound_id>
DTXCID101380

> <qc_level>
DSSTox_Low

> <Canonical_QSARr>
ClCC(Cl)Cl

> <InChI_Code_QSARr>
InChI=1S/C2H3Cl3/c3-1-2(4)5/h2H,1H2

> <InChI Key_QSARr>
UBOXGVDOUJQMTN-UHFFFAOYSA-N

> <Salt_Solvent>


> <Salt_Solvent_ID>
0

> <MPID>
98671

> <OH Reference>
KWOK,ESC & ATKINSON,R (1994)

> <OH>
1.96E-13

> <OH Temperature>
25.0

> <LogOH>
-12.707743928643536

> <Tr_1_Tst_0>
0

$$$$
100108
  Mrv171c012241912032D          

  5  4  0  0  0  0            999 V2000
    1.8023    0.0333    0.0000 Cl  0  0  0  0  0  0  0  0  0  0  0  0
    1.3898   -0.6812    0.0000 C   0  0  0  0  0  0  0  0  0  0  0  0
    1.8023   -1.3956    0.0000 Cl  0  0  0  0  0  0  0  0  0  0  0  0
    0.5648   -0.6812    0.0000 C   0  0  0  0  0  0  0  0  0  0  0  0
    0.1523   -1.3956    0.0000 Cl  0  0  0  0  0  0  0  0  0  0  0  0
  1  2  1  0  0  0  0
  2  3  1  0  0  0  0
  2  4  2  0  0  0  0
  4  5  1  0  0  0  0
M  END
> <ChemID>
100108

> <CAS>
79-01-6

> <Original_SMILES>
ClC=C(Cl)Cl

> <preferred_name>
Trichloroethylene

> <dsstox_substance_id>
DTXSID0021383

> <dsstox_compound_id>
DTXCID901382

> <qc_level>
DSSTox_Low

> <Canonical_QSARr>
ClC=C(Cl)Cl

> <InChI_Code_QSARr>
InChI=1S/C2HCl3/c3-1-2(4)5/h1H

> <InChI Key_QSARr>
XSTXAVWGXDQKEL-UHFFFAOYSA-N

> <Salt_Solvent>


> <Salt_Solvent_ID>
0

> <MPID>
98672

> <OH Reference>
ATKINSON,R (1989)

> <OH>
2.36E-12

> <OH Temperature>
25.0

> <LogOH>
-11.627087997029879

> <Tr_1_Tst_0>
1

$$$$
100109
  Mrv171c012241912032D          

  5  4  0  0  0  0            999 V2000
    1.5548   -1.8243    0.0000 Cl  0  0  0  0  0  0  0  0  0  0  0  0
    1.1423   -1.1098    0.0000 C   0  0  0  0  0  0  0  0  0  0  0  0
    1.5548   -0.3954    0.0000 C   0  0  0  0  0  0  0  0  0  0  0  0
    1.1423    0.3191    0.0000 O   0  0  0  0  0  0  0  0  0  0  0  0
    0.3173   -1.1098    0.0000 Cl  0  0  0  0  0  0  0  0  0  0  0  0
  1  2  1  0  0  0  0
  2  3  1  0  0  0  0
  3  4  2  0  0  0  0
  2  5  1  0  0  0  0
M  END
> <ChemID>
100109

> <CAS>
79-02-7

> <Original_SMILES>
O=CC(Cl)Cl

> <preferred_name>
Dichloroacetaldehyde

> <dsstox_substance_id>
DTXSID3021560

> <dsstox_compound_id>
DTXCID901560

> <qc_level>
DSSTox_Low

> <Canonical_QSARr>
O=CC(Cl)Cl

> <InChI_Code_QSARr>
InChI=1S/C2H2Cl2O/c3-2(4)1-5/h1-2H

> <InChI Key_QSARr>
NWQWQKUXRJYXFH-UHFFFAOYSA-N

> <Salt_Solvent>


> <Salt_Solvent_ID>
0

> <MPID>
98673

> <OH Reference>
SCOLLARD,DJ ET AL. (1993)

> <OH>
2.3E-12

> <OH Temperature>
25.0

> <LogOH>
-11.638272163982387

> <Tr_1_Tst_0>
1

$$$$
100110
  Mrv171c012241912032D          

  5  4  0  0  0  0            999 V2000
    1.5564   -1.8255    0.0000 O   0  0  0  0  0  0  0  0  0  0  0  0
    1.1439   -1.1110    0.0000 C   0  0  0  0  0  0  0  0  0  0  0  0
    1.5564   -0.3965    0.0000 C   0  0  0  0  0  0  0  0  0  0  0  0
    1.1439    0.3179    0.0000 C   0  0  0  0  0  0  0  0  0  0  0  0
    0.3189   -1.1110    0.0000 O   0  0  0  0  0  0  0  0  0  0  0  0
  1  2  2  0  0  0  0
  2  3  1  0  0  0  0
  3  4  1  0  0  0  0
  2  5  1  0  0  0  0
M  END
> <ChemID>
100110

> <CAS>
79-09-4

> <Original_SMILES>
CCC(O)=O

> <preferred_name>
Propionic acid

> <dsstox_substance_id>
DTXSID8025961

> <dsstox_compound_id>
DTXCID505961

> <qc_level>
DSSTox_Low

> <Canonical_QSARr>
CCC(O)=O

> <InChI_Code_QSARr>
InChI=1S/C3H6O2/c1-2-3(4)5/h2H2,1H3,(H,4,5)

> <InChI Key_QSARr>
XBDQKXXYIPTUBI-UHFFFAOYSA-N

> <Salt_Solvent>


> <Salt_Solvent_ID>
0

> <MPID>
98674

> <OH Reference>
ATKINSON,R (1989)

> <OH>
1.22E-12

> <OH Temperature>
25.0

> <LogOH>
-11.913640169325259

> <Tr_1_Tst_0>
1

$$$$
100111
  Mrv171c012241912032D          

  5  4  0  0  0  0            999 V2000
    1.0040   -1.1104    0.0000 C   0  0  0  0  0  0  0  0  0  0  0  0
    1.4165   -1.8248    0.0000 C   0  0  0  0  0  0  0  0  0  0  0  0
    1.4165   -0.3959    0.0000 N   0  0  0  0  0  0  0  0  0  0  0  0
    1.0040    0.3186    0.0000 C   0  0  0  0  0  0  0  0  0  0  0  0
    0.1790   -1.1104    0.0000 O   0  0  0  0  0  0  0  0  0  0  0  0
  1  2  1  0  0  0  0
  1  3  1  0  0  0  0
  3  4  1  0  0  0  0
  1  5  2  0  0  0  0
M  END
> <ChemID>
100111

> <CAS>
79-16-3

> <Original_SMILES>
CNC(C)=O

> <preferred_name>
N-Methylacetamide

> <dsstox_substance_id>
DTXSID0047167

> <dsstox_compound_id>
DTXCID8027167

> <qc_level>
DSSTox_Low

> <Canonical_QSARr>
CNC(C)=O

> <InChI_Code_QSARr>
InChI=1S/C3H7NO/c1-3(5)4-2/h1-2H3,(H,4,5)

> <InChI Key_QSARr>
OHLUUHNLEMFGTQ-UHFFFAOYSA-N

> <Salt_Solvent>


> <Salt_Solvent_ID>
0

> <MPID>
98675

> <OH Reference>
KOCH,R ET AL. (1997)

> <OH>
5.200000000000001E-12

> <OH Temperature>
27.0

> <LogOH>
-11.283996656365213

> <Tr_1_Tst_0>
0

$$$$
100112
  Mrv171c012241912032D          

  5  4  0  0  0  0            999 V2000
    1.5573   -1.8261    0.0000 C   0  0  0  0  0  0  0  0  0  0  0  0
    1.1448   -1.1117    0.0000 C   0  0  0  0  0  0  0  0  0  0  0  0
    1.5573   -0.3972    0.0000 O   0  0  0  0  0  0  0  0  0  0  0  0
    1.1448    0.3173    0.0000 C   0  0  0  0  0  0  0  0  0  0  0  0
    0.3198   -1.1117    0.0000 O   0  0  0  0  0  0  0  0  0  0  0  0
  1  2  1  0  0  0  0
  2  3  1  0  0  0  0
  3  4  1  0  0  0  0
  2  5  2  0  0  0  0
M  END
> <ChemID>
100112

> <CAS>
79-20-9

> <Original_SMILES>
COC(C)=O

> <preferred_name>
Methyl acetate

> <dsstox_substance_id>
DTXSID4021767

> <dsstox_compound_id>
DTXCID101767

> <qc_level>
DSSTox_Low

> <Canonical_QSARr>
COC(C)=O

> <InChI_Code_QSARr>
InChI=1S/C3H6O2/c1-3(4)5-2/h1-2H3

> <InChI Key_QSARr>
KXKVLQRXCPHEJC-UHFFFAOYSA-N

> <Salt_Solvent>


> <Salt_Solvent_ID>
0

> <MPID>
98676

> <OH Reference>
ATKINSON,R (1989)

> <OH>
3.41E-13

> <OH Temperature>
23.0

> <LogOH>
-12.467245621007516

> <Tr_1_Tst_0>
1

$$$$
100113
  Mrv171c012241912032D          

  5  4  0  0  0  0            999 V2000
    2.0740   -0.9688    0.0000 O   0  0  0  0  0  0  0  0  0  0  0  0
    1.2490   -0.9688    0.0000 N   0  3  0  0  0  0  0  0  0  0  0  0
    0.8365   -1.6832    0.0000 O   0  5  0  0  0  0  0  0  0  0  0  0
    0.8365   -0.2543    0.0000 C   0  0  0  0  0  0  0  0  0  0  0  0
    0.0115   -0.2543    0.0000 C   0  0  0  0  0  0  0  0  0  0  0  0
  1  2  2  0  0  0  0
  2  3  1  0  0  0  0
  2  4  1  0  0  0  0
  4  5  1  0  0  0  0
M  CHG  2   2   1   3  -1
M  END
> <ChemID>
100113

> <CAS>
79-24-3

> <Original_SMILES>
CC[N+]([O-])=O

> <preferred_name>
Nitroethane

> <dsstox_substance_id>
DTXSID8020969

> <dsstox_compound_id>
DTXCID80969

> <qc_level>
DSSTox_Low

> <Canonical_QSARr>
CC[N+]([O-])=O

> <InChI_Code_QSARr>
InChI=1S/C2H5NO2/c1-2-3(4)5/h2H2,1H3

> <InChI Key_QSARr>
MCSAJNNLRCFZED-UHFFFAOYSA-N

> <Salt_Solvent>


> <Salt_Solvent_ID>
0

> <MPID>
98677

> <OH Reference>
ATKINSON,R (1994)

> <OH>
1.5E-13

> <OH Temperature>
25.0

> <LogOH>
-12.823908740944304

> <Tr_1_Tst_0>
1

$$$$
100114
  Mrv171c012241912032D          

  6  5  0  0  0  0            999 V2000
    1.2370   -0.7141    0.0000 C   0  0  0  0  0  0  0  0  0  0  0  0
    0.8245    0.0003    0.0000 C   0  0  0  0  0  0  0  0  0  0  0  0
    2.0620   -0.7141    0.0000 C   0  0  0  0  0  0  0  0  0  0  0  0
    0.8245   -1.4286    0.0000 C   0  0  0  0  0  0  0  0  0  0  0  0
    1.2370   -2.1431    0.0000 C   0  0  0  0  0  0  0  0  0  0  0  0
   -0.0005   -1.4286    0.0000 C   0  0  0  0  0  0  0  0  0  0  0  0
  1  2  1  0  0  0  0
  1  3  1  0  0  0  0
  1  4  1  0  0  0  0
  4  5  1  0  0  0  0
  4  6  1  0  0  0  0
M  END
> <ChemID>
100114

> <CAS>
79-29-8

> <Original_SMILES>
CC(C)C(C)C

> <preferred_name>
2,3-Dimethylbutane

> <dsstox_substance_id>
DTXSID9025112

> <dsstox_compound_id>
DTXCID805112

> <qc_level>
DSSTox_Low

> <Canonical_QSARr>
CC(C)C(C)C

> <InChI_Code_QSARr>
InChI=1S/C6H14/c1-5(2)6(3)4/h5-6H,1-4H3

> <InChI Key_QSARr>
ZFFMLCVRJBZUDZ-UHFFFAOYSA-N

> <Salt_Solvent>


> <Salt_Solvent_ID>
0

> <MPID>
98678

> <OH Reference>
ATKINSON,R (1989)

> <OH>
6.2E-12

> <OH Temperature>
25.0

> <LogOH>
-11.207608310501744

> <Tr_1_Tst_0>
1

$$$$
100115
  Mrv171c012241912032D          

  6  5  0  0  0  0            999 V2000
    1.2370   -2.1431    0.0000 C   0  0  0  0  0  0  0  0  0  0  0  0
    0.8245   -1.4286    0.0000 C   0  0  0  0  0  0  0  0  0  0  0  0
    1.2370   -0.7141    0.0000 C   0  0  0  0  0  0  0  0  0  0  0  0
    0.8245    0.0003    0.0000 O   0  0  0  0  0  0  0  0  0  0  0  0
    2.0620   -0.7141    0.0000 O   0  0  0  0  0  0  0  0  0  0  0  0
   -0.0005   -1.4286    0.0000 C   0  0  0  0  0  0  0  0  0  0  0  0
  1  2  1  0  0  0  0
  2  3  1  0  0  0  0
  3  4  2  0  0  0  0
  3  5  1  0  0  0  0
  2  6  1  0  0  0  0
M  END
> <ChemID>
100115

> <CAS>
79-31-2

> <Original_SMILES>
CC(C)C(O)=O

> <preferred_name>
2-Methylpropanoic acid

> <dsstox_substance_id>
DTXSID4021636

> <dsstox_compound_id>
DTXCID601636

> <qc_level>
DSSTox_Low

> <Canonical_QSARr>
CC(C)C(O)=O

> <InChI_Code_QSARr>
InChI=1S/C4H8O2/c1-3(2)4(5)6/h3H,1-2H3,(H,5,6)

> <InChI Key_QSARr>
KQNPFQTWMSNSAP-UHFFFAOYSA-N

> <Salt_Solvent>


> <Salt_Solvent_ID>
0

> <MPID>
98679

> <OH Reference>
ATKINSON,R (1989)

> <OH>
2.0E-12

> <OH Temperature>
25.0

> <LogOH>
-11.698970004336017

> <Tr_1_Tst_0>
0

$$$$
100116
  Mrv171c012241912032D          

  6  5  0  0  0  0            999 V2000
    0.8241    0.0007    0.0000 Cl  0  0  0  0  0  0  0  0  0  0  0  0
    1.2366   -0.7138    0.0000 C   0  0  0  0  0  0  0  0  0  0  0  0
    2.0616   -0.7138    0.0000 Cl  0  0  0  0  0  0  0  0  0  0  0  0
    0.8241   -1.4283    0.0000 C   0  0  0  0  0  0  0  0  0  0  0  0
    1.2366   -2.1427    0.0000 Cl  0  0  0  0  0  0  0  0  0  0  0  0
   -0.0009   -1.4283    0.0000 Cl  0  0  0  0  0  0  0  0  0  0  0  0
  1  2  1  0  0  0  0
  2  3  1  0  0  0  0
  2  4  1  0  0  0  0
  4  5  1  0  0  0  0
  4  6  1  0  0  0  0
M  END
> <ChemID>
100116

> <CAS>
79-34-5

> <Original_SMILES>
ClC(Cl)C(Cl)Cl

> <preferred_name>
1,1,2,2-Tetrachloroethane

> <dsstox_substance_id>
DTXSID7021318

> <dsstox_compound_id>
DTXCID201318

> <qc_level>
DSSTox_Low

> <Canonical_QSARr>
ClC(Cl)C(Cl)Cl

> <InChI_Code_QSARr>
InChI=1S/C2H2Cl4/c3-1(4)2(5)6/h1-2H

> <InChI Key_QSARr>
QPFMBZIOSGYJDE-UHFFFAOYSA-N

> <Salt_Solvent>


> <Salt_Solvent_ID>
0

> <MPID>
98680

> <OH Reference>
TOSATO,ML ET AL. (1991)

> <OH>
2.500000000000001E-13

> <OH Temperature>
25.0

> <LogOH>
-12.602059991327945

> <Tr_1_Tst_0>
1

$$$$
100117
  Mrv171c012241912032D          

  6  5  0  0  0  0            999 V2000
    0.8250   -0.0000    0.0000 C   0  0  0  0  0  0  0  0  0  0  0  0
    1.2375    0.7145    0.0000 F   0  0  0  0  0  0  0  0  0  0  0  0
    1.2375   -0.7145    0.0000 F   0  0  0  0  0  0  0  0  0  0  0  0
   -0.0000   -0.0000    0.0000 C   0  0  0  0  0  0  0  0  0  0  0  0
   -0.4125   -0.7145    0.0000 Cl  0  0  0  0  0  0  0  0  0  0  0  0
   -0.4125    0.7145    0.0000 Cl  0  0  0  0  0  0  0  0  0  0  0  0
  1  2  1  0  0  0  0
  1  3  1  0  0  0  0
  1  4  2  0  0  0  0
  4  5  1  0  0  0  0
  4  6  1  0  0  0  0
M  END
> <ChemID>
100117

> <CAS>
79-35-6

> <Original_SMILES>
FC(F)=C(Cl)Cl

> <preferred_name>
Ethene, 1,1-dichloro-2,2-difluoro-

> <dsstox_substance_id>
DTXSID6073150

> <dsstox_compound_id>
DTXCID5048136

> <qc_level>
Public_High

> <Canonical_QSARr>
FC(F)=C(Cl)Cl

> <InChI_Code_QSARr>
InChI=1S/C2Cl2F2/c3-1(4)2(5)6

> <InChI Key_QSARr>
QDGONURINHVBEW-UHFFFAOYSA-N

> <Salt_Solvent>


> <Salt_Solvent_ID>
0

> <MPID>
98681

> <OH Reference>
ATKINSON,R (1989)

> <OH>
7.349999999999998E-12

> <OH Temperature>
25.0

> <LogOH>
-11.133712660915803

> <Tr_1_Tst_0>
1

$$$$
100118
  Mrv171c012241912032D          

  6  5  0  0  0  0            999 V2000
    1.2408   -0.7140    0.0000 C   0  0  0  0  0  0  0  0  0  0  0  0
    1.6533    0.0005    0.0000 F   0  0  0  0  0  0  0  0  0  0  0  0
    1.6533   -1.4285    0.0000 Cl  0  0  0  0  0  0  0  0  0  0  0  0
    0.4158   -0.7140    0.0000 C   0  0  0  0  0  0  0  0  0  0  0  0
    0.0033   -1.4285    0.0000 F   0  0  0  0  0  0  0  0  0  0  0  0
    0.0033    0.0005    0.0000 F   0  0  0  0  0  0  0  0  0  0  0  0
  1  2  1  0  0  0  0
  1  3  1  0  0  0  0
  1  4  2  0  0  0  0
  4  5  1  0  0  0  0
  4  6  1  0  0  0  0
M  END
> <ChemID>
100118

> <CAS>
79-38-9

> <Original_SMILES>
FC(F)=C(F)Cl

> <preferred_name>
Chlorotrifluoroethylene

> <dsstox_substance_id>
DTXSID3026485

> <dsstox_compound_id>
DTXCID806485

> <qc_level>
DSSTox_Low

> <Canonical_QSARr>
FC(F)=C(F)Cl

> <InChI_Code_QSARr>
InChI=1S/C2ClF3/c3-1(4)2(5)6

> <InChI Key_QSARr>
UUAGAQFQZIEFAH-UHFFFAOYSA-N

> <Salt_Solvent>


> <Salt_Solvent_ID>
0

> <MPID>
98682

> <OH Reference>
DILLING,WL (1982)

> <OH>
6.999999999999999E-12

> <OH Temperature>
25.0

> <LogOH>
-11.154901959985727

> <Tr_1_Tst_0>
1

$$$$
100119
  Mrv171c012241912032D          

  6  5  0  0  0  0            999 V2000
    0.8245    0.0003    0.0000 C   0  0  0  0  0  0  0  0  0  0  0  0
    1.2370   -0.7141    0.0000 C   0  0  0  0  0  0  0  0  0  0  0  0
    2.0620   -0.7141    0.0000 C   0  0  0  0  0  0  0  0  0  0  0  0
    0.8245   -1.4286    0.0000 N   0  3  0  0  0  0  0  0  0  0  0  0
    1.2370   -2.1431    0.0000 O   0  5  0  0  0  0  0  0  0  0  0  0
   -0.0005   -1.4286    0.0000 O   0  0  0  0  0  0  0  0  0  0  0  0
  1  2  1  0  0  0  0
  2  3  1  0  0  0  0
  2  4  1  0  0  0  0
  4  5  1  0  0  0  0
  4  6  2  0  0  0  0
M  CHG  2   4   1   5  -1
M  END
> <ChemID>
100119

> <CAS>
79-46-9

> <Original_SMILES>
CC(C)[N+]([O-])=O

> <preferred_name>
2-Nitropropane

> <dsstox_substance_id>
DTXSID6020981

> <dsstox_compound_id>
DTXCID80981

> <qc_level>
DSSTox_Low

> <Canonical_QSARr>
CC(C)[N+]([O-])=O

> <InChI_Code_QSARr>
InChI=1S/C3H7NO2/c1-3(2)4(5)6/h3H,1-2H3

> <InChI Key_QSARr>
FGLBSLMDCBOPQK-UHFFFAOYSA-N

> <Salt_Solvent>


> <Salt_Solvent_ID>
0

> <MPID>
98683

> <OH Reference>
LIU,R ET AL. (1990)

> <OH>
2.6E-13

> <OH Temperature>
25.0

> <LogOH>
-12.5850266520292

> <Tr_1_Tst_0>
0

$$$$
100120
  Mrv171c012241912032D          

 10 11  0  0  0  0            999 V2000
    0.1653   -0.8721    0.0000 C   0  0  0  0  0  0  0  0  0  0  0  0
    0.8798   -0.4596    0.0000 C   0  0  0  0  0  0  0  0  0  0  0  0
    1.5943   -0.8721    0.0000 C   0  0  0  0  0  0  0  0  0  0  0  0
    2.3087   -0.4596    0.0000 C   0  0  0  0  0  0  0  0  0  0  0  0
    1.5943   -1.6971    0.0000 C   0  0  0  0  0  0  0  0  0  0  0  0
    2.4067   -1.5538    0.0000 C   0  0  0  0  0  0  0  0  0  0  0  0
    1.8764   -2.4723    0.0000 C   0  0  0  0  0  0  0  0  0  0  0  0
    0.8798   -2.1096    0.0000 C   0  0  0  0  0  0  0  0  0  0  0  0
    0.6736   -1.2846    0.0000 C   0  0  0  0  0  0  0  0  0  0  0  0
    0.1653   -1.6971    0.0000 C   0  0  0  0  0  0  0  0  0  0  0  0
  2  1  1  0  0  0  0
  2  3  1  0  0  0  0
  3  4  2  0  0  0  0
  3  5  1  0  0  0  0
  5  6  1  0  0  0  0
  5  7  1  0  0  0  0
  5  8  1  0  0  0  0
  8  9  1  0  0  0  0
  9  2  1  0  0  0  0
 10  8  1  0  0  0  0
  1 10  1  0  0  0  0
M  END
> <ChemID>
100120

> <CAS>
79-92-5

> <Original_SMILES>
CC1(C)C2CC(CC2)C1=C

> <preferred_name>
Camphene

> <dsstox_substance_id>
DTXSID8026488

> <dsstox_compound_id>
DTXCID006488

> <qc_level>
DSSTox_High

> <Canonical_QSARr>
CC1(C)C2CC(CC2)C1=C

> <InChI_Code_QSARr>
InChI=1S/C10H16/c1-7-8-4-5-9(6-8)10(7,2)3/h8-9H,1,4-6H2,2-3H3

> <InChI Key_QSARr>
CRPUJAZIXJMDBK-UHFFFAOYSA-N

> <Salt_Solvent>


> <Salt_Solvent_ID>
0

> <MPID>
98684

> <OH Reference>
ATKINSON,R ET AL. (1990A)

> <OH>
5.33E-11

> <OH Temperature>
23.0

> <LogOH>
-10.273272790973449

> <Tr_1_Tst_0>
1

$$$$
100121
  Mrv171c012241912032D          

 10 11  0  0  0  0            999 V2000
    1.1764   -0.7116    0.0000 C   0  0  0  0  0  0  0  0  0  0  0  0
    1.1073   -1.4560    0.0000 C   0  0  0  0  0  0  0  0  0  0  0  0
    1.1703   -2.1405    0.0000 C   0  0  0  0  0  0  0  0  0  0  0  0
    1.9953   -2.1440    0.0000 C   0  0  0  0  0  0  0  0  0  0  0  0
    2.4108   -1.4313    0.0000 C   0  0  0  0  0  0  0  0  0  0  0  0
    2.0014   -0.7151    0.0000 C   0  0  0  0  0  0  0  0  0  0  0  0
    2.4169   -0.0024    0.0000 C   0  0  0  0  0  0  0  0  0  0  0  0
    0.7608   -1.4243    0.0000 C   0  0  0  0  0  0  0  0  0  0  0  0
    0.0307   -1.8085    0.0000 C   0  0  0  0  0  0  0  0  0  0  0  0
    0.0340   -1.0339    0.0000 C   0  0  0  0  0  0  0  0  0  0  0  0
  2  1  1  0  0  0  0
  3  2  1  0  0  0  0
  3  4  1  0  0  0  0
  4  5  1  0  0  0  0
  5  6  2  0  0  0  0
  6  1  1  0  0  0  0
  6  7  1  0  0  0  0
  8  3  1  0  0  0  0
  1  8  1  0  0  0  0
  8  9  1  0  0  0  0
  8 10  1  0  0  0  0
M  END
> <ChemID>
100121

> <CAS>
80-56-8

> <Original_SMILES>
CC1=CCC2CC1C2(C)C

> <preferred_name>
alpha-Pinene

> <dsstox_substance_id>
DTXSID4026501

> <dsstox_compound_id>
DTXCID006501

> <qc_level>
DSSTox_Low

> <Canonical_QSARr>
CC1=CCC2CC1C2(C)C

> <InChI_Code_QSARr>
InChI=1S/C10H16/c1-7-4-5-8-6-9(7)10(8,2)3/h4,8-9H,5-6H2,1-3H3

> <InChI Key_QSARr>
GRWFGVWFFZKLTI-UHFFFAOYSA-N

> <Salt_Solvent>


> <Salt_Solvent_ID>
0

> <MPID>
98685

> <OH Reference>
KWOK,ESC & ATKINSON,R (1994)

> <OH>
5.369999999999999E-11

> <OH Temperature>
25.0

> <LogOH>
-10.27002571430043

> <Tr_1_Tst_0>
1

$$$$
100122
  Mrv171c012241912032D          

  7  6  0  0  0  0            999 V2000
    2.1797   -1.1224    0.0000 O   0  0  0  0  0  0  0  0  0  0  0  0
    1.3547   -1.1224    0.0000 C   0  0  0  0  0  0  0  0  0  0  0  0
    0.9422   -0.4079    0.0000 O   0  0  0  0  0  0  0  0  0  0  0  0
    1.3547    0.3066    0.0000 C   0  0  0  0  0  0  0  0  0  0  0  0
    0.9422   -1.8369    0.0000 C   0  0  0  0  0  0  0  0  0  0  0  0
    1.3547   -2.5513    0.0000 C   0  0  0  0  0  0  0  0  0  0  0  0
    0.1172   -1.8369    0.0000 C   0  0  0  0  0  0  0  0  0  0  0  0
  1  2  2  0  0  0  0
  2  3  1  0  0  0  0
  3  4  1  0  0  0  0
  2  5  1  0  0  0  0
  5  6  1  0  0  0  0
  5  7  2  0  0  0  0
M  END
> <ChemID>
100122

> <CAS>
80-62-6

> <Original_SMILES>
CC(=C)C(=O)OC

> <preferred_name>
Methyl methacrylate

> <dsstox_substance_id>
DTXSID2020844

> <dsstox_compound_id>
DTXCID80844

> <qc_level>
DSSTox_Low

> <Canonical_QSARr>
CC(=C)C(=O)OC

> <InChI_Code_QSARr>
InChI=1S/C5H8O2/c1-4(2)5(6)7-3/h1H2,2-3H3

> <InChI Key_QSARr>
VVQNEPGJFQJSBK-UHFFFAOYSA-N

> <Salt_Solvent>


> <Salt_Solvent_ID>
0

> <MPID>
98686

> <OH Reference>
SAUNDERS,SM ET AL. (1993)

> <OH>
2.6E-11

> <OH Temperature>
25.0

> <LogOH>
-10.585026652029196

> <Tr_1_Tst_0>
1

$$$$
100123
  Mrv171c012241912032D          

 12 14  0  0  0  0            999 V2000
    0.0158   -0.8857    0.0000 C   0  0  0  0  0  0  0  0  0  0  0  0
    0.7694   -0.5501    0.0000 C   0  0  0  0  0  0  0  0  0  0  0  0
    1.0244    0.2345    0.0000 C   0  0  0  0  0  0  0  0  0  0  0  0
    1.8494    0.2345    0.0000 C   0  0  0  0  0  0  0  0  0  0  0  0
    2.1043   -0.5501    0.0000 C   0  0  0  0  0  0  0  0  0  0  0  0
    1.4369   -1.0350    0.0000 C   0  0  0  0  0  0  0  0  0  0  0  0
    1.3506   -1.8555    0.0000 C   0  0  0  0  0  0  0  0  0  0  0  0
    2.2768   -2.1911    0.0000 C   0  0  0  0  0  0  0  0  0  0  0  0
    2.9442   -1.7061    0.0000 C   0  0  0  0  0  0  0  0  0  0  0  0
    2.8580   -0.8857    0.0000 C   0  0  0  0  0  0  0  0  0  0  0  0
    0.5970   -2.1911    0.0000 C   0  0  0  0  0  0  0  0  0  0  0  0
   -0.0705   -1.7061    0.0000 C   0  0  0  0  0  0  0  0  0  0  0  0
  2  1  1  0  0  0  0
  2  3  1  0  0  0  0
  3  4  1  0  0  0  0
  4  5  1  0  0  0  0
  5  6  1  0  0  0  0
  6  2  2  0  0  0  0
  6  7  1  0  0  0  0
  7  8  1  0  0  0  0
  8  9  2  0  0  0  0
  9 10  1  0  0  0  0
 10  5  2  0  0  0  0
 11  7  2  0  0  0  0
 12 11  1  0  0  0  0
  1 12  2  0  0  0  0
M  END
> <ChemID>
100123

> <CAS>
83-32-9

> <Original_SMILES>
C1Cc2cccc3cccc1c23

> <preferred_name>
Acenaphthene

> <dsstox_substance_id>
DTXSID3021774

> <dsstox_compound_id>
DTXCID201774

> <qc_level>
DSSTox_Low

> <Canonical_QSARr>
C1CC2=CC=CC3=CC=CC1=C23

> <InChI_Code_QSARr>
InChI=1S/C12H10/c1-3-9-4-2-6-11-8-7-10(5-1)12(9)11/h1-6H,7-8H2

> <InChI Key_QSARr>
CWRYPZZKDGJXCA-UHFFFAOYSA-N

> <Salt_Solvent>


> <Salt_Solvent_ID>
0

> <MPID>
98687

> <OH Reference>
BRUBAKER,WWJR & HITES,RA (1998)

> <OH>
5.800000000000001E-11

> <OH Temperature>
25.0

> <LogOH>
-10.236572006437049

> <Tr_1_Tst_0>
0

$$$$
100124
  Mrv171c012241912032D          

 14 16  0  0  0  0            999 V2000
    2.2977   -1.4199    0.0000 C   0  0  0  0  0  0  0  0  0  0  0  0
    2.7102   -0.7054    0.0000 C   0  0  0  0  0  0  0  0  0  0  0  0
    3.5352   -0.7054    0.0000 C   0  0  0  0  0  0  0  0  0  0  0  0
    3.9477   -1.4199    0.0000 C   0  0  0  0  0  0  0  0  0  0  0  0
    3.5352   -2.1344    0.0000 C   0  0  0  0  0  0  0  0  0  0  0  0
    2.7102   -2.1344    0.0000 C   0  0  0  0  0  0  0  0  0  0  0  0
    2.2977   -2.8488    0.0000 C   0  0  0  0  0  0  0  0  0  0  0  0
    1.4727   -2.8488    0.0000 C   0  0  0  0  0  0  0  0  0  0  0  0
    1.0602   -2.1344    0.0000 C   0  0  0  0  0  0  0  0  0  0  0  0
    0.2352   -2.1344    0.0000 C   0  0  0  0  0  0  0  0  0  0  0  0
   -0.1773   -1.4199    0.0000 C   0  0  0  0  0  0  0  0  0  0  0  0
    0.2352   -0.7054    0.0000 C   0  0  0  0  0  0  0  0  0  0  0  0
    1.0602   -0.7054    0.0000 C   0  0  0  0  0  0  0  0  0  0  0  0
    1.4727   -1.4199    0.0000 C   0  0  0  0  0  0  0  0  0  0  0  0
  2  1  1  0  0  0  0
  3  2  2  0  0  0  0
  4  3  1  0  0  0  0
  5  4  2  0  0  0  0
  6  5  1  0  0  0  0
  6  1  2  0  0  0  0
  7  6  1  0  0  0  0
  8  7  2  0  0  0  0
  9  8  1  0  0  0  0
  9 10  1  0  0  0  0
 10 11  2  0  0  0  0
 11 12  1  0  0  0  0
 12 13  2  0  0  0  0
 13 14  1  0  0  0  0
  1 14  1  0  0  0  0
 14  9  2  0  0  0  0
M  END
> <ChemID>
100124

> <CAS>
85-01-8

> <Original_SMILES>
c1cc2ccccc2c2ccccc21

> <preferred_name>
Phenanthrene

> <dsstox_substance_id>
DTXSID6024254

> <dsstox_compound_id>
DTXCID904254

> <qc_level>
DSSTox_Low

> <Canonical_QSARr>
C1=CC2C=CC=CC=2C2C=CC=CC=21

> <InChI_Code_QSARr>
InChI=1S/C14H10/c1-3-7-13-11(5-1)9-10-12-6-2-4-8-14(12)13/h1-10H

> <InChI Key_QSARr>
YNPNZTXNASCQKK-UHFFFAOYSA-N

> <Salt_Solvent>


> <Salt_Solvent_ID>
0

> <MPID>
98688

> <OH Reference>
KWOK,ESC ET AL. (1994)

> <OH>
1.3E-11

> <OH Temperature>
23.0

> <LogOH>
-10.886056647693158

> <Tr_1_Tst_0>
1

$$$$
100125
  Mrv171c012241912032D          

 13 14  0  0  0  0            999 V2000
    0.7690   -3.1406    0.0000 O   0  0  0  0  0  0  0  0  0  0  0  0
    1.4835   -2.7281    0.0000 N   0  3  0  0  0  0  0  0  0  0  0  0
    2.1979   -3.1406    0.0000 O   0  5  0  0  0  0  0  0  0  0  0  0
    1.4835   -1.9031    0.0000 C   0  0  0  0  0  0  0  0  0  0  0  0
    0.7690   -1.4906    0.0000 C   0  0  0  0  0  0  0  0  0  0  0  0
    0.7690   -0.6656    0.0000 C   0  0  0  0  0  0  0  0  0  0  0  0
    1.4835   -0.2531    0.0000 C   0  0  0  0  0  0  0  0  0  0  0  0
    2.1979   -0.6656    0.0000 C   0  0  0  0  0  0  0  0  0  0  0  0
    2.9124   -0.2531    0.0000 C   0  0  0  0  0  0  0  0  0  0  0  0
    3.6269   -0.6656    0.0000 C   0  0  0  0  0  0  0  0  0  0  0  0
    3.6269   -1.4906    0.0000 C   0  0  0  0  0  0  0  0  0  0  0  0
    2.9124   -1.9031    0.0000 C   0  0  0  0  0  0  0  0  0  0  0  0
    2.1979   -1.4906    0.0000 C   0  0  0  0  0  0  0  0  0  0  0  0
  1  2  2  0  0  0  0
  2  3  1  0  0  0  0
  2  4  1  0  0  0  0
  5  4  1  0  0  0  0
  6  5  2  0  0  0  0
  7  6  1  0  0  0  0
  8  7  2  0  0  0  0
  8  9  1  0  0  0  0
  9 10  2  0  0  0  0
 10 11  1  0  0  0  0
 11 12  2  0  0  0  0
 12 13  1  0  0  0  0
  4 13  2  0  0  0  0
 13  8  1  0  0  0  0
M  CHG  2   2   1   3  -1
M  END
> <ChemID>
100125

> <CAS>
86-57-7

> <Original_SMILES>
[O-][N+](=O)c1cccc2ccccc21

> <preferred_name>
1-Nitronaphthalene

> <dsstox_substance_id>
DTXSID7020978

> <dsstox_compound_id>
DTXCID70978

> <qc_level>
DSSTox_Low

> <Canonical_QSARr>
[O-][N+](=O)C1C=CC=C2C=CC=CC2=1

> <InChI_Code_QSARr>
InChI=1S/C10H7NO2/c12-11(13)10-7-3-5-8-4-1-2-6-9(8)10/h1-7H

> <InChI Key_QSARr>
RJKGJBPXVHTNJL-UHFFFAOYSA-N

> <Salt_Solvent>


> <Salt_Solvent_ID>
0

> <MPID>
98689

> <OH Reference>
ATKINSON,R (1989)

> <OH>
5.4E-12

> <OH Temperature>
25.0

> <LogOH>
-11.267606240177022

> <Tr_1_Tst_0>
1

$$$$
100126
  Mrv171c012241912032D          

 13 15  0  0  0  0            999 V2000
    2.5498   -0.5036    0.0000 C   0  0  0  0  0  0  0  0  0  0  0  0
    3.1018    0.1095    0.0000 C   0  0  0  0  0  0  0  0  0  0  0  0
    3.9088   -0.0620    0.0000 C   0  0  0  0  0  0  0  0  0  0  0  0
    4.1637   -0.8466    0.0000 C   0  0  0  0  0  0  0  0  0  0  0  0
    3.6117   -1.4597    0.0000 C   0  0  0  0  0  0  0  0  0  0  0  0
    2.8047   -1.2882    0.0000 C   0  0  0  0  0  0  0  0  0  0  0  0
    2.1373   -1.7731    0.0000 C   0  0  0  0  0  0  0  0  0  0  0  0
    1.4699   -1.2882    0.0000 C   0  0  0  0  0  0  0  0  0  0  0  0
    0.6629   -1.4597    0.0000 C   0  0  0  0  0  0  0  0  0  0  0  0
    0.1109   -0.8466    0.0000 C   0  0  0  0  0  0  0  0  0  0  0  0
    0.3658   -0.0620    0.0000 C   0  0  0  0  0  0  0  0  0  0  0  0
    1.1728    0.1095    0.0000 C   0  0  0  0  0  0  0  0  0  0  0  0
    1.7248   -0.5036    0.0000 C   0  0  0  0  0  0  0  0  0  0  0  0
  2  1  1  0  0  0  0
  3  2  2  0  0  0  0
  4  3  1  0  0  0  0
  5  4  2  0  0  0  0
  6  5  1  0  0  0  0
  6  1  2  0  0  0  0
  7  6  1  0  0  0  0
  8  7  1  0  0  0  0
  8  9  1  0  0  0  0
  9 10  2  0  0  0  0
 10 11  1  0  0  0  0
 11 12  2  0  0  0  0
 12 13  1  0  0  0  0
  1 13  1  0  0  0  0
 13  8  2  0  0  0  0
M  END
> <ChemID>
100126

> <CAS>
86-73-7

> <Original_SMILES>
C1c2ccccc2-c2ccccc21

> <preferred_name>
Fluorene

> <dsstox_substance_id>
DTXSID8024105

> <dsstox_compound_id>
DTXCID604105

> <qc_level>
DSSTox_Low

> <Canonical_QSARr>
C1C2C=CC=CC=2C2C=CC=CC=21

> <InChI_Code_QSARr>
InChI=1S/C13H10/c1-3-7-12-10(5-1)9-11-6-2-4-8-13(11)12/h1-8H,9H2

> <InChI Key_QSARr>
NIHNNTQXNPWCJQ-UHFFFAOYSA-N

> <Salt_Solvent>


> <Salt_Solvent_ID>
0

> <MPID>
98690

> <OH Reference>
ATKINSON,R (1989)

> <OH>
1.3E-11

> <OH Temperature>
25.0

> <LogOH>
-10.886056647693158

> <Tr_1_Tst_0>
1

$$$$
100127
  Mrv171c012241912032D          

 15 16  0  0  0  0            999 V2000
    3.9666    0.6293    0.0000 C   0  0  0  0  0  0  0  0  0  0  0  0
    3.3346    1.1596    0.0000 C   0  0  0  0  0  0  0  0  0  0  0  0
    2.6202    0.7471    0.0000 C   0  0  0  0  0  0  0  0  0  0  0  0
    1.8077    0.8904    0.0000 C   0  0  0  0  0  0  0  0  0  0  0  0
    1.2774    1.5223    0.0000 C   0  0  0  0  0  0  0  0  0  0  0  0
    1.2774    2.3473    0.0000 C   0  0  0  0  0  0  0  0  0  0  0  0
    0.4524    2.3473    0.0000 C   0  0  0  0  0  0  0  0  0  0  0  0
    0.4524    1.5223    0.0000 C   0  0  0  0  0  0  0  0  0  0  0  0
   -0.3498    1.3298    0.0000 C   0  0  0  0  0  0  0  0  0  0  0  0
    0.2598    0.7201    0.0000 C   0  0  0  0  0  0  0  0  0  0  0  0
    1.8077    2.9793    0.0000 C   0  0  0  0  0  0  0  0  0  0  0  0
    1.3952    3.6938    0.0000 C   0  0  0  0  0  0  0  0  0  0  0  0
    2.6202    3.1226    0.0000 C   0  0  0  0  0  0  0  0  0  0  0  0
    3.3346    2.7101    0.0000 C   0  0  0  0  0  0  0  0  0  0  0  0
    3.6168    1.9348    0.0000 C   0  0  0  0  0  0  0  0  0  0  0  0
  1  2  1  0  0  0  0
  2  3  1  0  0  0  0
  3  4  1  0  0  0  0
  4  5  1  0  0  0  0
  5  6  1  0  0  0  0
  6  7  1  0  0  0  0
  7  8  1  0  0  0  0
  5  8  1  0  0  0  0
  8  9  1  0  0  0  0
  8 10  1  0  0  0  0
  6 11  1  0  0  0  0
 11 12  2  0  0  0  0
 11 13  1  0  0  0  0
 13 14  1  0  0  0  0
 15 14  1  4  0  0  0
  2 15  2  0  0  0  0
M  END
> <ChemID>
100127

> <CAS>
87-44-5

> <Original_SMILES>
CC1CC[C@@H]2[C@H](CC2(C)C)C(=C)CCC=1

> <preferred_name>
beta-Caryophyllene

> <dsstox_substance_id>
DTXSID8024739

> <dsstox_compound_id>
DTXCID304739

> <qc_level>
DSSTox_Low

> <Canonical_QSARr>
CC1CCC2C(CC2(C)C)C(=C)CCC=1

> <InChI_Code_QSARr>
InChI=1S/C15H24/c1-11-6-5-7-12(2)13-10-15(3,4)14(13)9-8-11/h6,13-14H,2,5,7-10H2,1,3-4H3/b11-6+

> <InChI Key_QSARr>
NPNUFJAVOOONJE-IZZDOVSWSA-N

> <Salt_Solvent>


> <Salt_Solvent_ID>
0

> <MPID>
98691

> <OH Reference>
SHU,Y & ATKINSON,R (1995)

> <OH>
2.000000000000001E-10

> <OH Temperature>
23.0

> <LogOH>
-9.698970004336013

> <Tr_1_Tst_0>
0

$$$$
100128
  Mrv171c012241912032D          

 10 10  0  0  0  0            999 V2000
    2.4136   -0.9140    0.0000 N   0  3  0  0  0  0  0  0  0  0  0  0
    1.6991   -1.3265    0.0000 C   0  0  0  0  0  0  0  0  0  0  0  0
    0.9846   -0.9140    0.0000 C   0  0  0  0  0  0  0  0  0  0  0  0
    0.9846   -0.0890    0.0000 C   0  0  0  0  0  0  0  0  0  0  0  0
    0.2701   -1.3265    0.0000 C   0  0  0  0  0  0  0  0  0  0  0  0
    0.2701   -2.1515    0.0000 C   0  0  0  0  0  0  0  0  0  0  0  0
    0.9846   -2.5640    0.0000 C   0  0  0  0  0  0  0  0  0  0  0  0
    1.6991   -2.1515    0.0000 C   0  0  0  0  0  0  0  0  0  0  0  0
    2.4136   -0.0890    0.0000 O   0  5  0  0  0  0  0  0  0  0  0  0
    3.1280   -1.3265    0.0000 O   0  0  0  0  0  0  0  0  0  0  0  0
  1  2  1  0  0  0  0
  3  2  1  0  0  0  0
  3  4  1  0  0  0  0
  5  3  2  0  0  0  0
  6  5  1  0  0  0  0
  7  6  2  0  0  0  0
  8  7  1  0  0  0  0
  2  8  2  0  0  0  0
  1  9  1  0  0  0  0
  1 10  2  0  0  0  0
M  CHG  2   1   1   9  -1
M  END
> <ChemID>
100128

> <CAS>
88-72-2

> <Original_SMILES>
Cc1ccccc1[N+]([O-])=O

> <preferred_name>
2-Nitrotoluene

> <dsstox_substance_id>
DTXSID4025791

> <dsstox_compound_id>
DTXCID005791

> <qc_level>
DSSTox_Low

> <Canonical_QSARr>
CC1=CC=CC=C1[N+]([O-])=O

> <InChI_Code_QSARr>
InChI=1S/C7H7NO2/c1-6-4-2-3-5-7(6)8(9)10/h2-5H,1H3

> <InChI Key_QSARr>
PLAZTCDQAHEYBI-UHFFFAOYSA-N

> <Salt_Solvent>


> <Salt_Solvent_ID>
0

> <MPID>
98692

> <OH Reference>
ATKINSON,R (1989)

> <OH>
7.0E-13

> <OH Temperature>
25.0

> <LogOH>
-12.15490195998575

> <Tr_1_Tst_0>
1

$$$$
100129
  Mrv171c012241912032D          

 10 10  0  0  0  0            999 V2000
    0.1981   -1.1198    0.0000 O   0  0  0  0  0  0  0  0  0  0  0  0
    0.9126   -1.5323    0.0000 C   0  0  0  0  0  0  0  0  0  0  0  0
    0.9126   -2.3573    0.0000 C   0  0  0  0  0  0  0  0  0  0  0  0
    1.6271   -2.7698    0.0000 C   0  0  0  0  0  0  0  0  0  0  0  0
    2.3415   -2.3573    0.0000 C   0  0  0  0  0  0  0  0  0  0  0  0
    2.3415   -1.5323    0.0000 C   0  0  0  0  0  0  0  0  0  0  0  0
    1.6271   -1.1198    0.0000 C   0  0  0  0  0  0  0  0  0  0  0  0
    1.6271   -0.2948    0.0000 N   0  3  0  0  0  0  0  0  0  0  0  0
    0.9126    0.1177    0.0000 O   0  0  0  0  0  0  0  0  0  0  0  0
    2.3415    0.1177    0.0000 O   0  5  0  0  0  0  0  0  0  0  0  0
  1  2  1  0  0  0  0
  3  2  1  0  0  0  0
  4  3  2  0  0  0  0
  5  4  1  0  0  0  0
  6  5  2  0  0  0  0
  7  6  1  0  0  0  0
  2  7  2  0  0  0  0
  7  8  1  0  0  0  0
  8  9  2  0  0  0  0
  8 10  1  0  0  0  0
M  CHG  2   8   1  10  -1
M  END
> <ChemID>
100129

> <CAS>
88-75-5

> <Original_SMILES>
[O-][N+](=O)c1ccccc1O

> <preferred_name>
2-Nitrophenol

> <dsstox_substance_id>
DTXSID1021790

> <dsstox_compound_id>
DTXCID201790

> <qc_level>
DSSTox_Low

> <Canonical_QSARr>
[O-][N+](=O)C1C=CC=CC=1O

> <InChI_Code_QSARr>
InChI=1S/C6H5NO3/c8-6-4-2-1-3-5(6)7(9)10/h1-4,8H

> <InChI Key_QSARr>
IQUPABOKLQSFBK-UHFFFAOYSA-N

> <Salt_Solvent>


> <Salt_Solvent_ID>
0

> <MPID>
98693

> <OH Reference>
ATKINSON,R (1989)

> <OH>
9.000000000000001E-13

> <OH Temperature>
25.0

> <LogOH>
-12.045757490560685

> <Tr_1_Tst_0>
1

$$$$
100130
  Mrv171c012241912032D          

 11 12  0  0  0  0            999 V2000
    0.8504   -3.0074    0.0000 C   0  0  0  0  0  0  0  0  0  0  0  0
    0.8504   -2.1824    0.0000 C   0  0  0  0  0  0  0  0  0  0  0  0
    0.1359   -1.7699    0.0000 C   0  0  0  0  0  0  0  0  0  0  0  0
    0.1359   -0.9449    0.0000 C   0  0  0  0  0  0  0  0  0  0  0  0
    0.8504   -0.5324    0.0000 C   0  0  0  0  0  0  0  0  0  0  0  0
    1.5648   -0.9449    0.0000 C   0  0  0  0  0  0  0  0  0  0  0  0
    2.2793   -0.5324    0.0000 C   0  0  0  0  0  0  0  0  0  0  0  0
    2.9938   -0.9449    0.0000 C   0  0  0  0  0  0  0  0  0  0  0  0
    2.9938   -1.7699    0.0000 C   0  0  0  0  0  0  0  0  0  0  0  0
    2.2793   -2.1824    0.0000 C   0  0  0  0  0  0  0  0  0  0  0  0
    1.5648   -1.7699    0.0000 C   0  0  0  0  0  0  0  0  0  0  0  0
  1  2  1  0  0  0  0
  3  2  1  0  0  0  0
  4  3  2  0  0  0  0
  5  4  1  0  0  0  0
  6  5  2  0  0  0  0
  6  7  1  0  0  0  0
  7  8  2  0  0  0  0
  8  9  1  0  0  0  0
  9 10  2  0  0  0  0
 10 11  1  0  0  0  0
  2 11  2  0  0  0  0
 11  6  1  0  0  0  0
M  END
> <ChemID>
100130

> <CAS>
90-12-0

> <Original_SMILES>
Cc1cccc2ccccc21

> <preferred_name>
1-Methylnaphthalene

> <dsstox_substance_id>
DTXSID9020877

> <dsstox_compound_id>
DTXCID30877

> <qc_level>
DSSTox_Low

> <Canonical_QSARr>
CC1C=CC=C2C=CC=CC2=1

> <InChI_Code_QSARr>
InChI=1S/C11H10/c1-9-5-4-7-10-6-2-3-8-11(9)10/h2-8H,1H3

> <InChI Key_QSARr>
QPUYECUOLPXSFR-UHFFFAOYSA-N

> <Salt_Solvent>


> <Salt_Solvent_ID>
0

> <MPID>
98694

> <OH Reference>
ATKINSON,R (1989)

> <OH>
5.300000000000001E-11

> <OH Temperature>
25.0

> <LogOH>
-10.2757241303992

> <Tr_1_Tst_0>
1

$$$$
100131
  Mrv171c012241912032D          

 11 12  0  0  0  0            999 V2000
    0.8453   -0.0013    0.0000 O   0  0  0  0  0  0  0  0  0  0  0  0
    0.8453   -0.8263    0.0000 C   0  0  0  0  0  0  0  0  0  0  0  0
    1.5597   -1.2388    0.0000 C   0  0  0  0  0  0  0  0  0  0  0  0
    2.2742   -0.8263    0.0000 C   0  0  0  0  0  0  0  0  0  0  0  0
    2.9887   -1.2388    0.0000 C   0  0  0  0  0  0  0  0  0  0  0  0
    2.9887   -2.0638    0.0000 C   0  0  0  0  0  0  0  0  0  0  0  0
    2.2742   -2.4763    0.0000 C   0  0  0  0  0  0  0  0  0  0  0  0
    1.5597   -2.0638    0.0000 C   0  0  0  0  0  0  0  0  0  0  0  0
    0.8453   -2.4763    0.0000 C   0  0  0  0  0  0  0  0  0  0  0  0
    0.1308   -2.0638    0.0000 C   0  0  0  0  0  0  0  0  0  0  0  0
    0.1308   -1.2388    0.0000 C   0  0  0  0  0  0  0  0  0  0  0  0
  1  2  1  0  0  0  0
  3  2  1  0  0  0  0
  3  4  2  0  0  0  0
  4  5  1  0  0  0  0
  5  6  2  0  0  0  0
  6  7  1  0  0  0  0
  7  8  2  0  0  0  0
  8  3  1  0  0  0  0
  9  8  1  0  0  0  0
 10  9  2  0  0  0  0
 11 10  1  0  0  0  0
  2 11  2  0  0  0  0
M  END
> <ChemID>
100131

> <CAS>
90-15-3

> <Original_SMILES>
Oc1cccc2ccccc21

> <preferred_name>
1-Naphthol

> <dsstox_substance_id>
DTXSID6021793

> <dsstox_compound_id>
DTXCID401793

> <qc_level>
DSSTox_Low

> <Canonical_QSARr>
OC1=CC=CC2=CC=CC=C21

> <InChI_Code_QSARr>
InChI=1S/C10H8O/c11-10-7-3-5-8-4-1-2-6-9(8)10/h1-7,11H

> <InChI Key_QSARr>
KJCVRFUGPWSIIH-UHFFFAOYSA-N

> <Salt_Solvent>


> <Salt_Solvent_ID>
0

> <MPID>
98695

> <OH Reference>
BUNCE,NJ ET AL. (1997)

> <OH>
5.500000000000001E-10

> <OH Temperature>
25.0

> <LogOH>
-9.259637310505742

> <Tr_1_Tst_0>
0

$$$$
100132
  Mrv171c012241912032D          

 10 10  0  0  0  0            999 V2000
    1.2954   -1.0656    0.0000 C   0  0  0  0  0  0  0  0  0  0  0  0
    1.2954   -1.8906    0.0000 C   0  0  0  0  0  0  0  0  0  0  0  0
    2.0099   -2.3031    0.0000 C   0  0  0  0  0  0  0  0  0  0  0  0
    2.7244   -1.8906    0.0000 C   0  0  0  0  0  0  0  0  0  0  0  0
    2.7244   -1.0656    0.0000 C   0  0  0  0  0  0  0  0  0  0  0  0
    2.0099   -0.6531    0.0000 C   0  0  0  0  0  0  0  0  0  0  0  0
    2.0099    0.1719    0.0000 O   0  0  0  0  0  0  0  0  0  0  0  0
    1.2954    0.5844    0.0000 C   0  0  0  0  0  0  0  0  0  0  0  0
    0.5810   -0.6531    0.0000 O   0  0  0  0  0  0  0  0  0  0  0  0
    0.5810    0.1719    0.0000 C   0  0  0  0  0  0  0  0  0  0  0  0
  2  1  2  0  0  0  0
  3  2  1  0  0  0  0
  4  3  2  0  0  0  0
  5  4  1  0  0  0  0
  6  5  2  0  0  0  0
  1  6  1  0  0  0  0
  6  7  1  0  0  0  0
  7  8  1  0  0  0  0
  1  9  1  0  0  0  0
  9 10  1  0  0  0  0
M  END
> <ChemID>
100132

> <CAS>
91-16-7

> <Original_SMILES>
COc1ccccc1OC

> <preferred_name>
1,2-Dimethoxybenzene

> <dsstox_substance_id>
DTXSID7047065

> <dsstox_compound_id>
DTXCID5027065

> <qc_level>
DSSTox_Low

> <Canonical_QSARr>
COC1=CC=CC=C1OC

> <InChI_Code_QSARr>
InChI=1S/C8H10O2/c1-9-7-5-3-4-6-8(7)10-2/h3-6H,1-2H3

> <InChI Key_QSARr>
ABDKAPXRBAPSQN-UHFFFAOYSA-N

> <Salt_Solvent>


> <Salt_Solvent_ID>
0

> <MPID>
98696

> <OH Reference>
KWOK,ESC ET AL. (1995)

> <OH>
3.5E-11

> <OH Temperature>
24.0

> <LogOH>
-10.455931955649708

> <Tr_1_Tst_0>
1

$$$$
100133
  Mrv171c012241912032D          

 10 11  0  0  0  0            999 V2000
    0.7153   -1.6500    0.0000 C   0  0  0  0  0  0  0  0  0  0  0  0
    0.0008   -1.2375    0.0000 C   0  0  0  0  0  0  0  0  0  0  0  0
    0.0008   -0.4125    0.0000 C   0  0  0  0  0  0  0  0  0  0  0  0
    0.7153    0.0000    0.0000 C   0  0  0  0  0  0  0  0  0  0  0  0
    1.4297   -0.4125    0.0000 C   0  0  0  0  0  0  0  0  0  0  0  0
    2.1442    0.0000    0.0000 C   0  0  0  0  0  0  0  0  0  0  0  0
    2.8587   -0.4125    0.0000 C   0  0  0  0  0  0  0  0  0  0  0  0
    2.8587   -1.2375    0.0000 C   0  0  0  0  0  0  0  0  0  0  0  0
    2.1442   -1.6500    0.0000 C   0  0  0  0  0  0  0  0  0  0  0  0
    1.4297   -1.2375    0.0000 C   0  0  0  0  0  0  0  0  0  0  0  0
  2  1  1  0  0  0  0
  3  2  2  0  0  0  0
  4  3  1  0  0  0  0
  5  4  2  0  0  0  0
  5  6  1  0  0  0  0
  6  7  2  0  0  0  0
  7  8  1  0  0  0  0
  8  9  2  0  0  0  0
  9 10  1  0  0  0  0
  1 10  2  0  0  0  0
 10  5  1  0  0  0  0
M  END
> <ChemID>
100133

> <CAS>
91-20-3

> <Original_SMILES>
c1cccc2ccccc21

> <preferred_name>
Naphthalene

> <dsstox_substance_id>
DTXSID8020913

> <dsstox_compound_id>
DTXCID00913

> <qc_level>
DSSTox_Low

> <Canonical_QSARr>
C1=CC=CC2=CC=CC=C21

> <InChI_Code_QSARr>
InChI=1S/C10H8/c1-2-6-10-8-4-3-7-9(10)5-1/h1-8H

> <InChI Key_QSARr>
UFWIBTONFRDIAS-UHFFFAOYSA-N

> <Salt_Solvent>


> <Salt_Solvent_ID>
0

> <MPID>
98697

> <OH Reference>
ATKINSON,R (1989)

> <OH>
2.16E-11

> <OH Temperature>
25.0

> <LogOH>
-10.665546248849054

> <Tr_1_Tst_0>
1

$$$$
100134
  Mrv171c012241912032D          

 10 11  0  0  0  0            999 V2000
    0.7153    0.0000    0.0000 N   0  0  0  0  0  0  0  0  0  0  0  0
    1.4297   -0.4125    0.0000 C   0  0  0  0  0  0  0  0  0  0  0  0
    2.1442    0.0000    0.0000 C   0  0  0  0  0  0  0  0  0  0  0  0
    2.8587   -0.4125    0.0000 C   0  0  0  0  0  0  0  0  0  0  0  0
    2.8587   -1.2375    0.0000 C   0  0  0  0  0  0  0  0  0  0  0  0
    2.1442   -1.6500    0.0000 C   0  0  0  0  0  0  0  0  0  0  0  0
    1.4297   -1.2375    0.0000 C   0  0  0  0  0  0  0  0  0  0  0  0
    0.7153   -1.6500    0.0000 C   0  0  0  0  0  0  0  0  0  0  0  0
    0.0008   -1.2375    0.0000 C   0  0  0  0  0  0  0  0  0  0  0  0
    0.0008   -0.4125    0.0000 C   0  0  0  0  0  0  0  0  0  0  0  0
  2  1  1  0  0  0  0
  2  3  1  0  0  0  0
  3  4  2  0  0  0  0
  4  5  1  0  0  0  0
  5  6  2  0  0  0  0
  6  7  1  0  0  0  0
  7  2  2  0  0  0  0
  8  7  1  0  0  0  0
  9  8  2  0  0  0  0
 10  9  1  0  0  0  0
  1 10  2  0  0  0  0
M  END
> <ChemID>
100134

> <CAS>
91-22-5

> <Original_SMILES>
c1cccc2[n]cccc21

> <preferred_name>
Quinoline

> <dsstox_substance_id>
DTXSID1021798

> <dsstox_compound_id>
DTXCID401798

> <qc_level>
DSSTox_Low

> <Canonical_QSARr>
C1=CC=NC2C=CC=CC=21

> <InChI_Code_QSARr>
InChI=1S/C9H7N/c1-2-6-9-8(4-1)5-3-7-10-9/h1-7H

> <InChI Key_QSARr>
SMWDFEZZVXVKRB-UHFFFAOYSA-N

> <Salt_Solvent>


> <Salt_Solvent_ID>
0

> <MPID>
98698

> <OH Reference>
ATKINSON,R ET AL. (1995B)

> <OH>
1.16E-11

> <OH Temperature>
24.0

> <LogOH>
-10.935542010773068

> <Tr_1_Tst_0>
1

$$$$
100135
  Mrv171c012241912032D          

 11 12  0  0  0  0            999 V2000
    1.8110   -0.4138    0.0000 C   0  0  0  0  0  0  0  0  0  0  0  0
    1.0965   -0.0013    0.0000 C   0  0  0  0  0  0  0  0  0  0  0  0
    0.3820   -0.4138    0.0000 C   0  0  0  0  0  0  0  0  0  0  0  0
   -0.3325   -0.0013    0.0000 C   0  0  0  0  0  0  0  0  0  0  0  0
    0.3820   -1.2388    0.0000 C   0  0  0  0  0  0  0  0  0  0  0  0
    1.0965   -1.6513    0.0000 C   0  0  0  0  0  0  0  0  0  0  0  0
    1.8110   -1.2388    0.0000 C   0  0  0  0  0  0  0  0  0  0  0  0
    2.5254   -1.6513    0.0000 C   0  0  0  0  0  0  0  0  0  0  0  0
    3.2399   -1.2388    0.0000 C   0  0  0  0  0  0  0  0  0  0  0  0
    3.2399   -0.4138    0.0000 C   0  0  0  0  0  0  0  0  0  0  0  0
    2.5254   -0.0013    0.0000 C   0  0  0  0  0  0  0  0  0  0  0  0
  2  1  1  0  0  0  0
  3  2  2  0  0  0  0
  3  4  1  0  0  0  0
  5  3  1  0  0  0  0
  6  5  2  0  0  0  0
  7  6  1  0  0  0  0
  7  1  1  0  0  0  0
  8  7  2  0  0  0  0
  9  8  1  0  0  0  0
 10  9  2  0  0  0  0
 11 10  1  0  0  0  0
  1 11  2  0  0  0  0
M  END
> <ChemID>
100135

> <CAS>
91-57-6

> <Original_SMILES>
Cc1cc2ccccc2cc1

> <preferred_name>
2-Methylnaphthalene

> <dsstox_substance_id>
DTXSID4020878

> <dsstox_compound_id>
DTXCID60878

> <qc_level>
DSSTox_Low

> <Canonical_QSARr>
CC1=CC2=CC=CC=C2C=C1

> <InChI_Code_QSARr>
InChI=1S/C11H10/c1-9-6-7-10-4-2-3-5-11(10)8-9/h2-8H,1H3

> <InChI Key_QSARr>
QIMMUPPBPVKWKM-UHFFFAOYSA-N

> <Salt_Solvent>


> <Salt_Solvent_ID>
0

> <MPID>
98699

> <OH Reference>
ATKINSON,R (1989)

> <OH>
5.230000000000005E-11

> <OH Temperature>
25.0

> <LogOH>
-10.281498311132738

> <Tr_1_Tst_0>
0

$$$$
100136
  Mrv171c012241912032D          

 12 13  0  0  0  0            999 V2000
    1.3498   -1.5392    0.0000 C   0  0  0  0  0  0  0  0  0  0  0  0
    1.3498   -2.3642    0.0000 C   0  0  0  0  0  0  0  0  0  0  0  0
    2.0643   -2.7767    0.0000 C   0  0  0  0  0  0  0  0  0  0  0  0
    2.7787   -2.3642    0.0000 C   0  0  0  0  0  0  0  0  0  0  0  0
    2.7787   -1.5392    0.0000 C   0  0  0  0  0  0  0  0  0  0  0  0
    2.0643   -1.1267    0.0000 C   0  0  0  0  0  0  0  0  0  0  0  0
    2.0643   -0.3017    0.0000 C   0  0  0  0  0  0  0  0  0  0  0  0
    2.7787    0.1108    0.0000 C   0  0  0  0  0  0  0  0  0  0  0  0
    2.7787    0.9358    0.0000 C   0  0  0  0  0  0  0  0  0  0  0  0
    2.0643    1.3483    0.0000 C   0  0  0  0  0  0  0  0  0  0  0  0
    1.3498    0.9358    0.0000 C   0  0  0  0  0  0  0  0  0  0  0  0
    1.3498    0.1108    0.0000 C   0  0  0  0  0  0  0  0  0  0  0  0
  2  1  1  0  0  0  0
  3  2  2  0  0  0  0
  4  3  1  0  0  0  0
  5  4  2  0  0  0  0
  6  5  1  0  0  0  0
  1  6  2  0  0  0  0
  6  7  1  0  0  0  0
  8  7  1  0  0  0  0
  9  8  2  0  0  0  0
 10  9  1  0  0  0  0
 11 10  2  0  0  0  0
 12 11  1  0  0  0  0
  7 12  2  0  0  0  0
M  END
> <ChemID>
100136

> <CAS>
92-52-4

> <Original_SMILES>
c1ccccc1-c1ccccc1

> <preferred_name>
Biphenyl

> <dsstox_substance_id>
DTXSID4020161

> <dsstox_compound_id>
DTXCID60161

> <qc_level>
DSSTox_Low

> <Canonical_QSARr>
C1=CC=CC=C1C1C=CC=CC=1

> <InChI_Code_QSARr>
InChI=1S/C12H10/c1-3-7-11(8-4-1)12-9-5-2-6-10-12/h1-10H

> <InChI Key_QSARr>
ZUOUZKKEUPVFJK-UHFFFAOYSA-N

> <Salt_Solvent>


> <Salt_Solvent_ID>
0

> <MPID>
98700

> <OH Reference>
ATKINSON,R (1989)

> <OH>
7.199999999999998E-12

> <OH Temperature>
25.0

> <LogOH>
-11.142667503568713

> <Tr_1_Tst_0>
1

$$$$
100137
  Mrv171c012241912032D          

  9 10  0  0  0  0            999 V2000
   -0.1530   -0.8254    0.0000 C   0  0  0  0  0  0  0  0  0  0  0  0
    0.3319   -0.1580    0.0000 C   0  0  0  0  0  0  0  0  0  0  0  0
    1.1166   -0.4129    0.0000 C   0  0  0  0  0  0  0  0  0  0  0  0
    1.8310   -0.0004    0.0000 C   0  0  0  0  0  0  0  0  0  0  0  0
    2.5455   -0.4129    0.0000 C   0  0  0  0  0  0  0  0  0  0  0  0
    2.5455   -1.2379    0.0000 C   0  0  0  0  0  0  0  0  0  0  0  0
    1.8310   -1.6504    0.0000 C   0  0  0  0  0  0  0  0  0  0  0  0
    1.1166   -1.2379    0.0000 C   0  0  0  0  0  0  0  0  0  0  0  0
    0.3319   -1.4929    0.0000 C   0  0  0  0  0  0  0  0  0  0  0  0
  2  1  1  0  0  0  0
  3  2  1  0  0  0  0
  3  4  1  0  0  0  0
  4  5  2  0  0  0  0
  5  6  1  0  0  0  0
  6  7  2  0  0  0  0
  7  8  1  0  0  0  0
  8  3  2  0  0  0  0
  9  8  1  0  0  0  0
  1  9  2  0  0  0  0
M  END
> <ChemID>
100137

> <CAS>
95-13-6

> <Original_SMILES>
C1C=Cc2ccccc21

> <preferred_name>
Indene

> <dsstox_substance_id>
DTXSID8042052

> <dsstox_compound_id>
DTXCID6022052

> <qc_level>
DSSTox_Low

> <Canonical_QSARr>
C1C=CC2C=CC=CC=21

> <InChI_Code_QSARr>
InChI=1S/C9H8/c1-2-5-9-7-3-6-8(9)4-1/h1-6H,7H2

> <InChI Key_QSARr>
YBYIRNPNPLQARY-UHFFFAOYSA-N

> <Salt_Solvent>


> <Salt_Solvent_ID>
0

> <MPID>
98701

> <OH Reference>
ATKINSON,R (1994)

> <OH>
5.1E-11

> <OH Temperature>
22.0

> <LogOH>
-10.292429823902053

> <Tr_1_Tst_0>
1

$$$$
100138
  Mrv171c012241912032D          

  8  8  0  0  0  0            999 V2000
    0.3589   -2.0602    0.0000 C   0  0  0  0  0  0  0  0  0  0  0  0
    1.0734   -2.4727    0.0000 C   0  0  0  0  0  0  0  0  0  0  0  0
    1.7879   -2.0602    0.0000 C   0  0  0  0  0  0  0  0  0  0  0  0
    1.7879   -1.2352    0.0000 C   0  0  0  0  0  0  0  0  0  0  0  0
    1.0734   -0.8227    0.0000 C   0  0  0  0  0  0  0  0  0  0  0  0
    1.0734    0.0023    0.0000 C   0  0  0  0  0  0  0  0  0  0  0  0
    0.3589   -1.2352    0.0000 C   0  0  0  0  0  0  0  0  0  0  0  0
   -0.3556   -0.8227    0.0000 C   0  0  0  0  0  0  0  0  0  0  0  0
  2  1  2  0  0  0  0
  3  2  1  0  0  0  0
  4  3  2  0  0  0  0
  5  4  1  0  0  0  0
  5  6  1  0  0  0  0
  7  5  2  0  0  0  0
  1  7  1  0  0  0  0
  7  8  1  0  0  0  0
M  END
> <ChemID>
100138

> <CAS>
95-47-6

> <Original_SMILES>
Cc1ccccc1C

> <preferred_name>
o-Xylene

> <dsstox_substance_id>
DTXSID3021807

> <dsstox_compound_id>
DTXCID501807

> <qc_level>
DSSTox_Low

> <Canonical_QSARr>
CC1C=CC=CC=1C

> <InChI_Code_QSARr>
InChI=1S/C8H10/c1-7-5-3-4-6-8(7)2/h3-6H,1-2H3

> <InChI Key_QSARr>
CTQNGGLPUBDAKN-UHFFFAOYSA-N

> <Salt_Solvent>


> <Salt_Solvent_ID>
0

> <MPID>
98702

> <OH Reference>
ATKINSON,R (1990)

> <OH>
1.37E-11

> <OH Temperature>
25.0

> <LogOH>
-10.863279432843605

> <Tr_1_Tst_0>
1

$$$$
100139
  Mrv171c012241912032D          

  8  8  0  0  0  0            999 V2000
    0.0913   -0.7358    0.0000 O   0  0  0  0  0  0  0  0  0  0  0  0
    0.8057   -1.1483    0.0000 C   0  0  0  0  0  0  0  0  0  0  0  0
    0.8057   -1.9733    0.0000 C   0  0  0  0  0  0  0  0  0  0  0  0
    1.5202   -2.3858    0.0000 C   0  0  0  0  0  0  0  0  0  0  0  0
    2.2347   -1.9733    0.0000 C   0  0  0  0  0  0  0  0  0  0  0  0
    2.2347   -1.1483    0.0000 C   0  0  0  0  0  0  0  0  0  0  0  0
    1.5202   -0.7358    0.0000 C   0  0  0  0  0  0  0  0  0  0  0  0
    1.5202    0.0892    0.0000 C   0  0  0  0  0  0  0  0  0  0  0  0
  1  2  1  0  0  0  0
  3  2  1  0  0  0  0
  4  3  2  0  0  0  0
  5  4  1  0  0  0  0
  6  5  2  0  0  0  0
  7  6  1  0  0  0  0
  2  7  2  0  0  0  0
  7  8  1  0  0  0  0
M  END
> <ChemID>
100139

> <CAS>
95-48-7

> <Original_SMILES>
Cc1ccccc1O

> <preferred_name>
o-Cresol

> <dsstox_substance_id>
DTXSID8021808

> <dsstox_compound_id>
DTXCID901808

> <qc_level>
DSSTox_Low

> <Canonical_QSARr>
CC1C=CC=CC=1O

> <InChI_Code_QSARr>
InChI=1S/C7H8O/c1-6-4-2-3-5-7(6)8/h2-5,8H,1H3

> <InChI Key_QSARr>
QWVGKYWNOKOFNN-UHFFFAOYSA-N

> <Salt_Solvent>


> <Salt_Solvent_ID>
0

> <MPID>
98703

> <OH Reference>
ATKINSON,R (1989)

> <OH>
4.2E-11

> <OH Temperature>
25.0

> <LogOH>
-10.376750709602106

> <Tr_1_Tst_0>
0

$$$$
100140
  Mrv171c012241912032D          

  8  8  0  0  0  0            999 V2000
    0.0913   -0.7358    0.0000 Cl  0  0  0  0  0  0  0  0  0  0  0  0
    0.8057   -1.1483    0.0000 C   0  0  0  0  0  0  0  0  0  0  0  0
    0.8057   -1.9733    0.0000 C   0  0  0  0  0  0  0  0  0  0  0  0
    1.5202   -2.3858    0.0000 C   0  0  0  0  0  0  0  0  0  0  0  0
    2.2347   -1.9733    0.0000 C   0  0  0  0  0  0  0  0  0  0  0  0
    2.2347   -1.1483    0.0000 C   0  0  0  0  0  0  0  0  0  0  0  0
    1.5202   -0.7358    0.0000 C   0  0  0  0  0  0  0  0  0  0  0  0
    1.5202    0.0892    0.0000 Cl  0  0  0  0  0  0  0  0  0  0  0  0
  1  2  1  0  0  0  0
  3  2  1  0  0  0  0
  4  3  2  0  0  0  0
  5  4  1  0  0  0  0
  6  5  2  0  0  0  0
  7  6  1  0  0  0  0
  2  7  2  0  0  0  0
  7  8  1  0  0  0  0
M  END
> <ChemID>
100140

> <CAS>
95-50-1

> <Original_SMILES>
Clc1ccccc1Cl

> <preferred_name>
1,2-Dichlorobenzene

> <dsstox_substance_id>
DTXSID6020430

> <dsstox_compound_id>
DTXCID00430

> <qc_level>
DSSTox_Low

> <Canonical_QSARr>
ClC1C=CC=CC=1Cl

> <InChI_Code_QSARr>
InChI=1S/C6H4Cl2/c7-5-3-1-2-4-6(5)8/h1-4H

> <InChI Key_QSARr>
RFFLAFLAYFXFSW-UHFFFAOYSA-N

> <Salt_Solvent>


> <Salt_Solvent_ID>
0

> <MPID>
98704

> <OH Reference>
ATKINSON,R (1989)

> <OH>
4.200000000000001E-13

> <OH Temperature>
25.0

> <LogOH>
-12.37675070960211

> <Tr_1_Tst_0>
1

$$$$
100141
  Mrv171c012241912032D          

  9  9  0  0  0  0            999 V2000
    2.5410   -1.6499    0.0000 C   0  0  0  0  0  0  0  0  0  0  0  0
    1.8266   -1.2374    0.0000 C   0  0  0  0  0  0  0  0  0  0  0  0
    1.8266   -0.4124    0.0000 C   0  0  0  0  0  0  0  0  0  0  0  0
    1.1121    0.0001    0.0000 C   0  0  0  0  0  0  0  0  0  0  0  0
    1.1121    0.8251    0.0000 C   0  0  0  0  0  0  0  0  0  0  0  0
    0.3976   -0.4124    0.0000 C   0  0  0  0  0  0  0  0  0  0  0  0
    0.3976   -1.2374    0.0000 C   0  0  0  0  0  0  0  0  0  0  0  0
    1.1121   -1.6499    0.0000 C   0  0  0  0  0  0  0  0  0  0  0  0
    1.1121   -2.4749    0.0000 C   0  0  0  0  0  0  0  0  0  0  0  0
  1  2  1  0  0  0  0
  3  2  1  0  0  0  0
  4  3  2  0  0  0  0
  4  5  1  0  0  0  0
  6  4  1  0  0  0  0
  7  6  2  0  0  0  0
  8  7  1  0  0  0  0
  2  8  2  0  0  0  0
  8  9  1  0  0  0  0
M  END
> <ChemID>
100141

> <CAS>
95-63-6

> <Original_SMILES>
Cc1cc(C)c(C)cc1

> <preferred_name>
1,2,4-Trimethylbenzene

> <dsstox_substance_id>
DTXSID6021402

> <dsstox_compound_id>
DTXCID701402

> <qc_level>
DSSTox_Low

> <Canonical_QSARr>
CC1=CC(C)=C(C)C=C1

> <InChI_Code_QSARr>
InChI=1S/C9H12/c1-7-4-5-8(2)9(3)6-7/h4-6H,1-3H3

> <InChI Key_QSARr>
GWHJZXXIDMPWGX-UHFFFAOYSA-N

> <Salt_Solvent>


> <Salt_Solvent_ID>
0

> <MPID>
98705

> <OH Reference>
ATKINSON,R (1989)

> <OH>
3.25E-11

> <OH Temperature>
25.0

> <LogOH>
-10.488116639021143

> <Tr_1_Tst_0>
1

$$$$
100142
  Mrv171c012241912032D          

  9  9  0  0  0  0            999 V2000
    1.4357   -1.2390    0.0000 C   0  0  0  0  0  0  0  0  0  0  0  0
    0.7212   -0.8265    0.0000 C   0  0  0  0  0  0  0  0  0  0  0  0
    0.7212   -0.0015    0.0000 O   0  0  0  0  0  0  0  0  0  0  0  0
    0.0068   -1.2390    0.0000 C   0  0  0  0  0  0  0  0  0  0  0  0
    0.0068   -2.0640    0.0000 C   0  0  0  0  0  0  0  0  0  0  0  0
    0.7212   -2.4765    0.0000 C   0  0  0  0  0  0  0  0  0  0  0  0
    0.7212   -3.3015    0.0000 C   0  0  0  0  0  0  0  0  0  0  0  0
    1.4357   -2.0640    0.0000 C   0  0  0  0  0  0  0  0  0  0  0  0
    2.1502   -2.4765    0.0000 C   0  0  0  0  0  0  0  0  0  0  0  0
  2  1  2  0  0  0  0
  2  3  1  0  0  0  0
  4  2  1  0  0  0  0
  5  4  2  0  0  0  0
  6  5  1  0  0  0  0
  6  7  1  0  0  0  0
  8  6  2  0  0  0  0
  1  8  1  0  0  0  0
  8  9  1  0  0  0  0
M  END
> <ChemID>
100142

> <CAS>
95-65-8

> <Original_SMILES>
Cc1cc(O)ccc1C

> <preferred_name>
3,4-Dimethylphenol

> <dsstox_substance_id>
DTXSID4024062

> <dsstox_compound_id>
DTXCID004062

> <qc_level>
DSSTox_Low

> <Canonical_QSARr>
CC1C=C(O)C=CC=1C

> <InChI_Code_QSARr>
InChI=1S/C8H10O/c1-6-3-4-8(9)5-7(6)2/h3-5,9H,1-2H3

> <InChI Key_QSARr>
YCOXTKKNXUZSKD-UHFFFAOYSA-N

> <Salt_Solvent>


> <Salt_Solvent_ID>
0

> <MPID>
98706

> <OH Reference>
KWOK,ESC & ATKINSON,R (1994)

> <OH>
8.140000000000001E-11

> <OH Temperature>
25.0

> <LogOH>
-10.089375595110818

> <Tr_1_Tst_0>
1

$$$$
100143
  Mrv171c012241912032D          

  9  9  0  0  0  0            999 V2000
    2.5410   -1.6499    0.0000 N   0  0  0  0  0  0  0  0  0  0  0  0
    1.8265   -1.2374    0.0000 C   0  0  0  0  0  0  0  0  0  0  0  0
    1.8265   -0.4124    0.0000 C   0  0  0  0  0  0  0  0  0  0  0  0
    1.1121    0.0001    0.0000 C   0  0  0  0  0  0  0  0  0  0  0  0
    1.1121    0.8251    0.0000 N   0  0  0  0  0  0  0  0  0  0  0  0
    0.3976   -0.4124    0.0000 C   0  0  0  0  0  0  0  0  0  0  0  0
    0.3976   -1.2374    0.0000 C   0  0  0  0  0  0  0  0  0  0  0  0
    1.1121   -1.6499    0.0000 C   0  0  0  0  0  0  0  0  0  0  0  0
    1.1121   -2.4749    0.0000 C   0  0  0  0  0  0  0  0  0  0  0  0
  1  2  1  0  0  0  0
  3  2  1  0  0  0  0
  4  3  2  0  0  0  0
  4  5  1  0  0  0  0
  6  4  1  0  0  0  0
  7  6  2  0  0  0  0
  8  7  1  0  0  0  0
  2  8  2  0  0  0  0
  8  9  1  0  0  0  0
M  END
> <ChemID>
100143

> <CAS>
95-80-7

> <Original_SMILES>
Cc1ccc(N)cc1N

> <preferred_name>
2,4-Diaminotoluene

> <dsstox_substance_id>
DTXSID4020402

> <dsstox_compound_id>
DTXCID00402

> <qc_level>
DSSTox_High

> <Canonical_QSARr>
CC1C=CC(N)=CC=1N

> <InChI_Code_QSARr>
InChI=1S/C7H10N2/c1-5-2-3-6(8)4-7(5)9/h2-4H,8-9H2,1H3

> <InChI Key_QSARr>
VOZKAJLKRJDJLL-UHFFFAOYSA-N

> <Salt_Solvent>


> <Salt_Solvent_ID>
0

> <MPID>
98707

> <OH Reference>
ATKINSON,R (1989)

> <OH>
1.92E-10

> <OH Temperature>
25.0

> <LogOH>
-9.716698771296464

> <Tr_1_Tst_0>
0

$$$$
100144
  Mrv171c012241912032D          

  9  9  0  0  0  0            999 V2000
    2.5410   -1.6499    0.0000 O   0  0  0  0  0  0  0  0  0  0  0  0
    1.8266   -1.2374    0.0000 C   0  0  0  0  0  0  0  0  0  0  0  0
    1.8266   -0.4124    0.0000 C   0  0  0  0  0  0  0  0  0  0  0  0
    1.1121    0.0001    0.0000 C   0  0  0  0  0  0  0  0  0  0  0  0
    1.1121    0.8251    0.0000 C   0  0  0  0  0  0  0  0  0  0  0  0
    0.3976   -0.4124    0.0000 C   0  0  0  0  0  0  0  0  0  0  0  0
    0.3976   -1.2374    0.0000 C   0  0  0  0  0  0  0  0  0  0  0  0
    1.1121   -1.6499    0.0000 C   0  0  0  0  0  0  0  0  0  0  0  0
    1.1121   -2.4749    0.0000 C   0  0  0  0  0  0  0  0  0  0  0  0
  1  2  1  0  0  0  0
  3  2  1  0  0  0  0
  4  3  2  0  0  0  0
  4  5  1  0  0  0  0
  6  4  1  0  0  0  0
  7  6  2  0  0  0  0
  8  7  1  0  0  0  0
  2  8  2  0  0  0  0
  8  9  1  0  0  0  0
M  END
> <ChemID>
100144

> <CAS>
95-87-4

> <Original_SMILES>
Cc1cc(O)c(C)cc1

> <preferred_name>
2,5-Dimethylphenol

> <dsstox_substance_id>
DTXSID6025145

> <dsstox_compound_id>
DTXCID905145

> <qc_level>
DSSTox_Low

> <Canonical_QSARr>
CC1=CC(O)=C(C)C=C1

> <InChI_Code_QSARr>
InChI=1S/C8H10O/c1-6-3-4-7(2)8(9)5-6/h3-5,9H,1-2H3

> <InChI Key_QSARr>
NKTOLZVEWDHZMU-UHFFFAOYSA-N

> <Salt_Solvent>


> <Salt_Solvent_ID>
0

> <MPID>
98708

> <OH Reference>
KWOK,ESC & ATKINSON,R (1994)

> <OH>
8.000000000000002E-11

> <OH Temperature>
25.0

> <LogOH>
-10.09691001300807

> <Tr_1_Tst_0>
1

$$$$
100145
  Mrv171c012241912032D          

  6  5  0  0  0  0            999 V2000
    0.8266   -1.6670    0.0000 Br  0  0  0  0  0  0  0  0  0  0  0  0
    1.2391   -0.9525    0.0000 C   0  0  0  0  0  0  0  0  0  0  0  0
    2.0641   -0.9525    0.0000 C   0  0  0  0  0  0  0  0  0  0  0  0
    2.4766   -1.6670    0.0000 Br  0  0  0  0  0  0  0  0  0  0  0  0
    0.8266   -0.2381    0.0000 C   0  0  0  0  0  0  0  0  0  0  0  0
    0.0016   -0.2381    0.0000 Cl  0  0  0  0  0  0  0  0  0  0  0  0
  1  2  1  0  0  0  0
  2  3  1  0  0  0  0
  3  4  1  0  0  0  0
  2  5  1  0  0  0  0
  5  6  1  0  0  0  0
M  END
> <ChemID>
100145

> <CAS>
96-12-8

> <Original_SMILES>
ClCC(Br)CBr

> <preferred_name>
1,2-Dibromo-3-chloropropane

> <dsstox_substance_id>
DTXSID3020413

> <dsstox_compound_id>
DTXCID50413

> <qc_level>
DSSTox_Low

> <Canonical_QSARr>
ClCC(Br)CBr

> <InChI_Code_QSARr>
InChI=1S/C3H5Br2Cl/c4-1-3(5)2-6/h3H,1-2H2

> <InChI Key_QSARr>
WBEJYOJJBDISQU-UHFFFAOYSA-N

> <Salt_Solvent>


> <Salt_Solvent_ID>
0

> <MPID>
98709

> <OH Reference>
KWOK,ESC & ATKINSON,R (1994)

> <OH>
4.349999999999999E-13

> <OH Temperature>
25.0

> <LogOH>
-12.361510743045361

> <Tr_1_Tst_0>
1

$$$$
100146
  Mrv171c012241912032D          

  6  5  0  0  0  0            999 V2000
    1.4346   -0.8268    0.0000 C   0  0  0  0  0  0  0  0  0  0  0  0
    1.0221   -1.5413    0.0000 C   0  0  0  0  0  0  0  0  0  0  0  0
    2.2596   -0.8268    0.0000 C   0  0  0  0  0  0  0  0  0  0  0  0
    2.6721   -1.5413    0.0000 C   0  0  0  0  0  0  0  0  0  0  0  0
    1.0221   -0.1124    0.0000 C   0  0  0  0  0  0  0  0  0  0  0  0
    0.1971   -0.1124    0.0000 C   0  0  0  0  0  0  0  0  0  0  0  0
  1  2  1  0  0  0  0
  1  3  1  0  0  0  0
  3  4  1  0  0  0  0
  1  5  1  0  0  0  0
  5  6  1  0  0  0  0
M  END
> <ChemID>
100146

> <CAS>
96-14-0

> <Original_SMILES>
CC(CC)CC

> <preferred_name>
3-Methylpentane

> <dsstox_substance_id>
DTXSID8052647

> <dsstox_compound_id>
DTXCID9031220

> <qc_level>
DSSTox_Low

> <Canonical_QSARr>
CC(CC)CC

> <InChI_Code_QSARr>
InChI=1S/C6H14/c1-4-6(3)5-2/h6H,4-5H2,1-3H3

> <InChI Key_QSARr>
PFEOZHBOMNWTJB-UHFFFAOYSA-N

> <Salt_Solvent>


> <Salt_Solvent_ID>
0

> <MPID>
98710

> <OH Reference>
ATKINSON,R (1989)

> <OH>
5.700000000000001E-12

> <OH Temperature>
25.0

> <LogOH>
-11.244125144327487

> <Tr_1_Tst_0>
1

$$$$
100147
  Mrv171c012241912032D          

  6  5  0  0  0  0            999 V2000
    1.2375   -2.1439    0.0000 C   0  0  0  0  0  0  0  0  0  0  0  0
    1.6500   -1.4295    0.0000 C   0  0  0  0  0  0  0  0  0  0  0  0
    1.2375   -0.7150    0.0000 C   0  0  0  0  0  0  0  0  0  0  0  0
    1.6500   -0.0005    0.0000 C   0  0  0  0  0  0  0  0  0  0  0  0
    1.2375    0.7139    0.0000 C   0  0  0  0  0  0  0  0  0  0  0  0
    0.4125   -0.7150    0.0000 O   0  0  0  0  0  0  0  0  0  0  0  0
  1  2  1  0  0  0  0
  2  3  1  0  0  0  0
  3  4  1  0  0  0  0
  4  5  1  0  0  0  0
  3  6  2  0  0  0  0
M  END
> <ChemID>
100147

> <CAS>
96-22-0

> <Original_SMILES>
CCC(=O)CC

> <preferred_name>
3-Pentanone

> <dsstox_substance_id>
DTXSID6021820

> <dsstox_compound_id>
DTXCID301820

> <qc_level>
DSSTox_Low

> <Canonical_QSARr>
CCC(=O)CC

> <InChI_Code_QSARr>
InChI=1S/C5H10O/c1-3-5(6)4-2/h3-4H2,1-2H3

> <InChI Key_QSARr>
FDPIMTJIUBPUKL-UHFFFAOYSA-N

> <Salt_Solvent>


> <Salt_Solvent_ID>
0

> <MPID>
98711

> <OH Reference>
ATKINSON,R (1989)

> <OH>
2.0E-12

> <OH Temperature>
25.0

> <LogOH>
-11.698970004336017

> <Tr_1_Tst_0>
0

$$$$
100149
  Mrv171c012241912032D          

  6  6  0  0  0  0            999 V2000
    0.9059    0.6627    0.0000 O   0  0  0  0  0  0  0  0  0  0  0  0
    0.9059   -0.1623    0.0000 C   0  0  0  0  0  0  0  0  0  0  0  0
    0.2385   -0.6472    0.0000 C   0  0  0  0  0  0  0  0  0  0  0  0
    0.4934   -1.4318    0.0000 C   0  0  0  0  0  0  0  0  0  0  0  0
    1.3184   -1.4318    0.0000 C   0  0  0  0  0  0  0  0  0  0  0  0
    1.5733   -0.6472    0.0000 C   0  0  0  0  0  0  0  0  0  0  0  0
  1  2  1  0  0  0  0
  3  2  1  0  0  0  0
  4  3  1  0  0  0  0
  5  4  1  0  0  0  0
  6  5  1  0  0  0  0
  2  6  1  0  0  0  0
M  END
> <ChemID>
100149

> <CAS>
96-41-3

> <Original_SMILES>
OC1CCCC1

> <preferred_name>
Cyclopentanol

> <dsstox_substance_id>
DTXSID1033371

> <dsstox_compound_id>
DTXCID9013371

> <qc_level>
DSSTox_Low

> <Canonical_QSARr>
OC1CCCC1

> <InChI_Code_QSARr>
InChI=1S/C5H10O/c6-5-3-1-2-4-5/h5-6H,1-4H2

> <InChI Key_QSARr>
XCIXKGXIYUWCLL-UHFFFAOYSA-N

> <Salt_Solvent>


> <Salt_Solvent_ID>
0

> <MPID>
98712

> <OH Reference>
ATKINSON,R (1989)

> <OH>
1.07E-11

> <OH Temperature>
25.0

> <LogOH>
-10.970616222314796

> <Tr_1_Tst_0>
1

$$$$
100150
  Mrv171c012241912032D          

  6  6  0  0  0  0            999 V2000
    1.3097   -1.2871    0.0000 O   0  0  0  0  0  0  0  0  0  0  0  0
    0.6423   -0.8022    0.0000 C   0  0  0  0  0  0  0  0  0  0  0  0
    0.6423    0.0228    0.0000 C   0  0  0  0  0  0  0  0  0  0  0  0
   -0.0252   -1.2871    0.0000 C   0  0  0  0  0  0  0  0  0  0  0  0
    0.2298   -2.0718    0.0000 C   0  0  0  0  0  0  0  0  0  0  0  0
    1.0548   -2.0718    0.0000 C   0  0  0  0  0  0  0  0  0  0  0  0
  2  1  1  0  0  0  0
  2  3  1  0  0  0  0
  4  2  1  0  0  0  0
  5  4  1  0  0  0  0
  6  5  1  0  0  0  0
  1  6  1  0  0  0  0
M  END
> <ChemID>
100150

> <CAS>
96-47-9

> <Original_SMILES>
CC1CCCO1

> <preferred_name>
2-Methyltetrahydrofuran

> <dsstox_substance_id>
DTXSID9030258

> <dsstox_compound_id>
DTXCID7010258

> <qc_level>
DSSTox_Low

> <Canonical_QSARr>
CC1CCCO1

> <InChI_Code_QSARr>
InChI=1S/C5H10O/c1-5-3-2-4-6-5/h5H,2-4H2,1H3

> <InChI Key_QSARr>
JWUJQDFVADABEY-UHFFFAOYSA-N

> <Salt_Solvent>


> <Salt_Solvent_ID>
0

> <MPID>
98713

> <OH Reference>
WALLINGTON,TJ ET AL. (1990)

> <OH>
2.2E-11

> <OH Temperature>
25.0

> <LogOH>
-10.65757731917778

> <Tr_1_Tst_0>
1

$$$$
100151
  Mrv171c012241912032D          

  8  7  0  0  0  0            999 V2000
    2.1412   -0.8250    0.0000 C   0  0  0  0  0  0  0  0  0  0  0  0
    2.1412    0.0000    0.0000 O   0  0  0  0  0  0  0  0  0  0  0  0
    1.4267   -1.2375    0.0000 O   0  0  0  0  0  0  0  0  0  0  0  0
    0.7122   -0.8250    0.0000 C   0  0  0  0  0  0  0  0  0  0  0  0
   -0.0023   -1.2375    0.0000 C   0  0  0  0  0  0  0  0  0  0  0  0
    2.8556   -1.2375    0.0000 C   0  0  0  0  0  0  0  0  0  0  0  0
    3.5701   -0.8250    0.0000 O   0  0  0  0  0  0  0  0  0  0  0  0
    2.8556   -2.0625    0.0000 C   0  0  0  0  0  0  0  0  0  0  0  0
  1  2  2  0  0  0  0
  1  3  1  0  0  0  0
  3  4  1  0  0  0  0
  4  5  1  0  0  0  0
  1  6  1  0  0  0  0
  6  7  1  0  0  0  0
  6  8  1  0  0  0  0
M  END
> <ChemID>
100151

> <CAS>
97-64-3

> <Original_SMILES>
CCOC(=O)C(C)O

> <preferred_name>
Ethyl lactate

> <dsstox_substance_id>
DTXSID6029127

> <dsstox_compound_id>
DTXCID509127

> <qc_level>
DSSTox_Low

> <Canonical_QSARr>
CCOC(=O)C(C)O

> <InChI_Code_QSARr>
InChI=1S/C5H10O3/c1-3-8-5(7)4(2)6/h4,6H,3H2,1-2H3

> <InChI Key_QSARr>
LZCLXQDLBQLTDK-UHFFFAOYSA-N

> <Salt_Solvent>


> <Salt_Solvent_ID>
0

> <MPID>
98714

> <OH Reference>
KWOK,ESC ET AL. (1996)

> <OH>
3.9E-12

> <OH Temperature>
23.0

> <LogOH>
-11.40893539297348

> <Tr_1_Tst_0>
0

$$$$
100152
  Mrv171c012241912032D          

  7  7  0  0  0  0            999 V2000
    2.1693    0.6428    0.0000 O   0  0  0  0  0  0  0  0  0  0  0  0
    1.4548    0.2303    0.0000 C   0  0  0  0  0  0  0  0  0  0  0  0
    1.4548   -0.5947    0.0000 C   0  0  0  0  0  0  0  0  0  0  0  0
    0.7874   -1.0796    0.0000 O   0  0  0  0  0  0  0  0  0  0  0  0
    1.0423   -1.8642    0.0000 C   0  0  0  0  0  0  0  0  0  0  0  0
    1.8673   -1.8642    0.0000 C   0  0  0  0  0  0  0  0  0  0  0  0
    2.1223   -1.0796    0.0000 C   0  0  0  0  0  0  0  0  0  0  0  0
  1  2  2  0  0  0  0
  2  3  1  0  0  0  0
  4  3  1  0  0  0  0
  5  4  1  0  0  0  0
  6  5  2  0  0  0  0
  7  6  1  0  0  0  0
  3  7  2  0  0  0  0
M  END
> <ChemID>
100152

> <CAS>
98-01-1

> <Original_SMILES>
O=Cc1ccco1

> <preferred_name>
Furfural

> <dsstox_substance_id>
DTXSID1020647

> <dsstox_compound_id>
DTXCID50647

> <qc_level>
DSSTox_Low

> <Canonical_QSARr>
O=CC1=CC=CO1

> <InChI_Code_QSARr>
InChI=1S/C5H4O2/c6-4-5-2-1-3-7-5/h1-4H

> <InChI Key_QSARr>
HYBBIBNJHNGZAN-UHFFFAOYSA-N

> <Salt_Solvent>


> <Salt_Solvent_ID>
0

> <MPID>
98715

> <OH Reference>
BIERBACH,A ET AL. (1995)

> <OH>
3.51E-11

> <OH Temperature>
27.0

> <LogOH>
-10.454692883534163

> <Tr_1_Tst_0>
1

$$$$
100153
  Mrv171c012241912032D          

 10 10  0  0  0  0            999 V2000
    0.8250   -1.6526    0.0000 C   0  0  0  0  0  0  0  0  0  0  0  0
    0.8250   -0.8276    0.0000 C   0  0  0  0  0  0  0  0  0  0  0  0
    0.8250   -0.0026    0.0000 C   0  0  0  0  0  0  0  0  0  0  0  0
   -0.0000   -0.8276    0.0000 C   0  0  0  0  0  0  0  0  0  0  0  0
    1.6500   -0.8276    0.0000 C   0  0  0  0  0  0  0  0  0  0  0  0
    0.1105   -2.0651    0.0000 C   0  0  0  0  0  0  0  0  0  0  0  0
    0.1105   -2.8901    0.0000 C   0  0  0  0  0  0  0  0  0  0  0  0
    0.8250   -3.3026    0.0000 C   0  0  0  0  0  0  0  0  0  0  0  0
    1.5395   -2.8901    0.0000 C   0  0  0  0  0  0  0  0  0  0  0  0
    1.5395   -2.0651    0.0000 C   0  0  0  0  0  0  0  0  0  0  0  0
  1  2  1  0  0  0  0
  2  3  1  0  0  0  0
  2  4  1  0  0  0  0
  2  5  1  0  0  0  0
  6  1  1  0  0  0  0
  7  6  2  0  0  0  0
  8  7  1  0  0  0  0
  9  8  2  0  0  0  0
 10  9  1  0  0  0  0
  1 10  2  0  0  0  0
M  END
> <ChemID>
100153

> <CAS>
98-06-6

> <Original_SMILES>
CC(C)(C)c1ccccc1

> <preferred_name>
tert-Butylbenzene

> <dsstox_substance_id>
DTXSID3047138

> <dsstox_compound_id>
DTXCID1027138

> <qc_level>
DSSTox_Low

> <Canonical_QSARr>
CC(C)(C)C1C=CC=CC=1

> <InChI_Code_QSARr>
InChI=1S/C10H14/c1-10(2,3)9-7-5-4-6-8-9/h4-8H,1-3H3

> <InChI Key_QSARr>
YTZKOQUCBOVLHL-UHFFFAOYSA-N

> <Salt_Solvent>


> <Salt_Solvent_ID>
0

> <MPID>
98716

> <OH Reference>
ATKINSON,R (1989)

> <OH>
4.6E-12

> <OH Temperature>
25.0

> <LogOH>
-11.337242168318426

> <Tr_1_Tst_0>
1

$$$$
100154
  Mrv171c012241912032D          

 10 10  0  0  0  0            999 V2000
    1.5649    0.9089    0.0000 F   0  0  0  0  0  0  0  0  0  0  0  0
    1.5649    0.0839    0.0000 C   0  0  0  0  0  0  0  0  0  0  0  0
    1.5649   -0.7411    0.0000 C   0  0  0  0  0  0  0  0  0  0  0  0
    0.8505   -1.1536    0.0000 C   0  0  0  0  0  0  0  0  0  0  0  0
    0.8505   -1.9786    0.0000 C   0  0  0  0  0  0  0  0  0  0  0  0
    1.5649   -2.3911    0.0000 C   0  0  0  0  0  0  0  0  0  0  0  0
    2.2794   -1.9786    0.0000 C   0  0  0  0  0  0  0  0  0  0  0  0
    2.2794   -1.1536    0.0000 C   0  0  0  0  0  0  0  0  0  0  0  0
    0.7399    0.0839    0.0000 F   0  0  0  0  0  0  0  0  0  0  0  0
    2.3899    0.0839    0.0000 F   0  0  0  0  0  0  0  0  0  0  0  0
  1  2  1  0  0  0  0
  2  3  1  0  0  0  0
  4  3  1  0  0  0  0
  5  4  2  0  0  0  0
  6  5  1  0  0  0  0
  7  6  2  0  0  0  0
  8  7  1  0  0  0  0
  3  8  2  0  0  0  0
  2  9  1  0  0  0  0
  2 10  1  0  0  0  0
M  END
> <ChemID>
100154

> <CAS>
98-08-8

> <Original_SMILES>
FC(F)(F)c1ccccc1

> <preferred_name>
Benzotrifluoride

> <dsstox_substance_id>
DTXSID2024589

> <dsstox_compound_id>
DTXCID404589

> <qc_level>
DSSTox_Low

> <Canonical_QSARr>
FC(F)(F)C1C=CC=CC=1

> <InChI_Code_QSARr>
InChI=1S/C7H5F3/c8-7(9,10)6-4-2-1-3-5-6/h1-5H

> <InChI Key_QSARr>
GETTZEONDQJALK-UHFFFAOYSA-N

> <Salt_Solvent>


> <Salt_Solvent_ID>
0

> <MPID>
98717

> <OH Reference>
ATKINSON,R (1989)

> <OH>
4.6E-13

> <OH Temperature>
25.0

> <LogOH>
-12.337242168318406

> <Tr_1_Tst_0>
1

$$$$
100155
  Mrv171c012241912032D          

 11 11  0  0  0  0            999 V2000
    2.1750   -1.1250    0.0000 C   0  0  0  0  0  0  0  0  0  0  0  0
    2.1750   -1.9500    0.0000 C   0  0  0  0  0  0  0  0  0  0  0  0
    2.1750   -2.7750    0.0000 C   0  0  0  0  0  0  0  0  0  0  0  0
    3.0000   -1.9500    0.0000 C   0  0  0  0  0  0  0  0  0  0  0  0
    1.3500   -1.9500    0.0000 C   0  0  0  0  0  0  0  0  0  0  0  0
    2.8895   -0.7125    0.0000 C   0  0  0  0  0  0  0  0  0  0  0  0
    2.8895    0.1125    0.0000 C   0  0  0  0  0  0  0  0  0  0  0  0
    2.1750    0.5250    0.0000 C   0  0  0  0  0  0  0  0  0  0  0  0
    2.1750    1.3500    0.0000 C   0  0  0  0  0  0  0  0  0  0  0  0
    1.4606    0.1125    0.0000 C   0  0  0  0  0  0  0  0  0  0  0  0
    1.4606   -0.7125    0.0000 C   0  0  0  0  0  0  0  0  0  0  0  0
  1  2  1  0  0  0  0
  2  3  1  0  0  0  0
  2  4  1  0  0  0  0
  2  5  1  0  0  0  0
  6  1  1  0  0  0  0
  7  6  2  0  0  0  0
  8  7  1  0  0  0  0
  8  9  1  0  0  0  0
 10  8  2  0  0  0  0
 11 10  1  0  0  0  0
  1 11  2  0  0  0  0
M  END
> <ChemID>
100155

> <CAS>
98-51-1

> <Original_SMILES>
Cc1ccc(cc1)C(C)(C)C

> <preferred_name>
4-tert-Butyltoluene

> <dsstox_substance_id>
DTXSID1024704

> <dsstox_compound_id>
DTXCID404704

> <qc_level>
DSSTox_Low

> <Canonical_QSARr>
CC1C=CC(=CC=1)C(C)(C)C

> <InChI_Code_QSARr>
InChI=1S/C11H16/c1-9-5-7-10(8-6-9)11(2,3)4/h5-8H,1-4H3

> <InChI Key_QSARr>
QCWXDVFBZVHKLV-UHFFFAOYSA-N

> <Salt_Solvent>


> <Salt_Solvent_ID>
0

> <MPID>
98718

> <OH Reference>
BOLZACCHINI,E ET AL. (1997)

> <OH>
1.4E-11

> <OH Temperature>
25.0

> <LogOH>
-10.853871964321765

> <Tr_1_Tst_0>
0

$$$$
100156
  Mrv171c012241912032D          

 11 11  0  0  0  0            999 V2000
    2.1760   -1.9504    0.0000 C   0  0  0  0  0  0  0  0  0  0  0  0
    2.1760   -1.1254    0.0000 C   0  0  0  0  0  0  0  0  0  0  0  0
    2.8904   -0.7129    0.0000 C   0  0  0  0  0  0  0  0  0  0  0  0
    2.8904    0.1121    0.0000 C   0  0  0  0  0  0  0  0  0  0  0  0
    2.1760    0.5246    0.0000 C   0  0  0  0  0  0  0  0  0  0  0  0
    2.1760    1.3496    0.0000 Cl  0  0  0  0  0  0  0  0  0  0  0  0
    1.4615    0.1121    0.0000 C   0  0  0  0  0  0  0  0  0  0  0  0
    1.4615   -0.7129    0.0000 C   0  0  0  0  0  0  0  0  0  0  0  0
    2.1760   -2.7754    0.0000 F   0  0  0  0  0  0  0  0  0  0  0  0
    1.3510   -1.9504    0.0000 F   0  0  0  0  0  0  0  0  0  0  0  0
    3.0010   -1.9504    0.0000 F   0  0  0  0  0  0  0  0  0  0  0  0
  1  2  1  0  0  0  0
  3  2  1  0  0  0  0
  4  3  2  0  0  0  0
  5  4  1  0  0  0  0
  5  6  1  0  0  0  0
  7  5  2  0  0  0  0
  8  7  1  0  0  0  0
  2  8  2  0  0  0  0
  1  9  1  0  0  0  0
  1 10  1  0  0  0  0
  1 11  1  0  0  0  0
M  END
> <ChemID>
100156

> <CAS>
98-56-6

> <Original_SMILES>
FC(F)(F)c1ccc(Cl)cc1

> <preferred_name>
1-Chloro-4-(trifluoromethyl)benzene

> <dsstox_substance_id>
DTXSID7024821

> <dsstox_compound_id>
DTXCID004821

> <qc_level>
DSSTox_Low

> <Canonical_QSARr>
FC(F)(F)C1C=CC(Cl)=CC=1

> <InChI_Code_QSARr>
InChI=1S/C7H4ClF3/c8-6-3-1-5(2-4-6)7(9,10)11/h1-4H

> <InChI Key_QSARr>
QULYNCCPRWKEMF-UHFFFAOYSA-N

> <Salt_Solvent>


> <Salt_Solvent_ID>
0

> <MPID>
98719

> <OH Reference>
ATKINSON,R (1989)

> <OH>
2.4E-13

> <OH Temperature>
25.0

> <LogOH>
-12.619788758288395

> <Tr_1_Tst_0>
1

$$$$
100157
  Mrv171c012241912032D          

  9  9  0  0  0  0            999 V2000
    2.1337   -0.9436    0.0000 C   0  0  0  0  0  0  0  0  0  0  0  0
    1.4193   -0.5311    0.0000 C   0  0  0  0  0  0  0  0  0  0  0  0
    1.4193    0.2939    0.0000 C   0  0  0  0  0  0  0  0  0  0  0  0
    0.7048    0.7064    0.0000 C   0  0  0  0  0  0  0  0  0  0  0  0
    2.1337    0.7064    0.0000 C   0  0  0  0  0  0  0  0  0  0  0  0
    0.7048   -0.9436    0.0000 C   0  0  0  0  0  0  0  0  0  0  0  0
    0.7048   -1.7686    0.0000 C   0  0  0  0  0  0  0  0  0  0  0  0
    1.4193   -2.1811    0.0000 C   0  0  0  0  0  0  0  0  0  0  0  0
    2.1337   -1.7686    0.0000 C   0  0  0  0  0  0  0  0  0  0  0  0
  2  1  1  0  0  0  0
  2  3  1  0  0  0  0
  3  4  1  0  0  0  0
  3  5  1  0  0  0  0
  6  2  2  0  0  0  0
  7  6  1  0  0  0  0
  8  7  2  0  0  0  0
  9  8  1  0  0  0  0
  1  9  2  0  0  0  0
M  END
> <ChemID>
100157

> <CAS>
98-82-8

> <Original_SMILES>
CC(C)c1ccccc1

> <preferred_name>
Cumene

> <dsstox_substance_id>
DTXSID1021827

> <dsstox_compound_id>
DTXCID101827

> <qc_level>
DSSTox_High

> <Canonical_QSARr>
CC(C)C1C=CC=CC=1

> <InChI_Code_QSARr>
InChI=1S/C9H12/c1-8(2)9-6-4-3-5-7-9/h3-8H,1-2H3

> <InChI Key_QSARr>
RWGFKTVRMDUZSP-UHFFFAOYSA-N

> <Salt_Solvent>


> <Salt_Solvent_ID>
0

> <MPID>
98720

> <OH Reference>
ATKINSON,R (1989)

> <OH>
6.500000000000002E-12

> <OH Temperature>
25.0

> <LogOH>
-11.187086643357162

> <Tr_1_Tst_0>
1

$$$$
100158
  Mrv171c012241912032D          

  9  9  0  0  0  0            999 V2000
    1.4193    0.2939    0.0000 C   0  0  0  0  0  0  0  0  0  0  0  0
    1.4193   -0.5311    0.0000 C   0  0  0  0  0  0  0  0  0  0  0  0
    0.7048   -0.9436    0.0000 C   0  0  0  0  0  0  0  0  0  0  0  0
    0.7048   -1.7686    0.0000 C   0  0  0  0  0  0  0  0  0  0  0  0
    1.4193   -2.1811    0.0000 C   0  0  0  0  0  0  0  0  0  0  0  0
    2.1337   -1.7686    0.0000 C   0  0  0  0  0  0  0  0  0  0  0  0
    2.1337   -0.9436    0.0000 C   0  0  0  0  0  0  0  0  0  0  0  0
    0.7048    0.7064    0.0000 C   0  0  0  0  0  0  0  0  0  0  0  0
    2.1337    0.7064    0.0000 C   0  0  0  0  0  0  0  0  0  0  0  0
  1  2  1  0  0  0  0
  3  2  1  0  0  0  0
  4  3  2  0  0  0  0
  5  4  1  0  0  0  0
  6  5  2  0  0  0  0
  7  6  1  0  0  0  0
  2  7  2  0  0  0  0
  1  8  2  0  0  0  0
  1  9  1  0  0  0  0
M  END
> <ChemID>
100158

> <CAS>
98-83-9

> <Original_SMILES>
CC(=C)c1ccccc1

> <preferred_name>
alpha-Methylstyrene

> <dsstox_substance_id>
DTXSID9025661

> <dsstox_compound_id>
DTXCID905661

> <qc_level>
DSSTox_Low

> <Canonical_QSARr>
CC(=C)C1C=CC=CC=1

> <InChI_Code_QSARr>
InChI=1S/C9H10/c1-8(2)9-6-4-3-5-7-9/h3-7H,1H2,2H3

> <InChI Key_QSARr>
XYLMUPLGERFSHI-UHFFFAOYSA-N

> <Salt_Solvent>


> <Salt_Solvent_ID>
0

> <MPID>
98721

> <OH Reference>
ATKINSON,R (1989)

> <OH>
5.200000000000001E-11

> <OH Temperature>
25.0

> <LogOH>
-10.28399665636519

> <Tr_1_Tst_0>
1

$$$$
100159
  Mrv171c012241912032D          

  9  9  0  0  0  0            999 V2000
    1.5821   -0.3257    0.0000 C   0  0  0  0  0  0  0  0  0  0  0  0
    1.5821   -1.1507    0.0000 C   0  0  0  0  0  0  0  0  0  0  0  0
    0.8676   -1.5632    0.0000 C   0  0  0  0  0  0  0  0  0  0  0  0
    0.8676   -2.3882    0.0000 C   0  0  0  0  0  0  0  0  0  0  0  0
    1.5821   -2.8007    0.0000 C   0  0  0  0  0  0  0  0  0  0  0  0
    2.2966   -2.3882    0.0000 C   0  0  0  0  0  0  0  0  0  0  0  0
    2.2966   -1.5632    0.0000 C   0  0  0  0  0  0  0  0  0  0  0  0
    0.8676    0.0868    0.0000 O   0  0  0  0  0  0  0  0  0  0  0  0
    2.2966    0.0868    0.0000 C   0  0  0  0  0  0  0  0  0  0  0  0
  1  2  1  0  0  0  0
  3  2  1  0  0  0  0
  4  3  2  0  0  0  0
  5  4  1  0  0  0  0
  6  5  2  0  0  0  0
  7  6  1  0  0  0  0
  2  7  2  0  0  0  0
  1  8  2  0  0  0  0
  1  9  1  0  0  0  0
M  END
> <ChemID>
100159

> <CAS>
98-86-2

> <Original_SMILES>
CC(=O)c1ccccc1

> <preferred_name>
Acetophenone

> <dsstox_substance_id>
DTXSID6021828

> <dsstox_compound_id>
DTXCID501828

> <qc_level>
DSSTox_Low

> <Canonical_QSARr>
CC(=O)C1C=CC=CC=1

> <InChI_Code_QSARr>
InChI=1S/C8H8O/c1-7(9)8-5-3-2-4-6-8/h2-6H,1H3

> <InChI Key_QSARr>
KWOLFJPFCHCOCG-UHFFFAOYSA-N

> <Salt_Solvent>


> <Salt_Solvent_ID>
0

> <MPID>
98722

> <OH Reference>
ATKINSON,R (1989)

> <OH>
2.74E-12

> <OH Temperature>
25.0

> <LogOH>
-11.562249437179625

> <Tr_1_Tst_0>
0

$$$$
100160
  Mrv171c012241912032D          

  9  9  0  0  0  0            999 V2000
    2.1337    0.7064    0.0000 O   0  0  0  0  0  0  0  0  0  0  0  0
    1.4193    0.2939    0.0000 N   0  3  0  0  0  0  0  0  0  0  0  0
    0.7048    0.7064    0.0000 O   0  5  0  0  0  0  0  0  0  0  0  0
    1.4193   -0.5311    0.0000 C   0  0  0  0  0  0  0  0  0  0  0  0
    0.7048   -0.9436    0.0000 C   0  0  0  0  0  0  0  0  0  0  0  0
    0.7048   -1.7686    0.0000 C   0  0  0  0  0  0  0  0  0  0  0  0
    1.4193   -2.1811    0.0000 C   0  0  0  0  0  0  0  0  0  0  0  0
    2.1337   -1.7686    0.0000 C   0  0  0  0  0  0  0  0  0  0  0  0
    2.1337   -0.9436    0.0000 C   0  0  0  0  0  0  0  0  0  0  0  0
  1  2  2  0  0  0  0
  2  3  1  0  0  0  0
  2  4  1  0  0  0  0
  5  4  1  0  0  0  0
  6  5  2  0  0  0  0
  7  6  1  0  0  0  0
  8  7  2  0  0  0  0
  9  8  1  0  0  0  0
  4  9  2  0  0  0  0
M  CHG  2   2   1   3  -1
M  END
> <ChemID>
100160

> <CAS>
98-95-3

> <Original_SMILES>
[O-][N+](=O)c1ccccc1

> <preferred_name>
Nitrobenzene

> <dsstox_substance_id>
DTXSID3020964

> <dsstox_compound_id>
DTXCID30964

> <qc_level>
DSSTox_Low

> <Canonical_QSARr>
[O-][N+](=O)C1C=CC=CC=1

> <InChI_Code_QSARr>
InChI=1S/C6H5NO2/c8-7(9)6-4-2-1-3-5-6/h1-5H

> <InChI Key_QSARr>
LQNUZADURLCDLV-UHFFFAOYSA-N

> <Salt_Solvent>


> <Salt_Solvent_ID>
0

> <MPID>
98723

> <OH Reference>
ATKINSON,R (1989)

> <OH>
1.4E-13

> <OH Temperature>
25.0

> <LogOH>
-12.853871964321769

> <Tr_1_Tst_0>
1

$$$$
100161
  Mrv171c012241912032D          

 10 10  0  0  0  0            999 V2000
    0.0338   -2.6052    0.0000 C   0  0  0  0  0  0  0  0  0  0  0  0
    0.7483   -2.1927    0.0000 C   0  0  0  0  0  0  0  0  0  0  0  0
    1.4628   -2.6052    0.0000 C   0  0  0  0  0  0  0  0  0  0  0  0
    2.1772   -2.1927    0.0000 C   0  0  0  0  0  0  0  0  0  0  0  0
    2.1772   -1.3677    0.0000 C   0  0  0  0  0  0  0  0  0  0  0  0
    1.4628   -0.9552    0.0000 C   0  0  0  0  0  0  0  0  0  0  0  0
    1.4628   -0.1302    0.0000 N   0  3  0  0  0  0  0  0  0  0  0  0
    0.7483    0.2823    0.0000 O   0  5  0  0  0  0  0  0  0  0  0  0
    2.1772    0.2823    0.0000 O   0  0  0  0  0  0  0  0  0  0  0  0
    0.7483   -1.3677    0.0000 C   0  0  0  0  0  0  0  0  0  0  0  0
  1  2  1  0  0  0  0
  3  2  1  0  0  0  0
  4  3  2  0  0  0  0
  5  4  1  0  0  0  0
  6  5  2  0  0  0  0
  6  7  1  0  0  0  0
  7  8  1  0  0  0  0
  7  9  2  0  0  0  0
 10  6  1  0  0  0  0
  2 10  2  0  0  0  0
M  CHG  2   7   1   8  -1
M  END
> <ChemID>
100161

> <CAS>
99-08-1

> <Original_SMILES>
Cc1cc(ccc1)[N+]([O-])=O

> <preferred_name>
3-Nitrotoluene

> <dsstox_substance_id>
DTXSID5021831

> <dsstox_compound_id>
DTXCID001831

> <qc_level>
DSSTox_Low

> <Canonical_QSARr>
CC1=CC(=CC=C1)[N+]([O-])=O

> <InChI_Code_QSARr>
InChI=1S/C7H7NO2/c1-6-3-2-4-7(5-6)8(9)10/h2-5H,1H3

> <InChI Key_QSARr>
QZYHIOPPLUPUJF-UHFFFAOYSA-N

> <Salt_Solvent>


> <Salt_Solvent_ID>
0

> <MPID>
98724

> <OH Reference>
ATKINSON,R (1989)

> <OH>
9.500000000000002E-13

> <OH Temperature>
25.0

> <LogOH>
-12.02227639471115

> <Tr_1_Tst_0>
1

$$$$
100162
  Mrv171c012241912032D          

 10 10  0  0  0  0            999 V2000
    2.7817   -0.7146    0.0000 C   0  0  0  0  0  0  0  0  0  0  0  0
    2.0672   -0.3021    0.0000 C   0  0  0  0  0  0  0  0  0  0  0  0
    2.0672    0.5229    0.0000 C   0  0  0  0  0  0  0  0  0  0  0  0
    1.3527    0.9354    0.0000 C   0  0  0  0  0  0  0  0  0  0  0  0
    2.7817    0.9354    0.0000 C   0  0  0  0  0  0  0  0  0  0  0  0
    1.3527   -0.7146    0.0000 C   0  0  0  0  0  0  0  0  0  0  0  0
    1.3527   -1.5396    0.0000 C   0  0  0  0  0  0  0  0  0  0  0  0
    2.0672   -1.9521    0.0000 C   0  0  0  0  0  0  0  0  0  0  0  0
    2.0672   -2.7771    0.0000 C   0  0  0  0  0  0  0  0  0  0  0  0
    2.7817   -1.5396    0.0000 C   0  0  0  0  0  0  0  0  0  0  0  0
  2  1  1  0  0  0  0
  2  3  1  0  0  0  0
  3  4  1  0  0  0  0
  3  5  1  0  0  0  0
  6  2  1  0  0  0  0
  7  6  1  0  0  0  0
  8  7  2  0  0  0  0
  8  9  1  0  0  0  0
 10  8  1  0  0  0  0
  1 10  2  0  0  0  0
M  END
> <ChemID>
100162

> <CAS>
99-83-2

> <Original_SMILES>
CC(C)C1CC=C(C)C=C1

> <preferred_name>
alpha-Phellandrene

> <dsstox_substance_id>
DTXSID4047593

> <dsstox_compound_id>
DTXCID2027593

> <qc_level>
DSSTox_Low

> <Canonical_QSARr>
CC(C)C1CC=C(C)C=C1

> <InChI_Code_QSARr>
InChI=1S/C10H16/c1-8(2)10-6-4-9(3)5-7-10/h4-6,8,10H,7H2,1-3H3

> <InChI Key_QSARr>
OGLDWXZKYODSOB-UHFFFAOYSA-N

> <Salt_Solvent>


> <Salt_Solvent_ID>
0

> <MPID>
98725

> <OH Reference>
ATKINSON,R (1989)

> <OH>
3.13E-10

> <OH Temperature>
25.0

> <LogOH>
-9.504455662453553

> <Tr_1_Tst_0>
1

$$$$
100163
  Mrv171c012241912032D          

 10 10  0  0  0  0            999 V2000
    1.6622   -1.1277    0.0000 C   0  0  0  0  0  0  0  0  0  0  0  0
    1.6622   -1.9527    0.0000 C   0  0  0  0  0  0  0  0  0  0  0  0
    0.9477   -2.3652    0.0000 C   0  0  0  0  0  0  0  0  0  0  0  0
    2.3767   -2.3652    0.0000 C   0  0  0  0  0  0  0  0  0  0  0  0
    2.3767   -0.7152    0.0000 C   0  0  0  0  0  0  0  0  0  0  0  0
    2.3767    0.1098    0.0000 C   0  0  0  0  0  0  0  0  0  0  0  0
    1.6622    0.5223    0.0000 C   0  0  0  0  0  0  0  0  0  0  0  0
    1.6622    1.3473    0.0000 C   0  0  0  0  0  0  0  0  0  0  0  0
    0.9477    0.1098    0.0000 C   0  0  0  0  0  0  0  0  0  0  0  0
    0.9477   -0.7152    0.0000 C   0  0  0  0  0  0  0  0  0  0  0  0
  1  2  1  0  0  0  0
  2  3  1  0  0  0  0
  2  4  1  0  0  0  0
  5  1  1  0  0  0  0
  6  5  1  0  0  0  0
  7  6  2  0  0  0  0
  7  8  1  0  0  0  0
  9  7  1  0  0  0  0
 10  9  1  0  0  0  0
  1 10  2  0  0  0  0
M  END
> <ChemID>
100163

> <CAS>
99-85-4

> <Original_SMILES>
CC1CC=C(CC=1)C(C)C

> <preferred_name>
gamma-Terpinene

> <dsstox_substance_id>
DTXSID6041210

> <dsstox_compound_id>
DTXCID4021210

> <qc_level>
DSSTox_Low

> <Canonical_QSARr>
CC1CC=C(CC=1)C(C)C

> <InChI_Code_QSARr>
InChI=1S/C10H16/c1-8(2)10-6-4-9(3)5-7-10/h4,7-8H,5-6H2,1-3H3

> <InChI Key_QSARr>
YKFLAYDHMOASIY-UHFFFAOYSA-N

> <Salt_Solvent>


> <Salt_Solvent_ID>
0

> <MPID>
98726

> <OH Reference>
ATKINSON,R (1989)

> <OH>
1.77E-10

> <OH Temperature>
25.0

> <LogOH>
-9.752026733638184

> <Tr_1_Tst_0>
0

$$$$
100164
  Mrv171c012241912032D          

 10 10  0  0  0  0            999 V2000
    0.7216   -2.4781    0.0000 C   0  0  0  0  0  0  0  0  0  0  0  0
    0.7216   -3.3031    0.0000 C   0  0  0  0  0  0  0  0  0  0  0  0
    0.0071   -3.7156    0.0000 C   0  0  0  0  0  0  0  0  0  0  0  0
    1.4361   -3.7156    0.0000 C   0  0  0  0  0  0  0  0  0  0  0  0
    1.4361   -2.0656    0.0000 C   0  0  0  0  0  0  0  0  0  0  0  0
    1.4361   -1.2406    0.0000 C   0  0  0  0  0  0  0  0  0  0  0  0
    0.7216   -0.8281    0.0000 C   0  0  0  0  0  0  0  0  0  0  0  0
    0.7216   -0.0031    0.0000 C   0  0  0  0  0  0  0  0  0  0  0  0
    0.0071   -1.2406    0.0000 C   0  0  0  0  0  0  0  0  0  0  0  0
    0.0071   -2.0656    0.0000 C   0  0  0  0  0  0  0  0  0  0  0  0
  1  2  1  0  0  0  0
  2  3  1  0  0  0  0
  2  4  1  0  0  0  0
  5  1  1  0  0  0  0
  6  5  1  0  0  0  0
  7  6  1  0  0  0  0
  7  8  1  0  0  0  0
  9  7  2  0  0  0  0
 10  9  1  0  0  0  0
  1 10  2  0  0  0  0
M  END
> <ChemID>
100164

> <CAS>
99-86-5

> <Original_SMILES>
CC1CCC(=CC=1)C(C)C

> <preferred_name>
alpha-Terpinene

> <dsstox_substance_id>
DTXSID9041237

> <dsstox_compound_id>
DTXCID7021237

> <qc_level>
DSSTox_Low

> <Canonical_QSARr>
CC1CCC(=CC=1)C(C)C

> <InChI_Code_QSARr>
InChI=1S/C10H16/c1-8(2)10-6-4-9(3)5-7-10/h4,6,8H,5,7H2,1-3H3

> <InChI Key_QSARr>
YHQGMYUVUMAZJR-UHFFFAOYSA-N

> <Salt_Solvent>


> <Salt_Solvent_ID>
0

> <MPID>
98727

> <OH Reference>
ATKINSON,R (1989)

> <OH>
3.63E-10

> <OH Temperature>
21.0

> <LogOH>
-9.440093374963887

> <Tr_1_Tst_0>
1

$$$$
100165
  Mrv171c012241912032D          

 10 10  0  0  0  0            999 V2000
    1.6514   -1.9467    0.0000 C   0  0  0  0  0  0  0  0  0  0  0  0
    1.6514   -2.7717    0.0000 C   0  0  0  0  0  0  0  0  0  0  0  0
    2.3659   -1.5342    0.0000 C   0  0  0  0  0  0  0  0  0  0  0  0
    2.3659   -0.7092    0.0000 C   0  0  0  0  0  0  0  0  0  0  0  0
    1.6514   -0.2967    0.0000 C   0  0  0  0  0  0  0  0  0  0  0  0
    1.6514    0.5283    0.0000 C   0  0  0  0  0  0  0  0  0  0  0  0
    0.9369    0.9408    0.0000 C   0  0  0  0  0  0  0  0  0  0  0  0
    2.3659    0.9408    0.0000 C   0  0  0  0  0  0  0  0  0  0  0  0
    0.9369   -0.7092    0.0000 C   0  0  0  0  0  0  0  0  0  0  0  0
    0.9369   -1.5342    0.0000 C   0  0  0  0  0  0  0  0  0  0  0  0
  1  2  1  0  0  0  0
  3  1  1  0  0  0  0
  4  3  2  0  0  0  0
  5  4  1  0  0  0  0
  5  6  1  0  0  0  0
  6  7  1  0  0  0  0
  6  8  1  0  0  0  0
  9  5  2  0  0  0  0
 10  9  1  0  0  0  0
  1 10  2  0  0  0  0
M  END
> <ChemID>
100165

> <CAS>
99-87-6

> <Original_SMILES>
Cc1ccc(cc1)C(C)C

> <preferred_name>
p-Cymene

> <dsstox_substance_id>
DTXSID3026645

> <dsstox_compound_id>
DTXCID006645

> <qc_level>
DSSTox_Low

> <Canonical_QSARr>
CC1C=CC(=CC=1)C(C)C

> <InChI_Code_QSARr>
InChI=1S/C10H14/c1-8(2)10-6-4-9(3)5-7-10/h4-8H,1-3H3

> <InChI Key_QSARr>
HFPZCAJZSCWRBC-UHFFFAOYSA-N

> <Salt_Solvent>


> <Salt_Solvent_ID>
0

> <MPID>
98728

> <OH Reference>
CORCHNOY,SB & ATKINSON,R (1990)

> <OH>
1.51E-11

> <OH Temperature>
22.0

> <LogOH>
-10.821023052706844

> <Tr_1_Tst_0>
1

$$$$
100166
  Mrv171c012241912032D          

 11 11  0  0  0  0            999 V2000
    0.7145   -0.0375    0.0000 C   0  0  0  0  0  0  0  0  0  0  0  0
    0.7145   -0.8625    0.0000 N   0  3  0  0  0  0  0  0  0  0  0  0
   -0.0000   -1.2750    0.0000 O   0  5  0  0  0  0  0  0  0  0  0  0
    1.4289   -1.2750    0.0000 O   0  0  0  0  0  0  0  0  0  0  0  0
    1.4289    0.3750    0.0000 C   0  0  0  0  0  0  0  0  0  0  0  0
    1.4289    1.2000    0.0000 C   0  0  0  0  0  0  0  0  0  0  0  0
    0.7145    1.6125    0.0000 C   0  0  0  0  0  0  0  0  0  0  0  0
    0.7145    2.4375    0.0000 O   0  0  0  0  0  0  0  0  0  0  0  0
   -0.0000    2.8500    0.0000 C   0  0  0  0  0  0  0  0  0  0  0  0
   -0.0000    1.2000    0.0000 C   0  0  0  0  0  0  0  0  0  0  0  0
   -0.0000    0.3750    0.0000 C   0  0  0  0  0  0  0  0  0  0  0  0
  1  2  1  0  0  0  0
  2  3  1  0  0  0  0
  2  4  2  0  0  0  0
  5  1  1  0  0  0  0
  6  5  2  0  0  0  0
  7  6  1  0  0  0  0
  7  8  1  0  0  0  0
  8  9  1  0  0  0  0
 10  7  2  0  0  0  0
 11 10  1  0  0  0  0
  1 11  2  0  0  0  0
M  CHG  2   2   1   3  -1
M  END
> <ChemID>
100166

> <CAS>
100-17-4

> <Original_SMILES>
COc1ccc(cc1)[N+]([O-])=O

> <preferred_name>
p-Nitroanisole

> <dsstox_substance_id>
DTXSID9059208

> <dsstox_compound_id>
DTXCID5032448

> <qc_level>
Public_High

> <Canonical_QSARr>
COC1C=CC(=CC=1)[N+]([O-])=O

> <InChI_Code_QSARr>
InChI=1S/C7H7NO3/c1-11-7-4-2-6(3-5-7)8(9)10/h2-5H,1H3

> <InChI Key_QSARr>
BNUHAJGCKIQFGE-UHFFFAOYSA-N

> <Salt_Solvent>


> <Salt_Solvent_ID>
0

> <MPID>
98729

> <OH Reference>
priv. communication; KOCH,R ET AL. (1994)

> <OH>
2.46E-12

> <OH Temperature>
25.0

> <LogOH>
-11.60906489289663

> <Tr_1_Tst_0>
1

$$$$
100167
  Mrv171c012241912032D          

  8  8  0  0  0  0            999 V2000
    2.2218    0.9732    0.0000 C   0  0  0  0  0  0  0  0  0  0  0  0
    1.5073    0.5607    0.0000 C   0  0  0  0  0  0  0  0  0  0  0  0
    1.5073   -0.2643    0.0000 C   0  0  0  0  0  0  0  0  0  0  0  0
    0.7928   -0.6768    0.0000 C   0  0  0  0  0  0  0  0  0  0  0  0
    0.7928   -1.5018    0.0000 C   0  0  0  0  0  0  0  0  0  0  0  0
    1.5073   -1.9143    0.0000 C   0  0  0  0  0  0  0  0  0  0  0  0
    2.2218   -1.5018    0.0000 C   0  0  0  0  0  0  0  0  0  0  0  0
    2.2218   -0.6768    0.0000 C   0  0  0  0  0  0  0  0  0  0  0  0
  1  2  1  0  0  0  0
  2  3  1  0  0  0  0
  4  3  1  0  0  0  0
  5  4  2  0  0  0  0
  6  5  1  0  0  0  0
  7  6  2  0  0  0  0
  8  7  1  0  0  0  0
  3  8  2  0  0  0  0
M  END
> <ChemID>
100167

> <CAS>
100-41-4

> <Original_SMILES>
CCc1ccccc1

> <preferred_name>
Ethylbenzene

> <dsstox_substance_id>
DTXSID3020596

> <dsstox_compound_id>
DTXCID10596

> <qc_level>
DSSTox_High

> <Canonical_QSARr>
CCC1C=CC=CC=1

> <InChI_Code_QSARr>
InChI=1S/C8H10/c1-2-8-6-4-3-5-7-8/h3-7H,2H2,1H3

> <InChI Key_QSARr>
YNQLUTRBYVCPMQ-UHFFFAOYSA-N

> <Salt_Solvent>


> <Salt_Solvent_ID>
0

> <MPID>
98730

> <OH Reference>
KWOK,ESC & ATKINSON,R (1994)

> <OH>
7.099999999999998E-12

> <OH Temperature>
25.0

> <LogOH>
-11.148741651280933

> <Tr_1_Tst_0>
0

$$$$
100168
  Mrv171c012241912032D          

  8  8  0  0  0  0            999 V2000
    3.1082    0.5344    0.0000 C   0  0  0  0  0  0  0  0  0  0  0  0
    2.3938    0.1219    0.0000 C   0  0  0  0  0  0  0  0  0  0  0  0
    2.3938   -0.7031    0.0000 C   0  0  0  0  0  0  0  0  0  0  0  0
    1.6793   -1.1156    0.0000 C   0  0  0  0  0  0  0  0  0  0  0  0
    1.6793   -1.9406    0.0000 C   0  0  0  0  0  0  0  0  0  0  0  0
    2.3938   -2.3531    0.0000 C   0  0  0  0  0  0  0  0  0  0  0  0
    3.1082   -1.9406    0.0000 C   0  0  0  0  0  0  0  0  0  0  0  0
    3.1082   -1.1156    0.0000 C   0  0  0  0  0  0  0  0  0  0  0  0
  1  2  2  0  0  0  0
  2  3  1  0  0  0  0
  4  3  1  0  0  0  0
  5  4  2  0  0  0  0
  6  5  1  0  0  0  0
  7  6  2  0  0  0  0
  8  7  1  0  0  0  0
  3  8  2  0  0  0  0
M  END
> <ChemID>
100168

> <CAS>
100-42-5

> <Original_SMILES>
C=Cc1ccccc1

> <preferred_name>
Styrene

> <dsstox_substance_id>
DTXSID2021284

> <dsstox_compound_id>
DTXCID501284

> <qc_level>
DSSTox_High

> <Canonical_QSARr>
C=CC1C=CC=CC=1

> <InChI_Code_QSARr>
InChI=1S/C8H8/c1-2-8-6-4-3-5-7-8/h2-7H,1H2

> <InChI Key_QSARr>
PPBRXRYQALVLMV-UHFFFAOYSA-N

> <Salt_Solvent>


> <Salt_Solvent_ID>
0

> <MPID>
98731

> <OH Reference>
ATKINSON,R (1989)

> <OH>
5.800000000000002E-11

> <OH Temperature>
25.0

> <LogOH>
-10.236572006437049

> <Tr_1_Tst_0>
1

$$$$
100169
  Mrv171c012241912032D          

  8  8  0  0  0  0            999 V2000
    2.2218    0.9732    0.0000 Cl  0  0  0  0  0  0  0  0  0  0  0  0
    1.5073    0.5607    0.0000 C   0  0  0  0  0  0  0  0  0  0  0  0
    1.5073   -0.2643    0.0000 C   0  0  0  0  0  0  0  0  0  0  0  0
    0.7928   -0.6768    0.0000 C   0  0  0  0  0  0  0  0  0  0  0  0
    0.7928   -1.5018    0.0000 C   0  0  0  0  0  0  0  0  0  0  0  0
    1.5073   -1.9143    0.0000 C   0  0  0  0  0  0  0  0  0  0  0  0
    2.2218   -1.5018    0.0000 C   0  0  0  0  0  0  0  0  0  0  0  0
    2.2218   -0.6768    0.0000 C   0  0  0  0  0  0  0  0  0  0  0  0
  1  2  1  0  0  0  0
  2  3  1  0  0  0  0
  4  3  1  0  0  0  0
  5  4  2  0  0  0  0
  6  5  1  0  0  0  0
  7  6  2  0  0  0  0
  8  7  1  0  0  0  0
  3  8  2  0  0  0  0
M  END
> <ChemID>
100169

> <CAS>
100-44-7

> <Original_SMILES>
ClCc1ccccc1

> <preferred_name>
Benzyl chloride

> <dsstox_substance_id>
DTXSID0020153

> <dsstox_compound_id>
DTXCID00153

> <qc_level>
DSSTox_Low

> <Canonical_QSARr>
ClCC1C=CC=CC=1

> <InChI_Code_QSARr>
InChI=1S/C7H7Cl/c8-6-7-4-2-1-3-5-7/h1-5H,6H2

> <InChI Key_QSARr>
KCXMKQUNVWSEMD-UHFFFAOYSA-N

> <Salt_Solvent>


> <Salt_Solvent_ID>
0

> <MPID>
98732

> <OH Reference>
ATKINSON,R (1989)

> <OH>
2.9E-12

> <OH Temperature>
25.0

> <LogOH>
-11.537602002101035

> <Tr_1_Tst_0>
1

$$$$
100170
  Mrv171c012241912032D          

  8  8  0  0  0  0            999 V2000
    1.9593    1.2441    0.0000 N   0  0  0  0  0  0  0  0  0  0  0  0
    1.9593    0.4191    0.0000 C   0  0  0  0  0  0  0  0  0  0  0  0
    1.9593   -0.4059    0.0000 C   0  0  0  0  0  0  0  0  0  0  0  0
    1.2448   -0.8184    0.0000 C   0  0  0  0  0  0  0  0  0  0  0  0
    1.2448   -1.6434    0.0000 C   0  0  0  0  0  0  0  0  0  0  0  0
    1.9593   -2.0559    0.0000 C   0  0  0  0  0  0  0  0  0  0  0  0
    2.6737   -1.6434    0.0000 C   0  0  0  0  0  0  0  0  0  0  0  0
    2.6737   -0.8184    0.0000 C   0  0  0  0  0  0  0  0  0  0  0  0
  1  2  3  0  0  0  0
  2  3  1  0  0  0  0
  4  3  1  0  0  0  0
  5  4  2  0  0  0  0
  6  5  1  0  0  0  0
  7  6  2  0  0  0  0
  8  7  1  0  0  0  0
  3  8  2  0  0  0  0
M  END
> <ChemID>
100170

> <CAS>
100-47-0

> <Original_SMILES>
N#Cc1ccccc1

> <preferred_name>
Benzonitrile

> <dsstox_substance_id>
DTXSID7021491

> <dsstox_compound_id>
DTXCID001491

> <qc_level>
DSSTox_Low

> <Canonical_QSARr>
N#CC1C=CC=CC=1

> <InChI_Code_QSARr>
InChI=1S/C7H5N/c8-6-7-4-2-1-3-5-7/h1-5H

> <InChI Key_QSARr>
JFDZBHWFFUWGJE-UHFFFAOYSA-N

> <Salt_Solvent>


> <Salt_Solvent_ID>
0

> <MPID>
98733

> <OH Reference>
ATKINSON,R (1989)

> <OH>
3.3E-13

> <OH Temperature>
25.0

> <LogOH>
-12.48148606012213

> <Tr_1_Tst_0>
1

$$$$
100171
  Mrv171c012241912032D          

  8  8  0  0  0  0            999 V2000
    2.2218    0.9732    0.0000 O   0  0  0  0  0  0  0  0  0  0  0  0
    1.5073    0.5607    0.0000 C   0  0  0  0  0  0  0  0  0  0  0  0
    1.5073   -0.2643    0.0000 C   0  0  0  0  0  0  0  0  0  0  0  0
    0.7928   -0.6768    0.0000 C   0  0  0  0  0  0  0  0  0  0  0  0
    0.7928   -1.5018    0.0000 C   0  0  0  0  0  0  0  0  0  0  0  0
    1.5073   -1.9143    0.0000 C   0  0  0  0  0  0  0  0  0  0  0  0
    2.2218   -1.5018    0.0000 C   0  0  0  0  0  0  0  0  0  0  0  0
    2.2218   -0.6768    0.0000 C   0  0  0  0  0  0  0  0  0  0  0  0
  1  2  1  0  0  0  0
  2  3  1  0  0  0  0
  4  3  1  0  0  0  0
  5  4  2  0  0  0  0
  6  5  1  0  0  0  0
  7  6  2  0  0  0  0
  8  7  1  0  0  0  0
  3  8  2  0  0  0  0
M  END
> <ChemID>
100171

> <CAS>
100-51-6

> <Original_SMILES>
OCc1ccccc1

> <preferred_name>
Benzyl alcohol

> <dsstox_substance_id>
DTXSID5020152

> <dsstox_compound_id>
DTXCID70152

> <qc_level>
DSSTox_Low

> <Canonical_QSARr>
OCC1C=CC=CC=1

> <InChI_Code_QSARr>
InChI=1S/C7H8O/c8-6-7-4-2-1-3-5-7/h1-5,8H,6H2

> <InChI Key_QSARr>
WVDDGKGOMKODPV-UHFFFAOYSA-N

> <Salt_Solvent>


> <Salt_Solvent_ID>
0

> <MPID>
98734

> <OH Reference>
ATKINSON,R (1989)

> <OH>
2.29E-11

> <OH Temperature>
25.0

> <LogOH>
-10.64016451766013

> <Tr_1_Tst_0>
0

$$$$
100172
  Mrv171c012241912032D          

  8  8  0  0  0  0            999 V2000
    2.2218    0.9732    0.0000 O   0  0  0  0  0  0  0  0  0  0  0  0
    1.5073    0.5607    0.0000 C   0  0  0  0  0  0  0  0  0  0  0  0
    1.5073   -0.2643    0.0000 C   0  0  0  0  0  0  0  0  0  0  0  0
    0.7928   -0.6768    0.0000 C   0  0  0  0  0  0  0  0  0  0  0  0
    0.7928   -1.5018    0.0000 C   0  0  0  0  0  0  0  0  0  0  0  0
    1.5073   -1.9143    0.0000 C   0  0  0  0  0  0  0  0  0  0  0  0
    2.2218   -1.5018    0.0000 C   0  0  0  0  0  0  0  0  0  0  0  0
    2.2218   -0.6768    0.0000 C   0  0  0  0  0  0  0  0  0  0  0  0
  1  2  2  0  0  0  0
  2  3  1  0  0  0  0
  4  3  1  0  0  0  0
  5  4  2  0  0  0  0
  6  5  1  0  0  0  0
  7  6  2  0  0  0  0
  8  7  1  0  0  0  0
  3  8  2  0  0  0  0
M  END
> <ChemID>
100172

> <CAS>
100-52-7

> <Original_SMILES>
O=Cc1ccccc1

> <preferred_name>
Benzaldehyde

> <dsstox_substance_id>
DTXSID8039241

> <dsstox_compound_id>
DTXCID90134

> <qc_level>
DSSTox_Low

> <Canonical_QSARr>
O=CC1C=CC=CC=1

> <InChI_Code_QSARr>
InChI=1S/C7H6O/c8-6-7-4-2-1-3-5-7/h1-6H

> <InChI Key_QSARr>
HUMNYLRZRPPJDN-UHFFFAOYSA-N

> <Salt_Solvent>


> <Salt_Solvent_ID>
0

> <MPID>
98735

> <OH Reference>
ATKINSON,R (1989)

> <OH>
1.29E-11

> <OH Temperature>
25.0

> <LogOH>
-10.88941028970074

> <Tr_1_Tst_0>
1

$$$$
100173
  Mrv171c012241912032D          

  8  8  0  0  0  0            999 V2000
    1.2520   -0.3058    0.0000 C   0  0  0  0  0  0  0  0  0  0  0  0
    0.5376   -0.7183    0.0000 C   0  0  0  0  0  0  0  0  0  0  0  0
    0.5376   -1.5433    0.0000 C   0  0  0  0  0  0  0  0  0  0  0  0
    1.2520   -1.9558    0.0000 C   0  0  0  0  0  0  0  0  0  0  0  0
    1.9665   -1.5433    0.0000 C   0  0  0  0  0  0  0  0  0  0  0  0
    1.9665   -0.7183    0.0000 C   0  0  0  0  0  0  0  0  0  0  0  0
    1.2520    0.5192    0.0000 O   0  0  0  0  0  0  0  0  0  0  0  0
    0.5376    0.9317    0.0000 C   0  0  0  0  0  0  0  0  0  0  0  0
  2  1  2  0  0  0  0
  3  2  1  0  0  0  0
  4  3  2  0  0  0  0
  5  4  1  0  0  0  0
  6  5  2  0  0  0  0
  1  6  1  0  0  0  0
  1  7  1  0  0  0  0
  7  8  1  0  0  0  0
M  END
> <ChemID>
100173

> <CAS>
100-66-3

> <Original_SMILES>
COc1ccccc1

> <preferred_name>
Anisole

> <dsstox_substance_id>
DTXSID4041608

> <dsstox_compound_id>
DTXCID2021608

> <qc_level>
DSSTox_Low

> <Canonical_QSARr>
COC1C=CC=CC=1

> <InChI_Code_QSARr>
InChI=1S/C7H8O/c1-8-7-5-3-2-4-6-7/h2-6H,1H3

> <InChI Key_QSARr>
RDOXTESZEPMUJZ-UHFFFAOYSA-N

> <Salt_Solvent>


> <Salt_Solvent_ID>
0

> <MPID>
98736

> <OH Reference>
ATKINSON,R (1989)

> <OH>
1.73E-11

> <OH Temperature>
25.0

> <LogOH>
-10.761953896871196

> <Tr_1_Tst_0>
1

$$$$
100174
  Mrv171c012241912032D          

  8  8  0  0  0  0            999 V2000
    2.0977   -0.6773    0.0000 N   0  0  0  0  0  0  0  0  0  0  0  0
    1.3833   -0.2648    0.0000 C   0  0  0  0  0  0  0  0  0  0  0  0
    1.3833    0.5602    0.0000 C   0  0  0  0  0  0  0  0  0  0  0  0
    0.6688    0.9727    0.0000 C   0  0  0  0  0  0  0  0  0  0  0  0
    0.6688   -0.6773    0.0000 C   0  0  0  0  0  0  0  0  0  0  0  0
    0.6688   -1.5023    0.0000 C   0  0  0  0  0  0  0  0  0  0  0  0
    1.3833   -1.9148    0.0000 C   0  0  0  0  0  0  0  0  0  0  0  0
    2.0977   -1.5023    0.0000 C   0  0  0  0  0  0  0  0  0  0  0  0
  2  1  1  0  0  0  0
  2  3  1  0  0  0  0
  3  4  2  0  0  0  0
  5  2  2  0  0  0  0
  6  5  1  0  0  0  0
  7  6  2  0  0  0  0
  8  7  1  0  0  0  0
  1  8  2  0  0  0  0
M  END
> <ChemID>
100174

> <CAS>
100-69-6

> <Original_SMILES>
C=Cc1cccc[n]1

> <preferred_name>
2-Vinylpyridine

> <dsstox_substance_id>
DTXSID1026667

> <dsstox_compound_id>
DTXCID406667

> <qc_level>
DSSTox_Low

> <Canonical_QSARr>
C=CC1=CC=CC=N1

> <InChI_Code_QSARr>
InChI=1S/C7H7N/c1-2-7-5-3-4-6-8-7/h2-6H,1H2

> <InChI Key_QSARr>
KGIGUEBEKRSTEW-UHFFFAOYSA-N

> <Salt_Solvent>


> <Salt_Solvent_ID>
0

> <MPID>
98737

> <OH Reference>
TUAZON,EC ET AL. (1993)

> <OH>
5.67E-11

> <OH Temperature>
25.0

> <LogOH>
-10.246416941107075

> <Tr_1_Tst_0>
1

$$$$
100176
  Mrv171c012241912032D          

 15 16  0  0  0  0            999 V2000
    3.6216   -2.9165    0.0000 C   0  0  0  0  0  0  0  0  0  0  0  0
    4.3361   -2.5040    0.0000 C   0  0  0  0  0  0  0  0  0  0  0  0
    4.3361   -1.6790    0.0000 C   0  0  0  0  0  0  0  0  0  0  0  0
    3.6216   -1.2665    0.0000 C   0  0  0  0  0  0  0  0  0  0  0  0
    3.6216   -0.4415    0.0000 C   0  0  0  0  0  0  0  0  0  0  0  0
    2.9071   -0.0290    0.0000 C   0  0  0  0  0  0  0  0  0  0  0  0
    2.9071    0.7960    0.0000 C   0  0  0  0  0  0  0  0  0  0  0  0
    2.1927    1.2085    0.0000 C   0  0  0  0  0  0  0  0  0  0  0  0
    1.4782    0.7960    0.0000 C   0  0  0  0  0  0  0  0  0  0  0  0
    0.7637    1.2085    0.0000 N   0  0  0  0  0  0  0  0  0  0  0  0
    1.4782   -0.0290    0.0000 C   0  0  0  0  0  0  0  0  0  0  0  0
    2.1927   -0.4415    0.0000 C   0  0  0  0  0  0  0  0  0  0  0  0
    2.9071   -1.6790    0.0000 C   0  0  0  0  0  0  0  0  0  0  0  0
    2.9071   -2.5040    0.0000 C   0  0  0  0  0  0  0  0  0  0  0  0
    3.6216   -3.7415    0.0000 N   0  0  0  0  0  0  0  0  0  0  0  0
  2  1  2  0  0  0  0
  3  2  1  0  0  0  0
  4  3  2  0  0  0  0
  4  5  1  0  0  0  0
  5  6  1  0  0  0  0
  7  6  1  0  0  0  0
  8  7  2  0  0  0  0
  9  8  1  0  0  0  0
  9 10  1  0  0  0  0
 11  9  2  0  0  0  0
 12 11  1  0  0  0  0
  6 12  2  0  0  0  0
 13  4  1  0  0  0  0
 14 13  2  0  0  0  0
  1 14  1  0  0  0  0
  1 15  1  0  0  0  0
M  END
> <ChemID>
100176

> <CAS>
101-77-9

> <Original_SMILES>
Nc1ccc(Cc2ccc(N)cc2)cc1

> <preferred_name>
4,4'-Methylenedianiline

> <dsstox_substance_id>
DTXSID6022422

> <dsstox_compound_id>
DTXCID402422

> <qc_level>
DSSTox_Low

> <Canonical_QSARr>
NC1C=CC(CC2C=CC(N)=CC=2)=CC=1

> <InChI_Code_QSARr>
InChI=1S/C13H14N2/c14-12-5-1-10(2-6-12)9-11-3-7-13(15)8-4-11/h1-8H,9,14-15H2

> <InChI Key_QSARr>
YBRVSVVVWCFQMG-UHFFFAOYSA-N

> <Salt_Solvent>


> <Salt_Solvent_ID>
0

> <MPID>
98738

> <OH Reference>
ATKINSON,R (1989)

> <OH>
3.000000000000001E-11

> <OH Temperature>
25.0

> <LogOH>
-10.52287874528034

> <Tr_1_Tst_0>
1

$$$$
100177
  Mrv171c012241912032D          

 13 14  0  0  0  0            999 V2000
    3.5155   -1.7446    0.0000 C   0  0  0  0  0  0  0  0  0  0  0  0
    2.8010   -1.3321    0.0000 C   0  0  0  0  0  0  0  0  0  0  0  0
    2.8010   -0.5071    0.0000 O   0  0  0  0  0  0  0  0  0  0  0  0
    2.0865   -0.0946    0.0000 C   0  0  0  0  0  0  0  0  0  0  0  0
    2.0865    0.7304    0.0000 C   0  0  0  0  0  0  0  0  0  0  0  0
    1.3721    1.1429    0.0000 C   0  0  0  0  0  0  0  0  0  0  0  0
    0.6576    0.7304    0.0000 C   0  0  0  0  0  0  0  0  0  0  0  0
    0.6576   -0.0946    0.0000 C   0  0  0  0  0  0  0  0  0  0  0  0
    1.3721   -0.5071    0.0000 C   0  0  0  0  0  0  0  0  0  0  0  0
    2.0865   -1.7446    0.0000 C   0  0  0  0  0  0  0  0  0  0  0  0
    2.0865   -2.5696    0.0000 C   0  0  0  0  0  0  0  0  0  0  0  0
    2.8010   -2.9821    0.0000 C   0  0  0  0  0  0  0  0  0  0  0  0
    3.5155   -2.5696    0.0000 C   0  0  0  0  0  0  0  0  0  0  0  0
  2  1  1  0  0  0  0
  2  3  1  0  0  0  0
  3  4  1  0  0  0  0
  5  4  1  0  0  0  0
  6  5  2  0  0  0  0
  7  6  1  0  0  0  0
  8  7  2  0  0  0  0
  9  8  1  0  0  0  0
  4  9  2  0  0  0  0
 10  2  2  0  0  0  0
 11 10  1  0  0  0  0
 12 11  2  0  0  0  0
 13 12  1  0  0  0  0
  1 13  2  0  0  0  0
M  END
> <ChemID>
100177

> <CAS>
101-84-8

> <Original_SMILES>
c1ccccc1Oc1ccccc1

> <preferred_name>
Diphenyl oxide

> <dsstox_substance_id>
DTXSID9021847

> <dsstox_compound_id>
DTXCID701847

> <qc_level>
DSSTox_Low

> <Canonical_QSARr>
C1=CC=CC=C1OC1C=CC=CC=1

> <InChI_Code_QSARr>
InChI=1S/C12H10O/c1-3-7-11(8-4-1)13-12-9-5-2-6-10-12/h1-10H

> <InChI Key_QSARr>
USIUVYZYUHIAEV-UHFFFAOYSA-N

> <Salt_Solvent>


> <Salt_Solvent_ID>
0

> <MPID>
98739

> <OH Reference>
KWOK,ESC ET AL. (1995)

> <OH>
9.600000000000001E-12

> <OH Temperature>
24.0

> <LogOH>
-11.017728766960449

> <Tr_1_Tst_0>
1

$$$$
100178
  Mrv171c012241912032D          

  9  9  0  0  0  0            999 V2000
    1.2747   -0.5068    0.0000 C   0  0  0  0  0  0  0  0  0  0  0  0
    1.2747    0.3182    0.0000 C   0  0  0  0  0  0  0  0  0  0  0  0
    1.9892    0.7307    0.0000 C   0  0  0  0  0  0  0  0  0  0  0  0
    1.9892    1.5557    0.0000 C   0  0  0  0  0  0  0  0  0  0  0  0
    0.5603   -0.9193    0.0000 C   0  0  0  0  0  0  0  0  0  0  0  0
    0.5603   -1.7443    0.0000 C   0  0  0  0  0  0  0  0  0  0  0  0
    1.2747   -2.1568    0.0000 C   0  0  0  0  0  0  0  0  0  0  0  0
    1.9892   -1.7443    0.0000 C   0  0  0  0  0  0  0  0  0  0  0  0
    1.9892   -0.9193    0.0000 C   0  0  0  0  0  0  0  0  0  0  0  0
  1  2  1  0  0  0  0
  2  3  1  0  0  0  0
  3  4  1  0  0  0  0
  5  1  2  0  0  0  0
  6  5  1  0  0  0  0
  7  6  2  0  0  0  0
  8  7  1  0  0  0  0
  9  8  2  0  0  0  0
  1  9  1  0  0  0  0
M  END
> <ChemID>
100178

> <CAS>
103-65-1

> <Original_SMILES>
CCCc1ccccc1

> <preferred_name>
Propylbenzene

> <dsstox_substance_id>
DTXSID3042219

> <dsstox_compound_id>
DTXCID1022219

> <qc_level>
DSSTox_Low

> <Canonical_QSARr>
CCCC1C=CC=CC=1

> <InChI_Code_QSARr>
InChI=1S/C9H12/c1-2-6-9-7-4-3-5-8-9/h3-5,7-8H,2,6H2,1H3

> <InChI Key_QSARr>
ODLMAHJVESYWTB-UHFFFAOYSA-N

> <Salt_Solvent>


> <Salt_Solvent_ID>
0

> <MPID>
98740

> <OH Reference>
ATKINSON,R (1989)

> <OH>
6.000000000000001E-12

> <OH Temperature>
25.0

> <LogOH>
-11.221848749616358

> <Tr_1_Tst_0>
1

$$$$
100180
  Mrv171c012241912032D          

  7  6  0  0  0  0            999 V2000
    1.4210   -0.9365    0.0000 C   0  0  0  0  0  0  0  0  0  0  0  0
    0.7065   -0.5240    0.0000 C   0  0  0  0  0  0  0  0  0  0  0  0
   -0.0079   -0.9365    0.0000 C   0  0  0  0  0  0  0  0  0  0  0  0
    2.1355   -0.5240    0.0000 O   0  0  0  0  0  0  0  0  0  0  0  0
    2.8500   -0.9365    0.0000 C   0  0  0  0  0  0  0  0  0  0  0  0
    3.5644   -0.5240    0.0000 C   0  0  0  0  0  0  0  0  0  0  0  0
    1.4210   -1.7615    0.0000 O   0  0  0  0  0  0  0  0  0  0  0  0
  1  2  1  0  0  0  0
  2  3  1  0  0  0  0
  1  4  1  0  0  0  0
  4  5  1  0  0  0  0
  5  6  1  0  0  0  0
  1  7  2  0  0  0  0
M  END
> <ChemID>
100180

> <CAS>
105-37-3

> <Original_SMILES>
CCC(=O)OCC

> <preferred_name>
Ethyl propionate

> <dsstox_substance_id>
DTXSID1040110

> <dsstox_compound_id>
DTXCID9020110

> <qc_level>
DSSTox_Low

> <Canonical_QSARr>
CCC(=O)OCC

> <InChI_Code_QSARr>
InChI=1S/C5H10O2/c1-3-5(6)7-4-2/h3-4H2,1-2H3

> <InChI Key_QSARr>
FKRCODPIKNYEAC-UHFFFAOYSA-N

> <Salt_Solvent>


> <Salt_Solvent_ID>
0

> <MPID>
98741

> <OH Reference>
KWOK,ESC & ATKINSON,R (1994)

> <OH>
2.140000000000001E-12

> <OH Temperature>
25.0

> <LogOH>
-11.669586226650814

> <Tr_1_Tst_0>
1

$$$$
100181
  Mrv171c012241912032D          

  7  6  0  0  0  0            999 V2000
    1.7809   -0.0366    0.0000 O   0  0  0  0  0  0  0  0  0  0  0  0
    1.7809   -0.8616    0.0000 C   0  0  0  0  0  0  0  0  0  0  0  0
    1.0664   -1.2741    0.0000 O   0  0  0  0  0  0  0  0  0  0  0  0
    0.3519   -0.8616    0.0000 C   0  0  0  0  0  0  0  0  0  0  0  0
   -0.3625   -1.2741    0.0000 C   0  0  0  0  0  0  0  0  0  0  0  0
    2.4954   -1.2741    0.0000 N   0  0  0  0  0  0  0  0  0  0  0  0
    3.2098   -0.8616    0.0000 C   0  0  0  0  0  0  0  0  0  0  0  0
  1  2  2  0  0  0  0
  2  3  1  0  0  0  0
  3  4  1  0  0  0  0
  4  5  1  0  0  0  0
  2  6  1  0  0  0  0
  6  7  1  0  0  0  0
M  END
> <ChemID>
100181

> <CAS>
105-40-8

> <Original_SMILES>
CCOC(=O)NC

> <preferred_name>
N-Methylcarbamic acid, ethyl ester

> <dsstox_substance_id>
DTXSID2031746

> <dsstox_compound_id>
DTXCID0011746

> <qc_level>
DSSTox_Low

> <Canonical_QSARr>
CCOC(=O)NC

> <InChI_Code_QSARr>
InChI=1S/C4H9NO2/c1-3-7-4(6)5-2/h3H2,1-2H3,(H,5,6)

> <InChI Key_QSARr>
SURZCVYFPAXNGN-UHFFFAOYSA-N

> <Salt_Solvent>


> <Salt_Solvent_ID>
0

> <MPID>
98742

> <OH Reference>
KWOK,ESC ET AL. (1996)

> <OH>
8.3E-12

> <OH Temperature>
25.0

> <LogOH>
-11.080921907623928

> <Tr_1_Tst_0>
1

$$$$
100182
  Mrv171c012241912032D          

  8  7  0  0  0  0            999 V2000
    0.7021   -0.8164    0.0000 C   0  0  0  0  0  0  0  0  0  0  0  0
   -0.0124   -1.2289    0.0000 C   0  0  0  0  0  0  0  0  0  0  0  0
    1.4165   -1.2289    0.0000 O   0  0  0  0  0  0  0  0  0  0  0  0
    2.1310   -0.8164    0.0000 C   0  0  0  0  0  0  0  0  0  0  0  0
    2.1310    0.0086    0.0000 C   0  0  0  0  0  0  0  0  0  0  0  0
    2.8455   -1.2289    0.0000 C   0  0  0  0  0  0  0  0  0  0  0  0
    3.5599   -0.8164    0.0000 C   0  0  0  0  0  0  0  0  0  0  0  0
    0.7021    0.0086    0.0000 O   0  0  0  0  0  0  0  0  0  0  0  0
  1  2  1  0  0  0  0
  1  3  1  0  0  0  0
  3  4  1  0  0  0  0
  4  5  1  0  0  0  0
  4  6  1  0  0  0  0
  6  7  1  0  0  0  0
  1  8  2  0  0  0  0
M  END
> <ChemID>
100182

> <CAS>
105-46-4

> <Original_SMILES>
CCC(C)OC(C)=O

> <preferred_name>
Butan-2-yl acetate

> <dsstox_substance_id>
DTXSID0047612

> <dsstox_compound_id>
DTXCID8027612

> <qc_level>
DSSTox_Low

> <Canonical_QSARr>
CCC(C)OC(C)=O

> <InChI_Code_QSARr>
InChI=1S/C6H12O2/c1-4-5(2)8-6(3)7/h5H,4H2,1-3H3

> <InChI Key_QSARr>
DCKVNWZUADLDEH-UHFFFAOYSA-N

> <Salt_Solvent>


> <Salt_Solvent_ID>
0

> <MPID>
98743

> <OH Reference>
ATKINSON,R (1989)

> <OH>
5.5E-12

> <OH Temperature>
25.0

> <LogOH>
-11.259637310505745

> <Tr_1_Tst_0>
1

$$$$
100183
  Mrv171c012241912032D          

  8  7  0  0  0  0            999 V2000
    2.1415   -1.0320    0.0000 C   0  0  0  0  0  0  0  0  0  0  0  0
    1.4270   -0.6195    0.0000 C   0  0  0  0  0  0  0  0  0  0  0  0
    0.7126   -1.0320    0.0000 C   0  0  0  0  0  0  0  0  0  0  0  0
   -0.0019   -0.6195    0.0000 C   0  0  0  0  0  0  0  0  0  0  0  0
    2.8560   -0.6195    0.0000 O   0  0  0  0  0  0  0  0  0  0  0  0
    3.5705   -1.0320    0.0000 C   0  0  0  0  0  0  0  0  0  0  0  0
    4.2849   -0.6195    0.0000 C   0  0  0  0  0  0  0  0  0  0  0  0
    2.1415   -1.8570    0.0000 O   0  0  0  0  0  0  0  0  0  0  0  0
  1  2  1  0  0  0  0
  2  3  1  0  0  0  0
  3  4  1  0  0  0  0
  1  5  1  0  0  0  0
  5  6  1  0  0  0  0
  6  7  1  0  0  0  0
  1  8  2  0  0  0  0
M  END
> <ChemID>
100183

> <CAS>
105-54-4

> <Original_SMILES>
CCOC(=O)CCC

> <preferred_name>
Ethyl butyrate

> <dsstox_substance_id>
DTXSID6040111

> <dsstox_compound_id>
DTXCID4020111

> <qc_level>
DSSTox_Low

> <Canonical_QSARr>
CCOC(=O)CCC

> <InChI_Code_QSARr>
InChI=1S/C6H12O2/c1-3-5-6(7)8-4-2/h3-5H2,1-2H3

> <InChI Key_QSARr>
OBNCKNCVKJNDBV-UHFFFAOYSA-N

> <Salt_Solvent>


> <Salt_Solvent_ID>
0

> <MPID>
98744

> <OH Reference>
KWOK,ESC & ATKINSON,R (1994)

> <OH>
4.94E-12

> <OH Temperature>
25.0

> <LogOH>
-11.306273051076346

> <Tr_1_Tst_0>
0

$$$$
100184
  Mrv171c012241912032D          

  9  8  0  0  0  0            999 V2000
    1.0460    1.4289    0.0000 C   0  0  0  0  0  0  0  0  0  0  0  0
    1.7605    1.8414    0.0000 C   0  0  0  0  0  0  0  0  0  0  0  0
    2.4750    1.4289    0.0000 C   0  0  0  0  0  0  0  0  0  0  0  0
    3.1894    1.8414    0.0000 C   0  0  0  0  0  0  0  0  0  0  0  0
    3.9039    1.4289    0.0000 O   0  0  0  0  0  0  0  0  0  0  0  0
    4.6184    1.8414    0.0000 C   0  0  0  0  0  0  0  0  0  0  0  0
    5.3329    1.4289    0.0000 C   0  0  0  0  0  0  0  0  0  0  0  0
    6.0473    1.8414    0.0000 C   0  0  0  0  0  0  0  0  0  0  0  0
    3.1894    2.6664    0.0000 O   0  0  0  0  0  0  0  0  0  0  0  0
  1  2  1  0  0  0  0
  2  3  1  0  0  0  0
  3  4  1  0  0  0  0
  4  5  1  0  0  0  0
  5  6  1  0  0  0  0
  6  7  1  0  0  0  0
  7  8  1  0  0  0  0
  4  9  2  0  0  0  0
M  END
> <ChemID>
100184

> <CAS>
105-66-8

> <Original_SMILES>
CCCOC(=O)CCC

> <preferred_name>
Butanoic acid, propyl ester

> <dsstox_substance_id>
DTXSID6059318

> <dsstox_compound_id>
DTXCID3032915

> <qc_level>
Public_High

> <Canonical_QSARr>
CCCOC(=O)CCC

> <InChI_Code_QSARr>
InChI=1S/C7H14O2/c1-3-5-7(8)9-6-4-2/h3-6H2,1-2H3

> <InChI Key_QSARr>
HUAZGNHGCJGYNP-UHFFFAOYSA-N

> <Salt_Solvent>


> <Salt_Solvent_ID>
0

> <MPID>
98745

> <OH Reference>
KWOK,ESC & ATKINSON,R (1994)

> <OH>
7.41E-12

> <OH Temperature>
25.0

> <LogOH>
-11.130181792020691

> <Tr_1_Tst_0>
1

$$$$
100185
  Mrv171c012241912032D          

  9  9  0  0  0  0            999 V2000
    1.7474   -2.4749    0.0000 O   0  0  0  0  0  0  0  0  0  0  0  0
    1.7474   -1.6499    0.0000 C   0  0  0  0  0  0  0  0  0  0  0  0
    2.4618   -1.2374    0.0000 C   0  0  0  0  0  0  0  0  0  0  0  0
    2.4618   -0.4124    0.0000 C   0  0  0  0  0  0  0  0  0  0  0  0
    1.7474    0.0001    0.0000 C   0  0  0  0  0  0  0  0  0  0  0  0
    1.7474    0.8251    0.0000 C   0  0  0  0  0  0  0  0  0  0  0  0
    1.0329   -0.4124    0.0000 C   0  0  0  0  0  0  0  0  0  0  0  0
    1.0329   -1.2374    0.0000 C   0  0  0  0  0  0  0  0  0  0  0  0
    0.3184   -1.6499    0.0000 C   0  0  0  0  0  0  0  0  0  0  0  0
  1  2  1  0  0  0  0
  3  2  1  0  0  0  0
  4  3  2  0  0  0  0
  5  4  1  0  0  0  0
  5  6  1  0  0  0  0
  7  5  2  0  0  0  0
  8  7  1  0  0  0  0
  2  8  2  0  0  0  0
  8  9  1  0  0  0  0
M  END
> <ChemID>
100185

> <CAS>
105-67-9

> <Original_SMILES>
Cc1cc(C)c(O)cc1

> <preferred_name>
2,4-Dimethylphenol

> <dsstox_substance_id>
DTXSID2021864

> <dsstox_compound_id>
DTXCID101864

> <qc_level>
DSSTox_Low

> <Canonical_QSARr>
CC1=CC(C)=C(O)C=C1

> <InChI_Code_QSARr>
InChI=1S/C8H10O/c1-6-3-4-8(9)7(2)5-6/h3-5,9H,1-2H3

> <InChI Key_QSARr>
KUFFULVDNCHOFZ-UHFFFAOYSA-N

> <Salt_Solvent>


> <Salt_Solvent_ID>
0

> <MPID>
98746

> <OH Reference>
KWOK,ESC & ATKINSON,R (1994)

> <OH>
7.149999999999999E-11

> <OH Temperature>
25.0

> <LogOH>
-10.145693958198924

> <Tr_1_Tst_0>
1

$$$$
100186
  Mrv171c012241912032D          

  8  7  0  0  0  0            999 V2000
    2.6835   -0.8265    0.0000 C   0  0  0  0  0  0  0  0  0  0  0  0
    2.6835   -0.0015    0.0000 O   0  0  0  0  0  0  0  0  0  0  0  0
    1.9690   -1.2390    0.0000 O   0  0  0  0  0  0  0  0  0  0  0  0
    1.2546   -0.8265    0.0000 C   0  0  0  0  0  0  0  0  0  0  0  0
    0.5401   -1.2390    0.0000 C   0  0  0  0  0  0  0  0  0  0  0  0
   -0.1744   -0.8265    0.0000 C   0  0  0  0  0  0  0  0  0  0  0  0
    3.3980   -1.2390    0.0000 C   0  0  0  0  0  0  0  0  0  0  0  0
    4.1124   -0.8265    0.0000 C   0  0  0  0  0  0  0  0  0  0  0  0
  1  2  2  0  0  0  0
  1  3  1  0  0  0  0
  3  4  1  0  0  0  0
  4  5  1  0  0  0  0
  5  6  1  0  0  0  0
  1  7  1  0  0  0  0
  7  8  1  0  0  0  0
M  END
> <ChemID>
100186

> <CAS>
106-36-5

> <Original_SMILES>
CCC(=O)OCCC

> <preferred_name>
Propyl propionate

> <dsstox_substance_id>
DTXSID4042337

> <dsstox_compound_id>
DTXCID2022337

> <qc_level>
DSSTox_Low

> <Canonical_QSARr>
CCC(=O)OCCC

> <InChI_Code_QSARr>
InChI=1S/C6H12O2/c1-3-5-8-6(7)4-2/h3-5H2,1-2H3

> <InChI Key_QSARr>
MCSINKKTEDDPNK-UHFFFAOYSA-N

> <Salt_Solvent>


> <Salt_Solvent_ID>
0

> <MPID>
98747

> <OH Reference>
KWOK,ESC & ATKINSON,R (1994)

> <OH>
4.020000000000001E-12

> <OH Temperature>
25.0

> <LogOH>
-11.39577394691552

> <Tr_1_Tst_0>
1

$$$$
100187
  Mrv171c012241912032D          

  8  8  0  0  0  0            999 V2000
    1.6500   -2.3653    0.0000 C   0  0  0  0  0  0  0  0  0  0  0  0
    1.6500   -1.5403    0.0000 C   0  0  0  0  0  0  0  0  0  0  0  0
    2.3645   -1.1278    0.0000 C   0  0  0  0  0  0  0  0  0  0  0  0
    2.3645   -0.3028    0.0000 C   0  0  0  0  0  0  0  0  0  0  0  0
    1.6500    0.1097    0.0000 C   0  0  0  0  0  0  0  0  0  0  0  0
    1.6500    0.9347    0.0000 C   0  0  0  0  0  0  0  0  0  0  0  0
    0.9355   -0.3028    0.0000 C   0  0  0  0  0  0  0  0  0  0  0  0
    0.9355   -1.1278    0.0000 C   0  0  0  0  0  0  0  0  0  0  0  0
  1  2  1  0  0  0  0
  3  2  1  0  0  0  0
  4  3  2  0  0  0  0
  5  4  1  0  0  0  0
  5  6  1  0  0  0  0
  7  5  2  0  0  0  0
  8  7  1  0  0  0  0
  2  8  2  0  0  0  0
M  END
> <ChemID>
100187

> <CAS>
106-42-3

> <Original_SMILES>
Cc1ccc(C)cc1

> <preferred_name>
p-Xylene

> <dsstox_substance_id>
DTXSID2021868

> <dsstox_compound_id>
DTXCID701868

> <qc_level>
DSSTox_Low

> <Canonical_QSARr>
CC1C=CC(C)=CC=1

> <InChI_Code_QSARr>
InChI=1S/C8H10/c1-7-3-5-8(2)6-4-7/h3-6H,1-2H3

> <InChI Key_QSARr>
URLKBWYHVLBVBO-UHFFFAOYSA-N

> <Salt_Solvent>


> <Salt_Solvent_ID>
0

> <MPID>
98748

> <OH Reference>
ATKINSON,R (1989)

> <OH>
1.43E-11

> <OH Temperature>
25.0

> <LogOH>
-10.844663962534943

> <Tr_1_Tst_0>
0

$$$$
100189
  Mrv171c012241912032D          

  8  8  0  0  0  0            999 V2000
    1.6500   -2.3653    0.0000 O   0  0  0  0  0  0  0  0  0  0  0  0
    1.6500   -1.5403    0.0000 C   0  0  0  0  0  0  0  0  0  0  0  0
    2.3645   -1.1278    0.0000 C   0  0  0  0  0  0  0  0  0  0  0  0
    2.3645   -0.3028    0.0000 C   0  0  0  0  0  0  0  0  0  0  0  0
    1.6500    0.1097    0.0000 C   0  0  0  0  0  0  0  0  0  0  0  0
    1.6500    0.9347    0.0000 C   0  0  0  0  0  0  0  0  0  0  0  0
    0.9355   -0.3028    0.0000 C   0  0  0  0  0  0  0  0  0  0  0  0
    0.9355   -1.1278    0.0000 C   0  0  0  0  0  0  0  0  0  0  0  0
  1  2  1  0  0  0  0
  3  2  1  0  0  0  0
  4  3  2  0  0  0  0
  5  4  1  0  0  0  0
  5  6  1  0  0  0  0
  7  5  2  0  0  0  0
  8  7  1  0  0  0  0
  2  8  2  0  0  0  0
M  END
> <ChemID>
100189

> <CAS>
106-44-5

> <Original_SMILES>
Cc1ccc(O)cc1

> <preferred_name>
p-Cresol

> <dsstox_substance_id>
DTXSID7021869

> <dsstox_compound_id>
DTXCID101869

> <qc_level>
DSSTox_Low

> <Canonical_QSARr>
CC1=CC=C(O)C=C1

> <InChI_Code_QSARr>
InChI=1S/C7H8O/c1-6-2-4-7(8)5-3-6/h2-5,8H,1H3

> <InChI Key_QSARr>
IWDCLRJOBJJRNH-UHFFFAOYSA-N

> <Salt_Solvent>


> <Salt_Solvent_ID>
0

> <MPID>
98749

> <OH Reference>
ATKINSON,R (1989)

> <OH>
4.700000000000001E-11

> <OH Temperature>
25.0

> <LogOH>
-10.327902142064286

> <Tr_1_Tst_0>
1

$$$$
100190
  Mrv171c012241912032D          

  8  8  0  0  0  0            999 V2000
    1.6500   -2.3653    0.0000 Cl  0  0  0  0  0  0  0  0  0  0  0  0
    1.6500   -1.5403    0.0000 C   0  0  0  0  0  0  0  0  0  0  0  0
    2.3645   -1.1278    0.0000 C   0  0  0  0  0  0  0  0  0  0  0  0
    2.3645   -0.3028    0.0000 C   0  0  0  0  0  0  0  0  0  0  0  0
    1.6500    0.1097    0.0000 C   0  0  0  0  0  0  0  0  0  0  0  0
    1.6500    0.9347    0.0000 Cl  0  0  0  0  0  0  0  0  0  0  0  0
    0.9355   -0.3028    0.0000 C   0  0  0  0  0  0  0  0  0  0  0  0
    0.9355   -1.1278    0.0000 C   0  0  0  0  0  0  0  0  0  0  0  0
  1  2  1  0  0  0  0
  3  2  1  0  0  0  0
  4  3  2  0  0  0  0
  5  4  1  0  0  0  0
  5  6  1  0  0  0  0
  7  5  2  0  0  0  0
  8  7  1  0  0  0  0
  2  8  2  0  0  0  0
M  END
> <ChemID>
100190

> <CAS>
106-46-7

> <Original_SMILES>
Clc1ccc(Cl)cc1

> <preferred_name>
1,4-Dichlorobenzene

> <dsstox_substance_id>
DTXSID1020431

> <dsstox_compound_id>
DTXCID30431

> <qc_level>
DSSTox_Low

> <Canonical_QSARr>
ClC1C=CC(Cl)=CC=1

> <InChI_Code_QSARr>
InChI=1S/C6H4Cl2/c7-5-1-2-6(8)4-3-5/h1-4H

> <InChI Key_QSARr>
OCJBOOLMMGQPQU-UHFFFAOYSA-N

> <Salt_Solvent>


> <Salt_Solvent_ID>
0

> <MPID>
98750

> <OH Reference>
ATKINSON,R (1989)

> <OH>
3.200000000000001E-13

> <OH Temperature>
25.0

> <LogOH>
-12.494850021680088

> <Tr_1_Tst_0>
1

$$$$
100191
  Mrv171c012241912032D          

  8  8  0  0  0  0            999 V2000
    1.6500   -2.3653    0.0000 N   0  0  0  0  0  0  0  0  0  0  0  0
    1.6500   -1.5403    0.0000 C   0  0  0  0  0  0  0  0  0  0  0  0
    2.3645   -1.1278    0.0000 C   0  0  0  0  0  0  0  0  0  0  0  0
    2.3645   -0.3028    0.0000 C   0  0  0  0  0  0  0  0  0  0  0  0
    1.6500    0.1097    0.0000 C   0  0  0  0  0  0  0  0  0  0  0  0
    1.6500    0.9347    0.0000 Cl  0  0  0  0  0  0  0  0  0  0  0  0
    0.9355   -0.3028    0.0000 C   0  0  0  0  0  0  0  0  0  0  0  0
    0.9355   -1.1278    0.0000 C   0  0  0  0  0  0  0  0  0  0  0  0
  1  2  1  0  0  0  0
  3  2  1  0  0  0  0
  4  3  2  0  0  0  0
  5  4  1  0  0  0  0
  5  6  1  0  0  0  0
  7  5  2  0  0  0  0
  8  7  1  0  0  0  0
  2  8  2  0  0  0  0
M  END
> <ChemID>
100191

> <CAS>
106-47-8

> <Original_SMILES>
Nc1ccc(Cl)cc1

> <preferred_name>
4-Chloroaniline

> <dsstox_substance_id>
DTXSID9020295

> <dsstox_compound_id>
DTXCID50295

> <qc_level>
DSSTox_Low

> <Canonical_QSARr>
NC1=CC=C(Cl)C=C1

> <InChI_Code_QSARr>
InChI=1S/C6H6ClN/c7-5-1-3-6(8)4-2-5/h1-4H,8H2

> <InChI Key_QSARr>
QSNSCYSYFYORTR-UHFFFAOYSA-N

> <Salt_Solvent>


> <Salt_Solvent_ID>
0

> <MPID>
98751

> <OH Reference>
ATKINSON,R (1989)

> <OH>
4.300000000000001E-11

> <OH Temperature>
25.0

> <LogOH>
-10.366531544420418

> <Tr_1_Tst_0>
0

$$$$
100192
  Mrv171c012241912032D          

  8  8  0  0  0  0            999 V2000
    1.6500   -2.3653    0.0000 O   0  0  0  0  0  0  0  0  0  0  0  0
    1.6500   -1.5403    0.0000 C   0  0  0  0  0  0  0  0  0  0  0  0
    2.3645   -1.1278    0.0000 C   0  0  0  0  0  0  0  0  0  0  0  0
    2.3645   -0.3028    0.0000 C   0  0  0  0  0  0  0  0  0  0  0  0
    1.6500    0.1097    0.0000 C   0  0  0  0  0  0  0  0  0  0  0  0
    1.6500    0.9347    0.0000 O   0  0  0  0  0  0  0  0  0  0  0  0
    0.9355   -0.3028    0.0000 C   0  0  0  0  0  0  0  0  0  0  0  0
    0.9355   -1.1278    0.0000 C   0  0  0  0  0  0  0  0  0  0  0  0
  1  2  2  0  0  0  0
  3  2  1  0  0  0  0
  4  3  2  0  0  0  0
  5  4  1  0  0  0  0
  5  6  2  0  0  0  0
  7  5  1  0  0  0  0
  8  7  2  0  0  0  0
  2  8  1  0  0  0  0
M  END
> <ChemID>
100192

> <CAS>
106-51-4

> <Original_SMILES>
O=C1C=CC(=O)C=C1

> <preferred_name>
1,4-Benzoquinone

> <dsstox_substance_id>
DTXSID6020145

> <dsstox_compound_id>
DTXCID40145

> <qc_level>
DSSTox_Low

> <Canonical_QSARr>
O=C1C=CC(=O)C=C1

> <InChI_Code_QSARr>
InChI=1S/C6H4O2/c7-5-1-2-6(8)4-3-5/h1-4H

> <InChI Key_QSARr>
AZQWKYJCGOJGHM-UHFFFAOYSA-N

> <Salt_Solvent>


> <Salt_Solvent_ID>
0

> <MPID>
98752

> <OH Reference>
OLARIU,RI ET AL. (2000)

> <OH>
4.6E-12

> <OH Temperature>
27.0

> <LogOH>
-11.337242168318426

> <Tr_1_Tst_0>
1

$$$$
100193
  Mrv171c012241912032D          

 10  9  0  0  0  0            999 V2000
    2.8597   -0.8254    0.0000 C   0  0  0  0  0  0  0  0  0  0  0  0
    2.1452   -1.2379    0.0000 C   0  0  0  0  0  0  0  0  0  0  0  0
    1.4307   -0.8254    0.0000 C   0  0  0  0  0  0  0  0  0  0  0  0
    0.7163   -1.2379    0.0000 C   0  0  0  0  0  0  0  0  0  0  0  0
    0.0018   -0.8254    0.0000 O   0  0  0  0  0  0  0  0  0  0  0  0
   -0.7127   -1.2379    0.0000 C   0  0  0  0  0  0  0  0  0  0  0  0
    0.7163   -2.0629    0.0000 O   0  0  0  0  0  0  0  0  0  0  0  0
    3.5742   -1.2379    0.0000 O   0  0  0  0  0  0  0  0  0  0  0  0
    4.2886   -0.8254    0.0000 C   0  0  0  0  0  0  0  0  0  0  0  0
    2.8597   -0.0004    0.0000 O   0  0  0  0  0  0  0  0  0  0  0  0
  1  2  1  0  0  0  0
  2  3  1  0  0  0  0
  3  4  1  0  0  0  0
  4  5  1  0  0  0  0
  5  6  1  0  0  0  0
  4  7  2  0  0  0  0
  1  8  1  0  0  0  0
  8  9  1  0  0  0  0
  1 10  2  0  0  0  0
M  END
> <ChemID>
100193

> <CAS>
106-65-0

> <Original_SMILES>
COC(=O)CCC(=O)OC

> <preferred_name>
Dimethyl succinate

> <dsstox_substance_id>
DTXSID5025152

> <dsstox_compound_id>
DTXCID005152

> <qc_level>
DSSTox_Low

> <Canonical_QSARr>
COC(=O)CCC(=O)OC

> <InChI_Code_QSARr>
InChI=1S/C6H10O4/c1-9-5(7)3-4-6(8)10-2/h3-4H2,1-2H3

> <InChI Key_QSARr>
MUXOBHXGJLMRAB-UHFFFAOYSA-N

> <Salt_Solvent>


> <Salt_Solvent_ID>
0

> <MPID>
98753

> <OH Reference>
ASCHMANN,SM & ATKINSON,R (1998)

> <OH>
1.4E-12

> <OH Temperature>
25.0

> <LogOH>
-11.853871964321746

> <Tr_1_Tst_0>
1

$$$$
100194
  Mrv171c012241912032D          

  5  5  0  0  0  0            999 V2000
    1.8193    0.4567    0.0000 C   0  0  0  0  0  0  0  0  0  0  0  0
    1.1049    0.0442    0.0000 C   0  0  0  0  0  0  0  0  0  0  0  0
    1.1049   -0.7808    0.0000 C   0  0  0  0  0  0  0  0  0  0  0  0
    0.6924   -1.4953    0.0000 O   0  0  0  0  0  0  0  0  0  0  0  0
    1.5174   -1.4953    0.0000 C   0  0  0  0  0  0  0  0  0  0  0  0
  1  2  1  0  0  0  0
  2  3  1  0  0  0  0
  4  3  1  0  0  0  0
  5  4  1  0  0  0  0
  3  5  1  0  0  0  0
M  END
> <ChemID>
100194

> <CAS>
106-88-7

> <Original_SMILES>
CCC1CO1

> <preferred_name>
1,2-Epoxybutane

> <dsstox_substance_id>
DTXSID6020569

> <dsstox_compound_id>
DTXCID40569

> <qc_level>
DSSTox_Low

> <Canonical_QSARr>
CCC1CO1

> <InChI_Code_QSARr>
InChI=1S/C4H8O/c1-2-4-3-5-4/h4H,2-3H2,1H3

> <InChI Key_QSARr>
RBACIKXCRWGCBB-UHFFFAOYSA-N

> <Salt_Solvent>


> <Salt_Solvent_ID>
0

> <MPID>
98754

> <OH Reference>
KWOK,ESC & ATKINSON,R (1994)

> <OH>
1.909999999999999E-12

> <OH Temperature>
25.0

> <LogOH>
-11.718966632752267

> <Tr_1_Tst_0>
1

$$$$
100195
  Mrv171c012241912032D          

  5  5  0  0  0  0            999 V2000
    1.8193    0.4567    0.0000 Cl  0  0  0  0  0  0  0  0  0  0  0  0
    1.1049    0.0442    0.0000 C   0  0  0  0  0  0  0  0  0  0  0  0
    1.1049   -0.7808    0.0000 C   0  0  0  0  0  0  0  0  0  0  0  0
    0.6924   -1.4953    0.0000 O   0  0  0  0  0  0  0  0  0  0  0  0
    1.5174   -1.4953    0.0000 C   0  0  0  0  0  0  0  0  0  0  0  0
  1  2  1  0  0  0  0
  2  3  1  0  0  0  0
  4  3  1  0  0  0  0
  5  4  1  0  0  0  0
  3  5  1  0  0  0  0
M  END
> <ChemID>
100195

> <CAS>
106-89-8

> <Original_SMILES>
ClCC1CO1

> <preferred_name>
Epichlorohydrin

> <dsstox_substance_id>
DTXSID1020566

> <dsstox_compound_id>
DTXCID50566

> <qc_level>
DSSTox_High

> <Canonical_QSARr>
ClCC1CO1

> <InChI_Code_QSARr>
InChI=1S/C3H5ClO/c4-1-3-2-5-3/h3H,1-2H2

> <InChI Key_QSARr>
BRLQWZUYTZBJKN-UHFFFAOYSA-N

> <Salt_Solvent>


> <Salt_Solvent_ID>
0

> <MPID>
98755

> <OH Reference>
ATKINSON,R (1989)

> <OH>
4.4E-13

> <OH Temperature>
25.0

> <LogOH>
-12.356547323513821

> <Tr_1_Tst_0>
0

$$$$
100196
  Mrv171c012241912032D          

  4  3  0  0  0  0            999 V2000
    2.1020   -0.5628    0.0000 Br  0  0  0  0  0  0  0  0  0  0  0  0
    1.2770   -0.5628    0.0000 C   0  0  0  0  0  0  0  0  0  0  0  0
    0.8645    0.1517    0.0000 C   0  0  0  0  0  0  0  0  0  0  0  0
    0.0395    0.1517    0.0000 Br  0  0  0  0  0  0  0  0  0  0  0  0
  1  2  1  0  0  0  0
  2  3  1  0  0  0  0
  3  4  1  0  0  0  0
M  END
> <ChemID>
100196

> <CAS>
106-93-4

> <Original_SMILES>
BrCCBr

> <preferred_name>
1,2-Dibromoethane

> <dsstox_substance_id>
DTXSID3020415

> <dsstox_compound_id>
DTXCID10415

> <qc_level>
DSSTox_Low

> <Canonical_QSARr>
BrCCBr

> <InChI_Code_QSARr>
InChI=1S/C2H4Br2/c3-1-2-4/h1-2H2

> <InChI Key_QSARr>
PAAZPARNPHGIKF-UHFFFAOYSA-N

> <Salt_Solvent>


> <Salt_Solvent_ID>
0

> <MPID>
98756

> <OH Reference>
ATKINSON,R (1989)

> <OH>
2.500000000000001E-13

> <OH Temperature>
25.0

> <LogOH>
-12.602059991327945

> <Tr_1_Tst_0>
1

$$$$
100197
  Mrv171c012241912032D          

  4  3  0  0  0  0            999 V2000
    2.1043   -0.5633    0.0000 Br  0  0  0  0  0  0  0  0  0  0  0  0
    1.2793   -0.5633    0.0000 C   0  0  0  0  0  0  0  0  0  0  0  0
    0.8668    0.1512    0.0000 C   0  0  0  0  0  0  0  0  0  0  0  0
    0.0418    0.1512    0.0000 C   0  0  0  0  0  0  0  0  0  0  0  0
  1  2  1  0  0  0  0
  2  3  1  0  0  0  0
  3  4  1  0  0  0  0
M  END
> <ChemID>
100197

> <CAS>
106-94-5

> <Original_SMILES>
CCCBr

> <preferred_name>
1-Bromopropane

> <dsstox_substance_id>
DTXSID6021874

> <dsstox_compound_id>
DTXCID401874

> <qc_level>
DSSTox_Low

> <Canonical_QSARr>
CCCBr

> <InChI_Code_QSARr>
InChI=1S/C3H7Br/c1-2-3-4/h2-3H2,1H3

> <InChI Key_QSARr>
CYNYIHKIEHGYOZ-UHFFFAOYSA-N

> <Salt_Solvent>


> <Salt_Solvent_ID>
0

> <MPID>
98757

> <OH Reference>
DONAGHY,T ET AL. (1993)

> <OH>
1.18E-12

> <OH Temperature>
25.0

> <LogOH>
-11.928117992693885

> <Tr_1_Tst_0>
1

$$$$
100199
  Mrv171c012241912032D          

  4  3  0  0  0  0            999 V2000
    1.2793   -0.5633    0.0000 C   0  0  0  0  0  0  0  0  0  0  0  0
    2.1043   -0.5633    0.0000 C   0  0  0  0  0  0  0  0  0  0  0  0
    0.8668    0.1512    0.0000 C   0  0  0  0  0  0  0  0  0  0  0  0
    0.0418    0.1512    0.0000 C   0  0  0  0  0  0  0  0  0  0  0  0
  1  2  1  0  0  0  0
  1  3  1  0  0  0  0
  3  4  1  0  0  0  0
M  END
> <ChemID>
100199

> <CAS>
106-97-8

> <Original_SMILES>
CCCC

> <preferred_name>
Butane

> <dsstox_substance_id>
DTXSID7024665

> <dsstox_compound_id>
DTXCID404665

> <qc_level>
DSSTox_Low

> <Canonical_QSARr>
CCCC

> <InChI_Code_QSARr>
InChI=1S/C4H10/c1-3-4-2/h3-4H2,1-2H3

> <InChI Key_QSARr>
IJDNQMDRQITEOD-UHFFFAOYSA-N

> <Salt_Solvent>


> <Salt_Solvent_ID>
0

> <MPID>
98758

> <OH Reference>
ATKINSON,R (1989)

> <OH>
2.540000000000001E-12

> <OH Temperature>
25.0

> <LogOH>
-11.59516628338006

> <Tr_1_Tst_0>
0

$$$$
100200
  Mrv171c012241912032D          

  4  3  0  0  0  0            999 V2000
    2.0954   -0.5648    0.0000 C   0  0  0  0  0  0  0  0  0  0  0  0
    1.2704   -0.5648    0.0000 C   0  0  0  0  0  0  0  0  0  0  0  0
    0.8579    0.1497    0.0000 C   0  0  0  0  0  0  0  0  0  0  0  0
    0.0329    0.1497    0.0000 C   0  0  0  0  0  0  0  0  0  0  0  0
  1  2  2  0  0  0  0
  2  3  1  0  0  0  0
  3  4  1  0  0  0  0
M  END
> <ChemID>
100200

> <CAS>
106-98-9

> <Original_SMILES>
CCC=C

> <preferred_name>
1-Butene

> <dsstox_substance_id>
DTXSID1026746

> <dsstox_compound_id>
DTXCID606746

> <qc_level>
DSSTox_Low

> <Canonical_QSARr>
CCC=C

> <InChI_Code_QSARr>
InChI=1S/C4H8/c1-3-4-2/h3H,1,4H2,2H3

> <InChI Key_QSARr>
VXNZUUAINFGPBY-UHFFFAOYSA-N

> <Salt_Solvent>


> <Salt_Solvent_ID>
0

> <MPID>
98759

> <OH Reference>
KWOK,ESC & ATKINSON,R (1994)

> <OH>
3.139999999999999E-11

> <OH Temperature>
25.0

> <LogOH>
-10.503070351926766

> <Tr_1_Tst_0>
1

$$$$
100201
  Mrv171c012241912032D          

  4  3  0  0  0  0            999 V2000
    2.1043   -0.5633    0.0000 C   0  0  0  0  0  0  0  0  0  0  0  0
    1.2793   -0.5633    0.0000 C   0  0  0  0  0  0  0  0  0  0  0  0
    0.8668    0.1512    0.0000 C   0  0  0  0  0  0  0  0  0  0  0  0
    0.0418    0.1512    0.0000 C   0  0  0  0  0  0  0  0  0  0  0  0
  1  2  2  0  0  0  0
  2  3  1  0  0  0  0
  3  4  2  0  0  0  0
M  END
> <ChemID>
100201

> <CAS>
106-99-0

> <Original_SMILES>
C=CC=C

> <preferred_name>
1,3-Butadiene

> <dsstox_substance_id>
DTXSID3020203

> <dsstox_compound_id>
DTXCID10203

> <qc_level>
DSSTox_Low

> <Canonical_QSARr>
C=CC=C

> <InChI_Code_QSARr>
InChI=1S/C4H6/c1-3-4-2/h3-4H,1-2H2

> <InChI Key_QSARr>
KAKZBPTYRLMSJV-UHFFFAOYSA-N

> <Salt_Solvent>


> <Salt_Solvent_ID>
0

> <MPID>
98760

> <OH Reference>
ATKINSON,R (1989)

> <OH>
6.659999999999997E-11

> <OH Temperature>
25.0

> <LogOH>
-10.176525770829695

> <Tr_1_Tst_0>
1

$$$$
100202
  Mrv171c012241912032D          

  4  3  0  0  0  0            999 V2000
    1.7922   -1.1007    0.0000 C   0  0  0  0  0  0  0  0  0  0  0  0
    1.3797   -0.3863    0.0000 C   0  0  0  0  0  0  0  0  0  0  0  0
    0.9672    0.3282    0.0000 C   0  0  0  0  0  0  0  0  0  0  0  0
    0.1422    0.3282    0.0000 C   0  0  0  0  0  0  0  0  0  0  0  0
  1  2  3  0  0  0  0
  2  3  1  0  0  0  0
  3  4  1  0  0  0  0
M  END
> <ChemID>
100202

> <CAS>
107-00-6

> <Original_SMILES>
CCC#C

> <preferred_name>
1-Butyne

> <dsstox_substance_id>
DTXSID4029141

> <dsstox_compound_id>
DTXCID709141

> <qc_level>
DSSTox_Low

> <Canonical_QSARr>
CCC#C

> <InChI_Code_QSARr>
InChI=1S/C4H6/c1-3-4-2/h1H,4H2,2H3

> <InChI Key_QSARr>
KDKYADYSIPSCCQ-UHFFFAOYSA-N

> <Salt_Solvent>


> <Salt_Solvent_ID>
0

> <MPID>
98761

> <OH Reference>
ATKINSON,R (1989)

> <OH>
8.000000000000001E-12

> <OH Temperature>
25.0

> <LogOH>
-11.09691001300805

> <Tr_1_Tst_0>
1

$$$$
100203
  Mrv171c012241912032D          

  4  3  0  0  0  0            999 V2000
    2.1042   -0.5633    0.0000 C   0  0  0  0  0  0  0  0  0  0  0  0
    1.2792   -0.5633    0.0000 C   0  0  0  0  0  0  0  0  0  0  0  0
    0.8667    0.1512    0.0000 C   0  0  0  0  0  0  0  0  0  0  0  0
    0.0417    0.1512    0.0000 O   0  0  0  0  0  0  0  0  0  0  0  0
  1  2  2  0  0  0  0
  2  3  1  0  0  0  0
  3  4  2  0  0  0  0
M  END
> <ChemID>
100203

> <CAS>
107-02-8

> <Original_SMILES>
C=CC=O

> <preferred_name>
Acrolein

> <dsstox_substance_id>
DTXSID5020023

> <dsstox_compound_id>
DTXCID8023

> <qc_level>
DSSTox_Low

> <Canonical_QSARr>
C=CC=O

> <InChI_Code_QSARr>
InChI=1S/C3H4O/c1-2-3-4/h2-3H,1H2

> <InChI Key_QSARr>
HGINCPLSRVDWNT-UHFFFAOYSA-N

> <Salt_Solvent>


> <Salt_Solvent_ID>
0

> <MPID>
98762

> <OH Reference>
ATKINSON,R (1989)

> <OH>
1.990000000000001E-11

> <OH Temperature>
25.0

> <LogOH>
-10.701146923590292

> <Tr_1_Tst_0>
0

$$$$
100204
  Mrv171c012241912032D          

  4  3  0  0  0  0            999 V2000
    1.2349   -0.7152    0.0000 C   0  0  0  0  0  0  0  0  0  0  0  0
    2.0599   -0.7152    0.0000 S   0  0  0  0  0  0  0  0  0  0  0  0
    0.8224   -0.0007    0.0000 C   0  0  0  0  0  0  0  0  0  0  0  0
   -0.0026   -0.0007    0.0000 C   0  0  0  0  0  0  0  0  0  0  0  0
  1  2  1  0  0  0  0
  1  3  1  0  0  0  0
  3  4  1  0  0  0  0
M  END
> <ChemID>
100204

> <CAS>
107-03-9

> <Original_SMILES>
CCCS

> <preferred_name>
1-Propanethiol

> <dsstox_substance_id>
DTXSID5026750

> <dsstox_compound_id>
DTXCID506750

> <qc_level>
DSSTox_Low

> <Canonical_QSARr>
CCCS

> <InChI_Code_QSARr>
InChI=1S/C3H8S/c1-2-3-4/h4H,2-3H2,1H3

> <InChI Key_QSARr>
SUVIGLJNEAMWEG-UHFFFAOYSA-N

> <Salt_Solvent>


> <Salt_Solvent_ID>
0

> <MPID>
98763

> <OH Reference>
ATKINSON,R (1989)

> <OH>
4.829999999999998E-11

> <OH Temperature>
25.0

> <LogOH>
-10.316052869248479

> <Tr_1_Tst_0>
1

$$$$
100205
  Mrv171c012241912032D          

  4  3  0  0  0  0            999 V2000
    2.1042   -0.5633    0.0000 C   0  0  0  0  0  0  0  0  0  0  0  0
    1.2792   -0.5633    0.0000 C   0  0  0  0  0  0  0  0  0  0  0  0
    0.8667    0.1512    0.0000 C   0  0  0  0  0  0  0  0  0  0  0  0
    0.0417    0.1512    0.0000 Cl  0  0  0  0  0  0  0  0  0  0  0  0
  1  2  2  0  0  0  0
  2  3  1  0  0  0  0
  3  4  1  0  0  0  0
M  END
> <ChemID>
100205

> <CAS>
107-05-1

> <Original_SMILES>
C=CCCl

> <preferred_name>
Allyl chloride

> <dsstox_substance_id>
DTXSID4039231

> <dsstox_compound_id>
DTXCID4045

> <qc_level>
DSSTox_Low

> <Canonical_QSARr>
C=CCCl

> <InChI_Code_QSARr>
InChI=1S/C3H5Cl/c1-2-3-4/h2H,1,3H2

> <InChI Key_QSARr>
OSDWBNJEKMUWAV-UHFFFAOYSA-N

> <Salt_Solvent>


> <Salt_Solvent_ID>
0

> <MPID>
98764

> <OH Reference>
ATKINSON,R (1989)

> <OH>
1.7E-11

> <OH Temperature>
25.0

> <LogOH>
-10.769551078621712

> <Tr_1_Tst_0>
1

$$$$
100206
  Mrv171c012241912032D          

  4  3  0  0  0  0            999 V2000
    2.1020   -0.5628    0.0000 Cl  0  0  0  0  0  0  0  0  0  0  0  0
    1.2770   -0.5628    0.0000 C   0  0  0  0  0  0  0  0  0  0  0  0
    0.8645    0.1517    0.0000 C   0  0  0  0  0  0  0  0  0  0  0  0
    0.0395    0.1517    0.0000 Cl  0  0  0  0  0  0  0  0  0  0  0  0
  1  2  1  0  0  0  0
  2  3  1  0  0  0  0
  3  4  1  0  0  0  0
M  END
> <ChemID>
100206

> <CAS>
107-06-2

> <Original_SMILES>
ClCCCl

> <preferred_name>
1,2-Dichloroethane

> <dsstox_substance_id>
DTXSID6020438

> <dsstox_compound_id>
DTXCID40438

> <qc_level>
DSSTox_High

> <Canonical_QSARr>
ClCCCl

> <InChI_Code_QSARr>
InChI=1S/C2H4Cl2/c3-1-2-4/h1-2H2

> <InChI Key_QSARr>
WSLDOOZREJYCGB-UHFFFAOYSA-N

> <Salt_Solvent>


> <Salt_Solvent_ID>
0

> <MPID>
98765

> <OH Reference>
KWOK,ESC & ATKINSON,R (1994)

> <OH>
2.48E-13

> <OH Temperature>
25.0

> <LogOH>
-12.605548319173781

> <Tr_1_Tst_0>
1

$$$$
100207
  Mrv171c012241912032D          

  4  3  0  0  0  0            999 V2000
    2.1020   -0.5628    0.0000 Cl  0  0  0  0  0  0  0  0  0  0  0  0
    1.2770   -0.5628    0.0000 C   0  0  0  0  0  0  0  0  0  0  0  0
    0.8645    0.1517    0.0000 C   0  0  0  0  0  0  0  0  0  0  0  0
    0.0395    0.1517    0.0000 O   0  0  0  0  0  0  0  0  0  0  0  0
  1  2  1  0  0  0  0
  2  3  1  0  0  0  0
  3  4  1  0  0  0  0
M  END
> <ChemID>
100207

> <CAS>
107-07-3

> <Original_SMILES>
OCCCl

> <preferred_name>
2-Chloroethanol

> <dsstox_substance_id>
DTXSID1021877

> <dsstox_compound_id>
DTXCID601877

> <qc_level>
DSSTox_Low

> <Canonical_QSARr>
OCCCl

> <InChI_Code_QSARr>
InChI=1S/C2H5ClO/c3-1-2-4/h4H,1-2H2

> <InChI Key_QSARr>
SZIFAVKTNFCBPC-UHFFFAOYSA-N

> <Salt_Solvent>


> <Salt_Solvent_ID>
0

> <MPID>
98766

> <OH Reference>
ATKINSON,R (1989)

> <OH>
1.4E-12

> <OH Temperature>
25.0

> <LogOH>
-11.853871964321746

> <Tr_1_Tst_0>
0

$$$$
100208
  Mrv171c012241912032D          

  4  3  0  0  0  0            999 V2000
    1.8563   -1.0711    0.0000 C   0  0  0  0  0  0  0  0  0  0  0  0
    1.4438   -0.3566    0.0000 C   0  0  0  0  0  0  0  0  0  0  0  0
    0.6188   -0.3566    0.0000 C   0  0  0  0  0  0  0  0  0  0  0  0
   -0.2062   -0.3566    0.0000 N   0  0  0  0  0  0  0  0  0  0  0  0
  1  2  1  0  0  0  0
  2  3  1  0  0  0  0
  3  4  3  0  0  0  0
M  END
> <ChemID>
100208

> <CAS>
107-12-0

> <Original_SMILES>
CCC#N

> <preferred_name>
Propionitrile

> <dsstox_substance_id>
DTXSID1021879

> <dsstox_compound_id>
DTXCID401879

> <qc_level>
DSSTox_Low

> <Canonical_QSARr>
CCC#N

> <InChI_Code_QSARr>
InChI=1S/C3H5N/c1-2-3-4/h2H2,1H3

> <InChI Key_QSARr>
FVSKHRXBFJPNKK-UHFFFAOYSA-N

> <Salt_Solvent>


> <Salt_Solvent_ID>
0

> <MPID>
98767

> <OH Reference>
KWOK,ESC & ATKINSON,R (1994)

> <OH>
1.94E-13

> <OH Temperature>
25.0

> <LogOH>
-12.712198270069791

> <Tr_1_Tst_0>
1

$$$$
100209
  Mrv171c012241912032D          

  4  3  0  0  0  0            999 V2000
    1.8563   -1.0711    0.0000 C   0  0  0  0  0  0  0  0  0  0  0  0
    1.4438   -0.3566    0.0000 C   0  0  0  0  0  0  0  0  0  0  0  0
    0.6188   -0.3566    0.0000 C   0  0  0  0  0  0  0  0  0  0  0  0
   -0.2062   -0.3566    0.0000 N   0  0  0  0  0  0  0  0  0  0  0  0
  1  2  2  0  0  0  0
  2  3  1  0  0  0  0
  3  4  3  0  0  0  0
M  END
> <ChemID>
100209

> <CAS>
107-13-1

> <Original_SMILES>
C=CC#N

> <preferred_name>
Acrylonitrile

> <dsstox_substance_id>
DTXSID5020029

> <dsstox_compound_id>
DTXCID0029

> <qc_level>
DSSTox_Low

> <Canonical_QSARr>
C=CC#N

> <InChI_Code_QSARr>
InChI=1S/C3H3N/c1-2-3-4/h2H,1H2

> <InChI Key_QSARr>
NLHHRLWOUZZQLW-UHFFFAOYSA-N

> <Salt_Solvent>


> <Salt_Solvent_ID>
0

> <MPID>
98768

> <OH Reference>
KWOK,ESC & ATKINSON,R (1994)

> <OH>
4.099999999999999E-12

> <OH Temperature>
25.0

> <LogOH>
-11.38721614328027

> <Tr_1_Tst_0>
1

$$$$
100210
  Mrv171c012241912032D          

  4  3  0  0  0  0            999 V2000
    2.1042   -0.5633    0.0000 C   0  0  0  0  0  0  0  0  0  0  0  0
    1.2792   -0.5633    0.0000 C   0  0  0  0  0  0  0  0  0  0  0  0
    0.8667    0.1512    0.0000 C   0  0  0  0  0  0  0  0  0  0  0  0
    0.0417    0.1512    0.0000 O   0  0  0  0  0  0  0  0  0  0  0  0
  1  2  2  0  0  0  0
  2  3  1  0  0  0  0
  3  4  1  0  0  0  0
M  END
> <ChemID>
100210

> <CAS>
107-18-6

> <Original_SMILES>
C=CCO

> <preferred_name>
Allyl alcohol

> <dsstox_substance_id>
DTXSID8020044

> <dsstox_compound_id>
DTXCID2044

> <qc_level>
DSSTox_Low

> <Canonical_QSARr>
C=CCO

> <InChI_Code_QSARr>
InChI=1S/C3H6O/c1-2-3-4/h2,4H,1,3H2

> <InChI Key_QSARr>
XXROGKLTLUQVRX-UHFFFAOYSA-N

> <Salt_Solvent>


> <Salt_Solvent_ID>
0

> <MPID>
98769

> <OH Reference>
ATKINSON,R (1989)

> <OH>
2.589999999999999E-11

> <OH Temperature>
25.0

> <LogOH>
-10.586700235918766

> <Tr_1_Tst_0>
1

$$$$
100211
  Mrv171c012241912032D          

  4  3  0  0  0  0            999 V2000
    2.1020   -0.5628    0.0000 O   0  0  0  0  0  0  0  0  0  0  0  0
    1.2770   -0.5628    0.0000 C   0  0  0  0  0  0  0  0  0  0  0  0
    0.8645    0.1517    0.0000 C   0  0  0  0  0  0  0  0  0  0  0  0
    0.0395    0.1517    0.0000 Cl  0  0  0  0  0  0  0  0  0  0  0  0
  1  2  2  0  0  0  0
  2  3  1  0  0  0  0
  3  4  1  0  0  0  0
M  END
> <ChemID>
100211

> <CAS>
107-20-0

> <Original_SMILES>
O=CCCl

> <preferred_name>
Chloroacetaldehyde

> <dsstox_substance_id>
DTXSID4020292

> <dsstox_compound_id>
DTXCID60292

> <qc_level>
DSSTox_Low

> <Canonical_QSARr>
O=CCCl

> <InChI_Code_QSARr>
InChI=1S/C2H3ClO/c3-1-2-4/h2H,1H2

> <InChI Key_QSARr>
QSKPIOLLBIHNAC-UHFFFAOYSA-N

> <Salt_Solvent>


> <Salt_Solvent_ID>
0

> <MPID>
98770

> <OH Reference>
SCOLLARD,DJ ET AL. (1993)

> <OH>
3.1E-12

> <OH Temperature>
25.0

> <LogOH>
-11.508638306165748

> <Tr_1_Tst_0>
0

$$$$
100212
  Mrv171c012241912032D          

  4  3  0  0  0  0            999 V2000
    1.2770   -0.5628    0.0000 C   0  0  0  0  0  0  0  0  0  0  0  0
    2.1020   -0.5628    0.0000 O   0  0  0  0  0  0  0  0  0  0  0  0
    0.8645    0.1517    0.0000 C   0  0  0  0  0  0  0  0  0  0  0  0
    0.0395    0.1517    0.0000 O   0  0  0  0  0  0  0  0  0  0  0  0
  1  2  1  0  0  0  0
  1  3  1  0  0  0  0
  3  4  1  0  0  0  0
M  END
> <ChemID>
100212

> <CAS>
107-21-1

> <Original_SMILES>
OCCO

> <preferred_name>
Ethylene glycol

> <dsstox_substance_id>
DTXSID8020597

> <dsstox_compound_id>
DTXCID40597

> <qc_level>
DSSTox_High

> <Canonical_QSARr>
OCCO

> <InChI_Code_QSARr>
InChI=1S/C2H6O2/c3-1-2-4/h3-4H,1-2H2

> <InChI Key_QSARr>
LYCAIKOWRPUZTN-UHFFFAOYSA-N

> <Salt_Solvent>


> <Salt_Solvent_ID>
0

> <MPID>
98771

> <OH Reference>
ATKINSON,R (1989)

> <OH>
7.7E-12

> <OH Temperature>
25.0

> <LogOH>
-11.113509274827512

> <Tr_1_Tst_0>
1

$$$$
100213
  Mrv171c012241912032D          

  4  3  0  0  0  0            999 V2000
    2.1020   -0.5628    0.0000 O   0  0  0  0  0  0  0  0  0  0  0  0
    1.2770   -0.5628    0.0000 C   0  0  0  0  0  0  0  0  0  0  0  0
    0.8645    0.1517    0.0000 C   0  0  0  0  0  0  0  0  0  0  0  0
    0.0395    0.1517    0.0000 O   0  0  0  0  0  0  0  0  0  0  0  0
  1  2  2  0  0  0  0
  2  3  1  0  0  0  0
  3  4  2  0  0  0  0
M  END
> <ChemID>
100213

> <CAS>
107-22-2

> <Original_SMILES>
O=CC=O

> <preferred_name>
Glyoxal

> <dsstox_substance_id>
DTXSID5025364

> <dsstox_compound_id>
DTXCID505364

> <qc_level>
DSSTox_Low

> <Canonical_QSARr>
O=CC=O

> <InChI_Code_QSARr>
InChI=1S/C2H2O2/c3-1-2-4/h1-2H

> <InChI Key_QSARr>
LEQAOMBKQFMDFZ-UHFFFAOYSA-N

> <Salt_Solvent>


> <Salt_Solvent_ID>
0

> <MPID>
98772

> <OH Reference>
ATKINSON,R (1989)

> <OH>
1.14E-11

> <OH Temperature>
25.0

> <LogOH>
-10.943095148663527

> <Tr_1_Tst_0>
1

$$$$
100214
  Mrv171c012241912032D          

  4  3  0  0  0  0            999 V2000
    0.6208   -0.3557    0.0000 C   0  0  0  0  0  0  0  0  0  0  0  0
    1.0333   -1.0701    0.0000 O   0  0  0  0  0  0  0  0  0  0  0  0
    1.8583   -1.0701    0.0000 C   0  0  0  0  0  0  0  0  0  0  0  0
   -0.2042   -0.3557    0.0000 C   0  0  0  0  0  0  0  0  0  0  0  0
  1  2  1  0  0  0  0
  2  3  1  0  0  0  0
  1  4  2  0  0  0  0
M  END
> <ChemID>
100214

> <CAS>
107-25-5

> <Original_SMILES>
COC=C

> <preferred_name>
Methoxyethene

> <dsstox_substance_id>
DTXSID4026761

> <dsstox_compound_id>
DTXCID206761

> <qc_level>
DSSTox_Low

> <Canonical_QSARr>
COC=C

> <InChI_Code_QSARr>
InChI=1S/C3H6O/c1-3-4-2/h3H,1H2,2H3

> <InChI Key_QSARr>
XJRBAMWJDBPFIM-UHFFFAOYSA-N

> <Salt_Solvent>


> <Salt_Solvent_ID>
0

> <MPID>
98773

> <OH Reference>
ATKINSON,R (1989)

> <OH>
3.349999999999999E-11

> <OH Temperature>
26.0

> <LogOH>
-10.474955192963142

> <Tr_1_Tst_0>
1

$$$$
100215
  Mrv171c012241912032D          

  4  3  0  0  0  0            999 V2000
    1.2375    0.7145    0.0000 C   0  0  0  0  0  0  0  0  0  0  0  0
    0.8250    0.0000    0.0000 C   0  0  0  0  0  0  0  0  0  0  0  0
    0.0000    0.0000    0.0000 N   0  0  0  0  0  0  0  0  0  0  0  0
   -0.4125   -0.7145    0.0000 O   0  0  0  0  0  0  0  0  0  0  0  0
  2  1  1  4  0  0  0
  2  3  2  0  0  0  0
  3  4  1  0  0  0  0
M  END
> <ChemID>
100215

> <CAS>
107-29-9

> <Original_SMILES>
C/C=N/O

> <preferred_name>
Acetaldehyde oxime

> <dsstox_substance_id>
DTXSID2020004

> <dsstox_compound_id>
DTXCID901474392

> <qc_level>
DSSTox_Low

> <Canonical_QSARr>
CC=NO

> <InChI_Code_QSARr>
InChI=1S/C2H5NO/c1-2-3-4/h2,4H,1H3

> <InChI Key_QSARr>
FZENGILVLUJGJX-UHFFFAOYSA-N

> <Salt_Solvent>


> <Salt_Solvent_ID>
0

> <MPID>
98774

> <OH Reference>
ATKINSON,R (1989)

> <OH>
2.2E-12

> <OH Temperature>
25.0

> <LogOH>
-11.657577319177802

> <Tr_1_Tst_0>
0

$$$$
100216
  Mrv171c012241912032D          

  4  3  0  0  0  0            999 V2000
    2.1043   -0.5633    0.0000 O   0  0  0  0  0  0  0  0  0  0  0  0
    1.2793   -0.5633    0.0000 C   0  0  0  0  0  0  0  0  0  0  0  0
    0.8668    0.1512    0.0000 O   0  0  0  0  0  0  0  0  0  0  0  0
    0.0418    0.1512    0.0000 C   0  0  0  0  0  0  0  0  0  0  0  0
  1  2  2  0  0  0  0
  2  3  1  0  0  0  0
  3  4  1  0  0  0  0
M  END
> <ChemID>
100216

> <CAS>
107-31-3

> <Original_SMILES>
COC=O

> <preferred_name>
Methyl formate

> <dsstox_substance_id>
DTXSID5025609

> <dsstox_compound_id>
DTXCID305609

> <qc_level>
DSSTox_Low

> <Canonical_QSARr>
COC=O

> <InChI_Code_QSARr>
InChI=1S/C2H4O2/c1-4-2-3/h2H,1H3

> <InChI Key_QSARr>
TZIHFWKZFHZASV-UHFFFAOYSA-N

> <Salt_Solvent>


> <Salt_Solvent_ID>
0

> <MPID>
98775

> <OH Reference>
KWOK,ESC & ATKINSON,R (1994)

> <OH>
2.270000000000001E-13

> <OH Temperature>
25.0

> <LogOH>
-12.643974142806885

> <Tr_1_Tst_0>
1

$$$$
100218
  Mrv171c012241912032D          

  9  8  0  0  0  0            999 V2000
    1.1160   -1.6030    0.0000 Si  0  0  0  0  0  0  0  0  0  0  0  0
    0.4015   -2.0155    0.0000 C   0  0  0  0  0  0  0  0  0  0  0  0
    1.5285   -2.3175    0.0000 C   0  0  0  0  0  0  0  0  0  0  0  0
    0.7035   -0.8886    0.0000 C   0  0  0  0  0  0  0  0  0  0  0  0
    1.8304   -1.1905    0.0000 O   0  0  0  0  0  0  0  0  0  0  0  0
    1.8304   -0.3655    0.0000 Si  0  0  0  0  0  0  0  0  0  0  0  0
    1.8304    0.4595    0.0000 C   0  0  0  0  0  0  0  0  0  0  0  0
    2.6554   -0.3655    0.0000 C   0  0  0  0  0  0  0  0  0  0  0  0
    1.0054   -0.3655    0.0000 C   0  0  0  0  0  0  0  0  0  0  0  0
  1  2  1  0  0  0  0
  1  3  1  0  0  0  0
  1  4  1  0  0  0  0
  1  5  1  0  0  0  0
  5  6  1  0  0  0  0
  6  7  1  0  0  0  0
  6  8  1  0  0  0  0
  6  9  1  0  0  0  0
M  END
> <ChemID>
100218

> <CAS>
107-46-0

> <Original_SMILES>
C[Si](C)(C)O[Si](C)(C)C

> <preferred_name>
Hexamethyldisiloxane

> <dsstox_substance_id>
DTXSID4026769

> <dsstox_compound_id>
DTXCID406769

> <qc_level>
DSSTox_Low

> <Canonical_QSARr>
C[Si](C)(C)O[Si](C)(C)C

> <InChI_Code_QSARr>
InChI=1S/C6H18OSi2/c1-8(2,3)7-9(4,5)6/h1-6H3

> <InChI Key_QSARr>
UQEAIHBTYFGYIE-UHFFFAOYSA-N

> <Salt_Solvent>


> <Salt_Solvent_ID>
0

> <MPID>
98776

> <OH Reference>
ATKINSON,R (1991)

> <OH>
1.38E-12

> <OH Temperature>
24.0

> <LogOH>
-11.860120913598747

> <Tr_1_Tst_0>
1

$$$$
100219
  Mrv171c012241912032D          

  6  5  0  0  0  0            999 V2000
    2.2721   -1.2949    0.0000 C   0  0  0  0  0  0  0  0  0  0  0  0
    1.8596   -0.5805    0.0000 C   0  0  0  0  0  0  0  0  0  0  0  0
    2.2721    0.1340    0.0000 C   0  0  0  0  0  0  0  0  0  0  0  0
    1.0346   -0.5805    0.0000 C   0  0  0  0  0  0  0  0  0  0  0  0
    0.6221    0.1340    0.0000 C   0  0  0  0  0  0  0  0  0  0  0  0
   -0.2029    0.1340    0.0000 C   0  0  0  0  0  0  0  0  0  0  0  0
  1  2  1  0  0  0  0
  2  3  1  0  0  0  0
  2  4  1  0  0  0  0
  4  5  1  0  0  0  0
  5  6  1  0  0  0  0
M  END
> <ChemID>
100219

> <CAS>
107-83-5

> <Original_SMILES>
CCCC(C)C

> <preferred_name>
2-Methylpentane

> <dsstox_substance_id>
DTXSID4029143

> <dsstox_compound_id>
DTXCID509143

> <qc_level>
DSSTox_Low

> <Canonical_QSARr>
CCCC(C)C

> <InChI_Code_QSARr>
InChI=1S/C6H14/c1-4-5-6(2)3/h6H,4-5H2,1-3H3

> <InChI Key_QSARr>
AFABGHUZZDYHJO-UHFFFAOYSA-N

> <Salt_Solvent>


> <Salt_Solvent_ID>
0

> <MPID>
98777

> <OH Reference>
KWOK,ESC & ATKINSON,R (1994)

> <OH>
5.6E-12

> <OH Temperature>
25.0

> <LogOH>
-11.25181197299378

> <Tr_1_Tst_0>
0

$$$$
100220
  Mrv171c012241912032D          

  6  5  0  0  0  0            999 V2000
    1.2962    0.8609    0.0000 C   0  0  0  0  0  0  0  0  0  0  0  0
    0.8837    0.1464    0.0000 C   0  0  0  0  0  0  0  0  0  0  0  0
    1.2962   -0.5681    0.0000 C   0  0  0  0  0  0  0  0  0  0  0  0
    0.8837   -1.2825    0.0000 C   0  0  0  0  0  0  0  0  0  0  0  0
    1.2962   -1.9970    0.0000 C   0  0  0  0  0  0  0  0  0  0  0  0
    0.0587   -1.2825    0.0000 O   0  0  0  0  0  0  0  0  0  0  0  0
  1  2  1  0  0  0  0
  2  3  1  0  0  0  0
  3  4  1  0  0  0  0
  4  5  1  0  0  0  0
  4  6  2  0  0  0  0
M  END
> <ChemID>
100220

> <CAS>
107-87-9

> <Original_SMILES>
CCCC(C)=O

> <preferred_name>
2-Pentanone

> <dsstox_substance_id>
DTXSID0021888

> <dsstox_compound_id>
DTXCID301888

> <qc_level>
DSSTox_Low

> <Canonical_QSARr>
CCCC(C)=O

> <InChI_Code_QSARr>
InChI=1S/C5H10O/c1-3-4-5(2)6/h3-4H2,1-2H3

> <InChI Key_QSARr>
XNLICIUVMPYHGG-UHFFFAOYSA-N

> <Salt_Solvent>


> <Salt_Solvent_ID>
0

> <MPID>
98778

> <OH Reference>
ATKINSON,R ET AL. (2000)

> <OH>
4.659999999999999E-12

> <OH Temperature>
25.0

> <LogOH>
-11.33161408331

> <Tr_1_Tst_0>
1

$$$$
100221
  Mrv171c012241912032D          

  6  5  0  0  0  0            999 V2000
    2.5114   -1.8472    0.0000 O   0  0  0  0  0  0  0  0  0  0  0  0
    2.0989   -1.1327    0.0000 C   0  0  0  0  0  0  0  0  0  0  0  0
    2.5114   -0.4182    0.0000 O   0  0  0  0  0  0  0  0  0  0  0  0
    1.2739   -1.1327    0.0000 C   0  0  0  0  0  0  0  0  0  0  0  0
    0.8614   -0.4182    0.0000 C   0  0  0  0  0  0  0  0  0  0  0  0
    0.0364   -0.4182    0.0000 C   0  0  0  0  0  0  0  0  0  0  0  0
  1  2  1  0  0  0  0
  2  3  2  0  0  0  0
  2  4  1  0  0  0  0
  4  5  1  0  0  0  0
  5  6  1  0  0  0  0
M  END
> <ChemID>
100221

> <CAS>
107-92-6

> <Original_SMILES>
CCCC(O)=O

> <preferred_name>
Butanoic acid

> <dsstox_substance_id>
DTXSID8021515

> <dsstox_compound_id>
DTXCID401515

> <qc_level>
DSSTox_Low

> <Canonical_QSARr>
CCCC(O)=O

> <InChI_Code_QSARr>
InChI=1S/C4H8O2/c1-2-3-4(5)6/h2-3H2,1H3,(H,5,6)

> <InChI Key_QSARr>
FERIUCNNQQJTOY-UHFFFAOYSA-N

> <Salt_Solvent>


> <Salt_Solvent_ID>
0

> <MPID>
98779

> <OH Reference>
ATKINSON,R (1985)

> <OH>
2.4E-12

> <OH Temperature>
25.0

> <LogOH>
-11.619788758288415

> <Tr_1_Tst_0>
1

$$$$
100222
  Mrv171c012241912032D          

  6  5  0  0  0  0            999 V2000
    2.5119   -1.8448    0.0000 O   0  0  0  0  0  0  0  0  0  0  0  0
    2.0994   -1.1303    0.0000 C   0  0  0  0  0  0  0  0  0  0  0  0
    2.5119   -0.4159    0.0000 C   0  0  0  0  0  0  0  0  0  0  0  0
    1.2744   -1.1303    0.0000 C   0  0  0  0  0  0  0  0  0  0  0  0
    0.8619   -0.4159    0.0000 O   0  0  0  0  0  0  0  0  0  0  0  0
    0.0369   -0.4159    0.0000 C   0  0  0  0  0  0  0  0  0  0  0  0
  1  2  1  0  0  0  0
  2  3  1  0  0  0  0
  2  4  1  0  0  0  0
  4  5  1  0  0  0  0
  5  6  1  0  0  0  0
M  END
> <ChemID>
100222

> <CAS>
107-98-2

> <Original_SMILES>
COCC(C)O

> <preferred_name>
1-Methoxy-2-propanol

> <dsstox_substance_id>
DTXSID8024284

> <dsstox_compound_id>
DTXCID804284

> <qc_level>
DSSTox_Low

> <Canonical_QSARr>
COCC(C)O

> <InChI_Code_QSARr>
InChI=1S/C4H10O2/c1-4(5)3-6-2/h4-5H,3H2,1-2H3

> <InChI Key_QSARr>
ARXJGSRGQADJSQ-UHFFFAOYSA-N

> <Salt_Solvent>


> <Salt_Solvent_ID>
0

> <MPID>
98780

> <OH Reference>
PORTER,E ET AL. (1997)

> <OH>
1.86E-11

> <OH Temperature>
25.0

> <LogOH>
-10.730487055782087

> <Tr_1_Tst_0>
1

$$$$
100223
  Mrv171c012241912032D          

  6  5  0  0  0  0            999 V2000
    2.5115   -1.8472    0.0000 C   0  0  0  0  0  0  0  0  0  0  0  0
    2.0990   -1.1327    0.0000 N   0  0  0  0  0  0  0  0  0  0  0  0
    2.5115   -0.4182    0.0000 C   0  0  0  0  0  0  0  0  0  0  0  0
    1.2740   -1.1327    0.0000 C   0  0  0  0  0  0  0  0  0  0  0  0
    0.8615   -0.4182    0.0000 C   0  0  0  0  0  0  0  0  0  0  0  0
    0.0365   -0.4182    0.0000 O   0  0  0  0  0  0  0  0  0  0  0  0
  1  2  1  0  0  0  0
  2  3  1  0  0  0  0
  2  4  1  0  0  0  0
  4  5  1  0  0  0  0
  5  6  1  0  0  0  0
M  END
> <ChemID>
100223

> <CAS>
108-01-0

> <Original_SMILES>
CN(C)CCO

> <preferred_name>
Dimethylaminoethanol

> <dsstox_substance_id>
DTXSID2020505

> <dsstox_compound_id>
DTXCID00505

> <qc_level>
DSSTox_Low

> <Canonical_QSARr>
CN(C)CCO

> <InChI_Code_QSARr>
InChI=1S/C4H11NO/c1-5(2)3-4-6/h6H,3-4H2,1-2H3

> <InChI Key_QSARr>
UEEJHVSXFDXPFK-UHFFFAOYSA-N

> <Salt_Solvent>


> <Salt_Solvent_ID>
0

> <MPID>
98781

> <OH Reference>
ATKINSON,R (1989)

> <OH>
8.999999999999997E-11

> <OH Temperature>
25.0

> <LogOH>
-10.045757490560682

> <Tr_1_Tst_0>
0

$$$$
100224
  Mrv171c012241912032D          

  6  5  0  0  0  0            999 V2000
    2.5114   -1.8472    0.0000 O   0  0  0  0  0  0  0  0  0  0  0  0
    2.0989   -1.1327    0.0000 N   0  3  0  0  0  0  0  0  0  0  0  0
    2.5114   -0.4182    0.0000 O   0  5  0  0  0  0  0  0  0  0  0  0
    1.2739   -1.1327    0.0000 C   0  0  0  0  0  0  0  0  0  0  0  0
    0.8614   -0.4182    0.0000 C   0  0  0  0  0  0  0  0  0  0  0  0
    0.0364   -0.4182    0.0000 C   0  0  0  0  0  0  0  0  0  0  0  0
  1  2  2  0  0  0  0
  2  3  1  0  0  0  0
  2  4  1  0  0  0  0
  4  5  1  0  0  0  0
  5  6  1  0  0  0  0
M  CHG  2   2   1   3  -1
M  END
> <ChemID>
100224

> <CAS>
108-03-2

> <Original_SMILES>
CCC[N+]([O-])=O

> <preferred_name>
1-Nitropropane

> <dsstox_substance_id>
DTXSID1020980

> <dsstox_compound_id>
DTXCID50980

> <qc_level>
DSSTox_Low

> <Canonical_QSARr>
CCC[N+]([O-])=O

> <InChI_Code_QSARr>
InChI=1S/C3H7NO2/c1-2-3-4(5)6/h2-3H2,1H3

> <InChI Key_QSARr>
JSZOAYXJRCEYSX-UHFFFAOYSA-N

> <Salt_Solvent>


> <Salt_Solvent_ID>
0

> <MPID>
98782

> <OH Reference>
KWOK,ESC & ATKINSON,R (1994)

> <OH>
4.4E-13

> <OH Temperature>
25.0

> <LogOH>
-12.356547323513821

> <Tr_1_Tst_0>
1

$$$$
100225
  Mrv171c012241912032D          

  6  5  0  0  0  0            999 V2000
    1.8927    0.4153    0.0000 C   0  0  0  0  0  0  0  0  0  0  0  0
    1.4802   -0.2991    0.0000 C   0  0  0  0  0  0  0  0  0  0  0  0
    1.8927   -1.0136    0.0000 O   0  0  0  0  0  0  0  0  0  0  0  0
    1.4802   -1.7281    0.0000 C   0  0  0  0  0  0  0  0  0  0  0  0
    1.8927   -2.4425    0.0000 C   0  0  0  0  0  0  0  0  0  0  0  0
    0.6552   -0.2991    0.0000 O   0  0  0  0  0  0  0  0  0  0  0  0
  1  2  1  0  0  0  0
  2  3  1  0  0  0  0
  3  4  1  0  0  0  0
  4  5  2  0  0  0  0
  2  6  2  0  0  0  0
M  END
> <ChemID>
100225

> <CAS>
108-05-4

> <Original_SMILES>
CC(=O)OC=C

> <preferred_name>
Vinyl acetate

> <dsstox_substance_id>
DTXSID3021431

> <dsstox_compound_id>
DTXCID201431

> <qc_level>
DSSTox_Low

> <Canonical_QSARr>
CC(=O)OC=C

> <InChI_Code_QSARr>
InChI=1S/C4H6O2/c1-3-6-4(2)5/h3H,1H2,2H3

> <InChI Key_QSARr>
XTXRWKRVRITETP-UHFFFAOYSA-N

> <Salt_Solvent>


> <Salt_Solvent_ID>
0

> <MPID>
98783

> <OH Reference>
SAUNDERS,SM ET AL. (1993)

> <OH>
2.500000000000001E-11

> <OH Temperature>
25.0

> <LogOH>
-10.60205999132794

> <Tr_1_Tst_0>
1

$$$$
100226
  Mrv171c012241912032D          

  7  6  0  0  0  0            999 V2000
    0.8250    1.4289    0.0000 C   0  0  0  0  0  0  0  0  0  0  0  0
    1.2375    2.1434    0.0000 C   0  0  0  0  0  0  0  0  0  0  0  0
   -0.0000    1.4289    0.0000 C   0  0  0  0  0  0  0  0  0  0  0  0
    1.2375    0.7145    0.0000 C   0  0  0  0  0  0  0  0  0  0  0  0
    0.8250   -0.0000    0.0000 C   0  0  0  0  0  0  0  0  0  0  0  0
    1.2375   -0.7145    0.0000 C   0  0  0  0  0  0  0  0  0  0  0  0
   -0.0000   -0.0000    0.0000 C   0  0  0  0  0  0  0  0  0  0  0  0
  1  2  1  0  0  0  0
  1  3  1  0  0  0  0
  1  4  1  0  0  0  0
  4  5  1  0  0  0  0
  5  6  1  0  0  0  0
  5  7  1  0  0  0  0
M  END
> <ChemID>
100226

> <CAS>
108-08-7

> <Original_SMILES>
CC(C)CC(C)C

> <preferred_name>
2,4-Dimethylpentane

> <dsstox_substance_id>
DTXSID2059358

> <dsstox_compound_id>
DTXCID0033099

> <qc_level>
Public_High

> <Canonical_QSARr>
CC(C)CC(C)C

> <InChI_Code_QSARr>
InChI=1S/C7H16/c1-6(2)5-7(3)4/h6-7H,5H2,1-4H3

> <InChI Key_QSARr>
BZHMBWZPUJHVEE-UHFFFAOYSA-N

> <Salt_Solvent>


> <Salt_Solvent_ID>
0

> <MPID>
98784

> <OH Reference>
ATKINSON,R (1989)

> <OH>
5.16E-12

> <OH Temperature>
25.0

> <LogOH>
-11.287350298372797

> <Tr_1_Tst_0>
1

$$$$
100227
  Mrv171c012241912032D          

  7  6  0  0  0  0            999 V2000
    1.9012    0.6622    0.0000 C   0  0  0  0  0  0  0  0  0  0  0  0
    1.4887   -0.0523    0.0000 C   0  0  0  0  0  0  0  0  0  0  0  0
    1.9012   -0.7668    0.0000 C   0  0  0  0  0  0  0  0  0  0  0  0
    1.4887   -1.4813    0.0000 C   0  0  0  0  0  0  0  0  0  0  0  0
    1.9012   -2.1957    0.0000 C   0  0  0  0  0  0  0  0  0  0  0  0
    0.6637   -1.4813    0.0000 C   0  0  0  0  0  0  0  0  0  0  0  0
    0.6637   -0.0523    0.0000 O   0  0  0  0  0  0  0  0  0  0  0  0
  1  2  1  0  0  0  0
  2  3  1  0  0  0  0
  3  4  1  0  0  0  0
  4  5  1  0  0  0  0
  4  6  1  0  0  0  0
  2  7  2  0  0  0  0
M  END
> <ChemID>
100227

> <CAS>
108-10-1

> <Original_SMILES>
CC(C)CC(C)=O

> <preferred_name>
4-Methyl-2-pentanone

> <dsstox_substance_id>
DTXSID5021889

> <dsstox_compound_id>
DTXCID701889

> <qc_level>
DSSTox_Low

> <Canonical_QSARr>
CC(C)CC(C)=O

> <InChI_Code_QSARr>
InChI=1S/C6H12O/c1-5(2)4-6(3)7/h5H,4H2,1-3H3

> <InChI Key_QSARr>
NTIZESTWPVYFNL-UHFFFAOYSA-N

> <Salt_Solvent>


> <Salt_Solvent_ID>
0

> <MPID>
98785

> <OH Reference>
ATKINSON,R (1989)

> <OH>
1.41E-11

> <OH Temperature>
25.0

> <LogOH>
-10.850780887344607

> <Tr_1_Tst_0>
0

$$$$
100228
  Mrv171c012241912032D          

  7  6  0  0  0  0            999 V2000
    1.9012    0.6622    0.0000 C   0  0  0  0  0  0  0  0  0  0  0  0
    1.4887   -0.0523    0.0000 C   0  0  0  0  0  0  0  0  0  0  0  0
    1.9012   -0.7668    0.0000 O   0  0  0  0  0  0  0  0  0  0  0  0
    1.4887   -1.4812    0.0000 C   0  0  0  0  0  0  0  0  0  0  0  0
    1.9012   -2.1957    0.0000 C   0  0  0  0  0  0  0  0  0  0  0  0
    0.6637   -1.4812    0.0000 C   0  0  0  0  0  0  0  0  0  0  0  0
    0.6637   -0.0523    0.0000 C   0  0  0  0  0  0  0  0  0  0  0  0
  1  2  1  0  0  0  0
  2  3  1  0  0  0  0
  3  4  1  0  0  0  0
  4  5  1  0  0  0  0
  4  6  1  0  0  0  0
  2  7  1  0  0  0  0
M  END
> <ChemID>
100228

> <CAS>
108-20-3

> <Original_SMILES>
CC(C)OC(C)C

> <preferred_name>
Isopropyl ether

> <dsstox_substance_id>
DTXSID4021890

> <dsstox_compound_id>
DTXCID401890

> <qc_level>
DSSTox_Low

> <Canonical_QSARr>
CC(C)OC(C)C

> <InChI_Code_QSARr>
InChI=1S/C6H14O/c1-5(2)7-6(3)4/h5-6H,1-4H3

> <InChI Key_QSARr>
ZAFNJMIOTHYJRJ-UHFFFAOYSA-N

> <Salt_Solvent>


> <Salt_Solvent_ID>
0

> <MPID>
98786

> <OH Reference>
KWOK,ESC & ATKINSON,R (1994)

> <OH>
1.02E-11

> <OH Temperature>
25.0

> <LogOH>
-10.991399828238071

> <Tr_1_Tst_0>
1

$$$$
100229
  Mrv171c012241912032D          

  7  6  0  0  0  0            999 V2000
    1.9012   -0.7668    0.0000 O   0  0  0  0  0  0  0  0  0  0  0  0
    1.4887   -0.0523    0.0000 C   0  0  0  0  0  0  0  0  0  0  0  0
    1.9012    0.6622    0.0000 O   0  0  0  0  0  0  0  0  0  0  0  0
    0.6637   -0.0523    0.0000 C   0  0  0  0  0  0  0  0  0  0  0  0
    1.4887   -1.4813    0.0000 C   0  0  0  0  0  0  0  0  0  0  0  0
    1.9012   -2.1957    0.0000 C   0  0  0  0  0  0  0  0  0  0  0  0
    0.6637   -1.4813    0.0000 C   0  0  0  0  0  0  0  0  0  0  0  0
  1  2  1  0  0  0  0
  2  3  2  0  0  0  0
  2  4  1  0  0  0  0
  1  5  1  0  0  0  0
  5  6  1  0  0  0  0
  5  7  1  0  0  0  0
M  END
> <ChemID>
100229

> <CAS>
108-21-4

> <Original_SMILES>
CC(C)OC(C)=O

> <preferred_name>
Isopropyl acetate

> <dsstox_substance_id>
DTXSID2025478

> <dsstox_compound_id>
DTXCID605478

> <qc_level>
DSSTox_Low

> <Canonical_QSARr>
CC(C)OC(C)=O

> <InChI_Code_QSARr>
InChI=1S/C5H10O2/c1-4(2)7-5(3)6/h4H,1-3H3

> <InChI Key_QSARr>
JMMWKPVZQRWMSS-UHFFFAOYSA-N

> <Salt_Solvent>


> <Salt_Solvent_ID>
0

> <MPID>
98787

> <OH Reference>
ATKINSON,R (1989)

> <OH>
3.4E-12

> <OH Temperature>
25.0

> <LogOH>
-11.468521082957729

> <Tr_1_Tst_0>
1

$$$$
100230
  Mrv171c012241912032D          

  7  6  0  0  0  0            999 V2000
    1.4838    0.2422    0.0000 C   0  0  0  0  0  0  0  0  0  0  0  0
    1.8963    0.9567    0.0000 C   0  0  0  0  0  0  0  0  0  0  0  0
    1.8963   -0.4722    0.0000 O   0  0  0  0  0  0  0  0  0  0  0  0
    1.4838   -1.1867    0.0000 C   0  0  0  0  0  0  0  0  0  0  0  0
    1.8963   -1.9012    0.0000 C   0  0  0  0  0  0  0  0  0  0  0  0
    0.6588   -1.1867    0.0000 C   0  0  0  0  0  0  0  0  0  0  0  0
    0.6588    0.2422    0.0000 O   0  0  0  0  0  0  0  0  0  0  0  0
  1  2  1  0  0  0  0
  1  3  1  0  0  0  0
  3  4  1  0  0  0  0
  4  5  1  0  0  0  0
  4  6  2  0  0  0  0
  1  7  2  0  0  0  0
M  END
> <ChemID>
100230

> <CAS>
108-22-5

> <Original_SMILES>
CC(=O)OC(C)=C

> <preferred_name>
Isopropenyl acetate

> <dsstox_substance_id>
DTXSID3031492

> <dsstox_compound_id>
DTXCID1011492

> <qc_level>
DSSTox_Low

> <Canonical_QSARr>
CC(=O)OC(C)=C

> <InChI_Code_QSARr>
InChI=1S/C5H8O2/c1-4(2)7-5(3)6/h1H2,2-3H3

> <InChI Key_QSARr>
HETCEOQFVDFGSY-UHFFFAOYSA-N

> <Salt_Solvent>


> <Salt_Solvent_ID>
0

> <MPID>
98788

> <OH Reference>
LECALVE,S ET AL. (2000)

> <OH>
6.959999999999998E-11

> <OH Temperature>
25.0

> <LogOH>
-10.157390760389447

> <Tr_1_Tst_0>
1

$$$$
100231
  Mrv171c012241912032D          

  7  7  0  0  0  0            999 V2000
    2.0132   -0.3926    0.0000 O   0  0  0  0  0  0  0  0  0  0  0  0
    1.3457    0.0924    0.0000 C   0  0  0  0  0  0  0  0  0  0  0  0
    1.3457    0.9174    0.0000 O   0  0  0  0  0  0  0  0  0  0  0  0
    0.6783   -0.3926    0.0000 C   0  0  0  0  0  0  0  0  0  0  0  0
    0.9332   -1.1772    0.0000 C   0  0  0  0  0  0  0  0  0  0  0  0
    1.7582   -1.1772    0.0000 C   0  0  0  0  0  0  0  0  0  0  0  0
    2.2431   -1.8446    0.0000 O   0  0  0  0  0  0  0  0  0  0  0  0
  2  1  1  0  0  0  0
  2  3  2  0  0  0  0
  4  2  1  0  0  0  0
  5  4  2  0  0  0  0
  6  5  1  0  0  0  0
  1  6  1  0  0  0  0
  6  7  2  0  0  0  0
M  END
> <ChemID>
100231

> <CAS>
108-31-6

> <Original_SMILES>
O=C1C=CC(=O)O1

> <preferred_name>
2,5-Furandione

> <dsstox_substance_id>
DTXSID7024166

> <dsstox_compound_id>
DTXCID804166

> <qc_level>
DSSTox_Low

> <Canonical_QSARr>
O=C1C=CC(=O)O1

> <InChI_Code_QSARr>
InChI=1S/C4H2O3/c5-3-1-2-4(6)7-3/h1-2H

> <InChI Key_QSARr>
FPYJFEHAWHCUMM-UHFFFAOYSA-N

> <Salt_Solvent>


> <Salt_Solvent_ID>
0

> <MPID>
98789

> <OH Reference>
BIERBACH,A ET AL. (1994)

> <OH>
1.45E-12

> <OH Temperature>
23.0

> <LogOH>
-11.838631997765038

> <Tr_1_Tst_0>
0

$$$$
100232
  Mrv171c012241912032D          

  8  8  0  0  0  0            999 V2000
    1.7055   -3.2018    0.0000 C   0  0  0  0  0  0  0  0  0  0  0  0
    2.4199   -2.7893    0.0000 C   0  0  0  0  0  0  0  0  0  0  0  0
    2.4199   -1.9643    0.0000 C   0  0  0  0  0  0  0  0  0  0  0  0
    1.7055   -1.5518    0.0000 C   0  0  0  0  0  0  0  0  0  0  0  0
    1.7055   -0.7268    0.0000 C   0  0  0  0  0  0  0  0  0  0  0  0
    0.9910   -1.9643    0.0000 C   0  0  0  0  0  0  0  0  0  0  0  0
    0.9910   -2.7893    0.0000 C   0  0  0  0  0  0  0  0  0  0  0  0
    0.2765   -3.2018    0.0000 C   0  0  0  0  0  0  0  0  0  0  0  0
  2  1  2  0  0  0  0
  3  2  1  0  0  0  0
  4  3  2  0  0  0  0
  4  5  1  0  0  0  0
  6  4  1  0  0  0  0
  7  6  2  0  0  0  0
  1  7  1  0  0  0  0
  7  8  1  0  0  0  0
M  END
> <ChemID>
100232

> <CAS>
108-38-3

> <Original_SMILES>
Cc1cc(C)ccc1

> <preferred_name>
m-Xylene

> <dsstox_substance_id>
DTXSID6026298

> <dsstox_compound_id>
DTXCID501446

> <qc_level>
DSSTox_Low

> <Canonical_QSARr>
CC1=CC(C)=CC=C1

> <InChI_Code_QSARr>
InChI=1S/C8H10/c1-7-4-3-5-8(2)6-7/h3-6H,1-2H3

> <InChI Key_QSARr>
IVSZLXZYQVIEFR-UHFFFAOYSA-N

> <Salt_Solvent>


> <Salt_Solvent_ID>
0

> <MPID>
98790

> <OH Reference>
ATKINSON,R (1989)

> <OH>
2.36E-11

> <OH Temperature>
25.0

> <LogOH>
-10.627087997029898

> <Tr_1_Tst_0>
1

$$$$
100233
  Mrv171c012241912032D          

  8  8  0  0  0  0            999 V2000
    1.4204   -1.2373    0.0000 C   0  0  0  0  0  0  0  0  0  0  0  0
    0.7059   -0.8248    0.0000 C   0  0  0  0  0  0  0  0  0  0  0  0
    0.7059    0.0002    0.0000 C   0  0  0  0  0  0  0  0  0  0  0  0
   -0.0085   -1.2373    0.0000 C   0  0  0  0  0  0  0  0  0  0  0  0
   -0.0085   -2.0623    0.0000 C   0  0  0  0  0  0  0  0  0  0  0  0
    0.7059   -2.4748    0.0000 C   0  0  0  0  0  0  0  0  0  0  0  0
    1.4204   -2.0623    0.0000 C   0  0  0  0  0  0  0  0  0  0  0  0
    2.1349   -2.4748    0.0000 O   0  0  0  0  0  0  0  0  0  0  0  0
  2  1  2  0  0  0  0
  2  3  1  0  0  0  0
  4  2  1  0  0  0  0
  5  4  2  0  0  0  0
  6  5  1  0  0  0  0
  7  6  2  0  0  0  0
  1  7  1  0  0  0  0
  7  8  1  0  0  0  0
M  END
> <ChemID>
100233

> <CAS>
108-39-4

> <Original_SMILES>
Cc1cc(O)ccc1

> <preferred_name>
m-Cresol

> <dsstox_substance_id>
DTXSID6024200

> <dsstox_compound_id>
DTXCID804200

> <qc_level>
DSSTox_Low

> <Canonical_QSARr>
CC1=CC(O)=CC=C1

> <InChI_Code_QSARr>
InChI=1S/C7H8O/c1-6-3-2-4-7(8)5-6/h2-5,8H,1H3

> <InChI Key_QSARr>
RLSSMJSEOOYNOY-UHFFFAOYSA-N

> <Salt_Solvent>


> <Salt_Solvent_ID>
0

> <MPID>
98791

> <OH Reference>
ATKINSON,R (1989)

> <OH>
6.400000000000001E-11

> <OH Temperature>
25.0

> <LogOH>
-10.193820026016121

> <Tr_1_Tst_0>
1

$$$$
100235
  Mrv171c012241912032D          

  9  9  0  0  0  0            999 V2000
    2.1349   -2.0567    0.0000 C   0  0  0  0  0  0  0  0  0  0  0  0
    2.8494   -2.4692    0.0000 C   0  0  0  0  0  0  0  0  0  0  0  0
    2.1349   -1.2317    0.0000 C   0  0  0  0  0  0  0  0  0  0  0  0
    1.4204   -0.8192    0.0000 C   0  0  0  0  0  0  0  0  0  0  0  0
    1.4204    0.0058    0.0000 C   0  0  0  0  0  0  0  0  0  0  0  0
    0.7060   -1.2317    0.0000 C   0  0  0  0  0  0  0  0  0  0  0  0
    0.7060   -2.0567    0.0000 C   0  0  0  0  0  0  0  0  0  0  0  0
   -0.0085   -2.4692    0.0000 C   0  0  0  0  0  0  0  0  0  0  0  0
    1.4204   -2.4692    0.0000 C   0  0  0  0  0  0  0  0  0  0  0  0
  1  2  1  0  0  0  0
  3  1  1  0  0  0  0
  4  3  2  0  0  0  0
  4  5  1  0  0  0  0
  6  4  1  0  0  0  0
  7  6  2  0  0  0  0
  7  8  1  0  0  0  0
  9  7  1  0  0  0  0
  1  9  2  0  0  0  0
M  END
> <ChemID>
100235

> <CAS>
108-67-8

> <Original_SMILES>
Cc1cc(C)cc(C)c1

> <preferred_name>
1,3,5-Trimethylbenzene

> <dsstox_substance_id>
DTXSID6026797

> <dsstox_compound_id>
DTXCID506797

> <qc_level>
DSSTox_Low

> <Canonical_QSARr>
CC1C=C(C)C=C(C)C=1

> <InChI_Code_QSARr>
InChI=1S/C9H12/c1-7-4-8(2)6-9(3)5-7/h4-6H,1-3H3

> <InChI Key_QSARr>
AUHZEENZYGFFBQ-UHFFFAOYSA-N

> <Salt_Solvent>


> <Salt_Solvent_ID>
0

> <MPID>
98792

> <OH Reference>
ATKINSON,R (1989)

> <OH>
5.75E-11

> <OH Temperature>
25.0

> <LogOH>
-10.24033215531035

> <Tr_1_Tst_0>
0

$$$$
100236
  Mrv171c012241912032D          

  9  9  0  0  0  0            999 V2000
    3.0801   -2.2547    0.0000 C   0  0  0  0  0  0  0  0  0  0  0  0
    2.3656   -1.8422    0.0000 C   0  0  0  0  0  0  0  0  0  0  0  0
    2.3656   -1.0172    0.0000 C   0  0  0  0  0  0  0  0  0  0  0  0
    1.6512   -0.6047    0.0000 C   0  0  0  0  0  0  0  0  0  0  0  0
    1.6512    0.2203    0.0000 O   0  0  0  0  0  0  0  0  0  0  0  0
    0.9367   -1.0172    0.0000 C   0  0  0  0  0  0  0  0  0  0  0  0
    0.9367   -1.8422    0.0000 C   0  0  0  0  0  0  0  0  0  0  0  0
    0.2222   -2.2547    0.0000 C   0  0  0  0  0  0  0  0  0  0  0  0
    1.6512   -2.2547    0.0000 C   0  0  0  0  0  0  0  0  0  0  0  0
  1  2  1  0  0  0  0
  3  2  1  0  0  0  0
  4  3  2  0  0  0  0
  4  5  1  0  0  0  0
  6  4  1  0  0  0  0
  7  6  2  0  0  0  0
  7  8  1  0  0  0  0
  9  7  1  0  0  0  0
  2  9  2  0  0  0  0
M  END
> <ChemID>
100236

> <CAS>
108-68-9

> <Original_SMILES>
Cc1cc(O)cc(C)c1

> <preferred_name>
3,5-Dimethylphenol

> <dsstox_substance_id>
DTXSID1025148

> <dsstox_compound_id>
DTXCID105148

> <qc_level>
DSSTox_Low

> <Canonical_QSARr>
CC1=CC(O)=CC(C)=C1

> <InChI_Code_QSARr>
InChI=1S/C8H10O/c1-6-3-7(2)5-8(9)4-6/h3-5,9H,1-2H3

> <InChI Key_QSARr>
TUAMRELNJMMDMT-UHFFFAOYSA-N

> <Salt_Solvent>


> <Salt_Solvent_ID>
0

> <MPID>
98793

> <OH Reference>
KWOK,ESC & ATKINSON,R (1994)

> <OH>
1.13E-10

> <OH Temperature>
25.0

> <LogOH>
-9.946921556516577

> <Tr_1_Tst_0>
1

$$$$
100237
  Mrv171c012241912032D          

 10  9  0  0  0  0            999 V2000
    2.1414   -1.4856    0.0000 O   0  0  0  0  0  0  0  0  0  0  0  0
    2.1414   -0.6606    0.0000 C   0  0  0  0  0  0  0  0  0  0  0  0
    1.4269   -0.2481    0.0000 C   0  0  0  0  0  0  0  0  0  0  0  0
    0.7125   -0.6606    0.0000 C   0  0  0  0  0  0  0  0  0  0  0  0
   -0.0020   -0.2481    0.0000 C   0  0  0  0  0  0  0  0  0  0  0  0
    0.7125   -1.4856    0.0000 C   0  0  0  0  0  0  0  0  0  0  0  0
    2.8559   -0.2481    0.0000 C   0  0  0  0  0  0  0  0  0  0  0  0
    3.5703   -0.6606    0.0000 C   0  0  0  0  0  0  0  0  0  0  0  0
    4.2848   -0.2481    0.0000 C   0  0  0  0  0  0  0  0  0  0  0  0
    3.5703   -1.4856    0.0000 C   0  0  0  0  0  0  0  0  0  0  0  0
  1  2  2  0  0  0  0
  2  3  1  0  0  0  0
  3  4  1  0  0  0  0
  4  5  1  0  0  0  0
  4  6  1  0  0  0  0
  2  7  1  0  0  0  0
  7  8  1  0  0  0  0
  8  9  1  0  0  0  0
  8 10  1  0  0  0  0
M  END
> <ChemID>
100237

> <CAS>
108-83-8

> <Original_SMILES>
CC(C)CC(=O)CC(C)C

> <preferred_name>
Diisobutyl ketone

> <dsstox_substance_id>
DTXSID4025080

> <dsstox_compound_id>
DTXCID905080

> <qc_level>
DSSTox_Low

> <Canonical_QSARr>
CC(C)CC(=O)CC(C)C

> <InChI_Code_QSARr>
InChI=1S/C9H18O/c1-7(2)5-9(10)6-8(3)4/h7-8H,5-6H2,1-4H3

> <InChI Key_QSARr>
PTTPXKJBFFKCEK-UHFFFAOYSA-N

> <Salt_Solvent>


> <Salt_Solvent_ID>
0

> <MPID>
98794

> <OH Reference>
ATKINSON,R & AREY,J (2003)

> <OH>
2.6E-11

> <OH Temperature>
25.0

> <LogOH>
-10.585026652029196

> <Tr_1_Tst_0>
1

$$$$
100238
  Mrv171c012241912032D          

  7  7  0  0  0  0            999 V2000
    1.4153   -0.1250    0.0000 C   0  0  0  0  0  0  0  0  0  0  0  0
    1.4153    0.7000    0.0000 Br  0  0  0  0  0  0  0  0  0  0  0  0
    0.7009   -0.5375    0.0000 C   0  0  0  0  0  0  0  0  0  0  0  0
    0.7009   -1.3625    0.0000 C   0  0  0  0  0  0  0  0  0  0  0  0
    1.4153   -1.7750    0.0000 C   0  0  0  0  0  0  0  0  0  0  0  0
    2.1298   -1.3625    0.0000 C   0  0  0  0  0  0  0  0  0  0  0  0
    2.1298   -0.5375    0.0000 C   0  0  0  0  0  0  0  0  0  0  0  0
  1  2  1  0  0  0  0
  3  1  1  0  0  0  0
  4  3  2  0  0  0  0
  5  4  1  0  0  0  0
  6  5  2  0  0  0  0
  7  6  1  0  0  0  0
  1  7  2  0  0  0  0
M  END
> <ChemID>
100238

> <CAS>
108-86-1

> <Original_SMILES>
Brc1ccccc1

> <preferred_name>
Bromobenzene

> <dsstox_substance_id>
DTXSID5024637

> <dsstox_compound_id>
DTXCID304637

> <qc_level>
DSSTox_Low

> <Canonical_QSARr>
BrC1C=CC=CC=1

> <InChI_Code_QSARr>
InChI=1S/C6H5Br/c7-6-4-2-1-3-5-6/h1-5H

> <InChI Key_QSARr>
QARVLSVVCXYDNA-UHFFFAOYSA-N

> <Salt_Solvent>


> <Salt_Solvent_ID>
0

> <MPID>
98795

> <OH Reference>
ATKINSON,R (1989)

> <OH>
7.7E-13

> <OH Temperature>
25.0

> <LogOH>
-12.113509274827535

> <Tr_1_Tst_0>
1

$$$$
100239
  Mrv171c012241912032D          

  7  7  0  0  0  0            999 V2000
    1.4305   -1.2414    0.0000 C   0  0  0  0  0  0  0  0  0  0  0  0
    0.7160   -0.8289    0.0000 C   0  0  0  0  0  0  0  0  0  0  0  0
    0.7160   -0.0039    0.0000 C   0  0  0  0  0  0  0  0  0  0  0  0
    0.0015   -1.2414    0.0000 C   0  0  0  0  0  0  0  0  0  0  0  0
    0.0015   -2.0664    0.0000 C   0  0  0  0  0  0  0  0  0  0  0  0
    0.7160   -2.4789    0.0000 C   0  0  0  0  0  0  0  0  0  0  0  0
    1.4305   -2.0664    0.0000 C   0  0  0  0  0  0  0  0  0  0  0  0
  2  1  1  0  0  0  0
  2  3  1  0  0  0  0
  4  2  1  0  0  0  0
  5  4  1  0  0  0  0
  6  5  1  0  0  0  0
  7  6  1  0  0  0  0
  1  7  1  0  0  0  0
M  END
> <ChemID>
100239

> <CAS>
108-87-2

> <Original_SMILES>
CC1CCCCC1

> <preferred_name>
Methylcyclohexane

> <dsstox_substance_id>
DTXSID0047749

> <dsstox_compound_id>
DTXCID4027733

> <qc_level>
DSSTox_Low

> <Canonical_QSARr>
CC1CCCCC1

> <InChI_Code_QSARr>
InChI=1S/C7H14/c1-7-5-3-2-4-6-7/h7H,2-6H2,1H3

> <InChI Key_QSARr>
UAEPNZWRGJTJPN-UHFFFAOYSA-N

> <Salt_Solvent>


> <Salt_Solvent_ID>
0

> <MPID>
98796

> <OH Reference>
ATKINSON,R (1989)

> <OH>
1.04E-11

> <OH Temperature>
25.0

> <LogOH>
-10.982966660701209

> <Tr_1_Tst_0>
0

$$$$
100240
  Mrv171c012241912032D          

  7  7  0  0  0  0            999 V2000
    1.4153    0.7000    0.0000 C   0  0  0  0  0  0  0  0  0  0  0  0
    1.4153   -0.1250    0.0000 C   0  0  0  0  0  0  0  0  0  0  0  0
    0.7009   -0.5375    0.0000 C   0  0  0  0  0  0  0  0  0  0  0  0
    0.7009   -1.3625    0.0000 C   0  0  0  0  0  0  0  0  0  0  0  0
    1.4153   -1.7750    0.0000 C   0  0  0  0  0  0  0  0  0  0  0  0
    2.1298   -1.3625    0.0000 C   0  0  0  0  0  0  0  0  0  0  0  0
    2.1298   -0.5375    0.0000 C   0  0  0  0  0  0  0  0  0  0  0  0
  1  2  1  0  0  0  0
  3  2  1  0  0  0  0
  4  3  2  0  0  0  0
  5  4  1  0  0  0  0
  6  5  2  0  0  0  0
  7  6  1  0  0  0  0
  2  7  2  0  0  0  0
M  END
> <ChemID>
100240

> <CAS>
108-88-3

> <Original_SMILES>
Cc1ccccc1

> <preferred_name>
Toluene

> <dsstox_substance_id>
DTXSID7021360

> <dsstox_compound_id>
DTXCID501360

> <qc_level>
DSSTox_Low

> <Canonical_QSARr>
CC1C=CC=CC=1

> <InChI_Code_QSARr>
InChI=1S/C7H8/c1-7-5-3-2-4-6-7/h2-6H,1H3

> <InChI Key_QSARr>
YXFVVABEGXRONW-UHFFFAOYSA-N

> <Salt_Solvent>


> <Salt_Solvent_ID>
0

> <MPID>
98797

> <OH Reference>
ATKINSON,R (1989)

> <OH>
5.960000000000001E-12

> <OH Temperature>
25.0

> <LogOH>
-11.224753740259766

> <Tr_1_Tst_0>
1

$$$$
100241
  Mrv171c012241912032D          

  7  7  0  0  0  0            999 V2000
    1.4153    0.7000    0.0000 Cl  0  0  0  0  0  0  0  0  0  0  0  0
    1.4153   -0.1250    0.0000 C   0  0  0  0  0  0  0  0  0  0  0  0
    0.7009   -0.5375    0.0000 C   0  0  0  0  0  0  0  0  0  0  0  0
    0.7009   -1.3625    0.0000 C   0  0  0  0  0  0  0  0  0  0  0  0
    1.4153   -1.7750    0.0000 C   0  0  0  0  0  0  0  0  0  0  0  0
    2.1298   -1.3625    0.0000 C   0  0  0  0  0  0  0  0  0  0  0  0
    2.1298   -0.5375    0.0000 C   0  0  0  0  0  0  0  0  0  0  0  0
  1  2  1  0  0  0  0
  3  2  1  0  0  0  0
  4  3  2  0  0  0  0
  5  4  1  0  0  0  0
  6  5  2  0  0  0  0
  7  6  1  0  0  0  0
  2  7  2  0  0  0  0
M  END
> <ChemID>
100241

> <CAS>
108-90-7

> <Original_SMILES>
Clc1ccccc1

> <preferred_name>
Chlorobenzene

> <dsstox_substance_id>
DTXSID4020298

> <dsstox_compound_id>
DTXCID40298

> <qc_level>
DSSTox_Low

> <Canonical_QSARr>
ClC1C=CC=CC=1

> <InChI_Code_QSARr>
InChI=1S/C6H5Cl/c7-6-4-2-1-3-5-6/h1-5H

> <InChI Key_QSARr>
MVPPADPHJFYWMZ-UHFFFAOYSA-N

> <Salt_Solvent>


> <Salt_Solvent_ID>
0

> <MPID>
98798

> <OH Reference>
ATKINSON,R (1989)

> <OH>
7.7E-13

> <OH Temperature>
25.0

> <LogOH>
-12.113509274827535

> <Tr_1_Tst_0>
1

$$$$
100242
  Mrv171c012241912032D          

  7  7  0  0  0  0            999 V2000
    1.4153    0.7000    0.0000 O   0  0  0  0  0  0  0  0  0  0  0  0
    1.4153   -0.1250    0.0000 C   0  0  0  0  0  0  0  0  0  0  0  0
    0.7009   -0.5375    0.0000 C   0  0  0  0  0  0  0  0  0  0  0  0
    0.7009   -1.3625    0.0000 C   0  0  0  0  0  0  0  0  0  0  0  0
    1.4153   -1.7750    0.0000 C   0  0  0  0  0  0  0  0  0  0  0  0
    2.1298   -1.3625    0.0000 C   0  0  0  0  0  0  0  0  0  0  0  0
    2.1298   -0.5375    0.0000 C   0  0  0  0  0  0  0  0  0  0  0  0
  1  2  2  0  0  0  0
  3  2  1  0  0  0  0
  4  3  1  0  0  0  0
  5  4  1  0  0  0  0
  6  5  1  0  0  0  0
  7  6  1  0  0  0  0
  2  7  1  0  0  0  0
M  END
> <ChemID>
100242

> <CAS>
108-94-1

> <Original_SMILES>
O=C1CCCCC1

> <preferred_name>
Cyclohexanone

> <dsstox_substance_id>
DTXSID6020359

> <dsstox_compound_id>
DTXCID00359

> <qc_level>
DSSTox_High

> <Canonical_QSARr>
O=C1CCCCC1

> <InChI_Code_QSARr>
InChI=1S/C6H10O/c7-6-4-2-1-3-5-6/h1-5H2

> <InChI Key_QSARr>
JHIVVAPYMSGYDF-UHFFFAOYSA-N

> <Salt_Solvent>


> <Salt_Solvent_ID>
0

> <MPID>
98799

> <OH Reference>
ATKINSON,R (1989)

> <OH>
6.390000000000002E-12

> <OH Temperature>
25.0

> <LogOH>
-11.194499141841597

> <Tr_1_Tst_0>
1

$$$$
100243
  Mrv171c012241912032D          

  7  7  0  0  0  0            999 V2000
    1.4153    0.7000    0.0000 O   0  0  0  0  0  0  0  0  0  0  0  0
    1.4153   -0.1250    0.0000 C   0  0  0  0  0  0  0  0  0  0  0  0
    0.7009   -0.5375    0.0000 C   0  0  0  0  0  0  0  0  0  0  0  0
    0.7009   -1.3625    0.0000 C   0  0  0  0  0  0  0  0  0  0  0  0
    1.4153   -1.7750    0.0000 C   0  0  0  0  0  0  0  0  0  0  0  0
    2.1298   -1.3625    0.0000 C   0  0  0  0  0  0  0  0  0  0  0  0
    2.1298   -0.5375    0.0000 C   0  0  0  0  0  0  0  0  0  0  0  0
  1  2  1  0  0  0  0
  3  2  1  0  0  0  0
  4  3  2  0  0  0  0
  5  4  1  0  0  0  0
  6  5  2  0  0  0  0
  7  6  1  0  0  0  0
  2  7  2  0  0  0  0
M  END
> <ChemID>
100243

> <CAS>
108-95-2

> <Original_SMILES>
Oc1ccccc1

> <preferred_name>
Phenol

> <dsstox_substance_id>
DTXSID5021124

> <dsstox_compound_id>
DTXCID501124

> <qc_level>
DSSTox_Low

> <Canonical_QSARr>
OC1C=CC=CC=1

> <InChI_Code_QSARr>
InChI=1S/C6H6O/c7-6-4-2-1-3-5-6/h1-5,7H

> <InChI Key_QSARr>
ISWSIDIOOBJBQZ-UHFFFAOYSA-N

> <Salt_Solvent>


> <Salt_Solvent_ID>
0

> <MPID>
98800

> <OH Reference>
ATKINSON,R (1989)

> <OH>
2.63E-11

> <OH Temperature>
25.0

> <LogOH>
-10.580044251510227

> <Tr_1_Tst_0>
0

$$$$
100244
  Mrv171c012241912032D          

  7  7  0  0  0  0            999 V2000
    0.7160   -0.8289    0.0000 C   0  0  0  0  0  0  0  0  0  0  0  0
    0.7160   -0.0039    0.0000 S   0  0  0  0  0  0  0  0  0  0  0  0
    0.0015   -1.2414    0.0000 C   0  0  0  0  0  0  0  0  0  0  0  0
    0.0015   -2.0664    0.0000 C   0  0  0  0  0  0  0  0  0  0  0  0
    0.7160   -2.4789    0.0000 C   0  0  0  0  0  0  0  0  0  0  0  0
    1.4305   -2.0664    0.0000 C   0  0  0  0  0  0  0  0  0  0  0  0
    1.4305   -1.2414    0.0000 C   0  0  0  0  0  0  0  0  0  0  0  0
  1  2  1  0  0  0  0
  3  1  1  0  0  0  0
  4  3  2  0  0  0  0
  5  4  1  0  0  0  0
  6  5  2  0  0  0  0
  7  6  1  0  0  0  0
  1  7  2  0  0  0  0
M  END
> <ChemID>
100244

> <CAS>
108-98-5

> <Original_SMILES>
Sc1ccccc1

> <preferred_name>
Benzenethiol

> <dsstox_substance_id>
DTXSID7026811

> <dsstox_compound_id>
DTXCID906811

> <qc_level>
DSSTox_Low

> <Canonical_QSARr>
SC1C=CC=CC=1

> <InChI_Code_QSARr>
InChI=1S/C6H6S/c7-6-4-2-1-3-5-6/h1-5,7H

> <InChI Key_QSARr>
RMVRSNDYEFQCLF-UHFFFAOYSA-N

> <Salt_Solvent>


> <Salt_Solvent_ID>
0

> <MPID>
98801

> <OH Reference>
ATKINSON,R (1989)

> <OH>
1.12E-11

> <OH Temperature>
25.0

> <LogOH>
-10.950781977329818

> <Tr_1_Tst_0>
1

$$$$
100245
  Mrv171c012241912032D          

 10  9  0  0  0  0            999 V2000
    2.2112   -1.0726    0.0000 C   0  0  0  0  0  0  0  0  0  0  0  0
    1.4967   -0.6601    0.0000 C   0  0  0  0  0  0  0  0  0  0  0  0
    0.7822   -1.0726    0.0000 C   0  0  0  0  0  0  0  0  0  0  0  0
    0.0678   -0.6601    0.0000 C   0  0  0  0  0  0  0  0  0  0  0  0
    2.9256   -0.6601    0.0000 O   0  0  0  0  0  0  0  0  0  0  0  0
    3.6401   -1.0726    0.0000 C   0  0  0  0  0  0  0  0  0  0  0  0
    4.3546   -0.6601    0.0000 C   0  0  0  0  0  0  0  0  0  0  0  0
    5.0690   -1.0726    0.0000 C   0  0  0  0  0  0  0  0  0  0  0  0
    5.7835   -0.6601    0.0000 C   0  0  0  0  0  0  0  0  0  0  0  0
    2.2112   -1.8976    0.0000 O   0  0  0  0  0  0  0  0  0  0  0  0
  1  2  1  0  0  0  0
  2  3  1  0  0  0  0
  3  4  1  0  0  0  0
  1  5  1  0  0  0  0
  5  6  1  0  0  0  0
  6  7  1  0  0  0  0
  7  8  1  0  0  0  0
  8  9  1  0  0  0  0
  1 10  2  0  0  0  0
M  END
> <ChemID>
100245

> <CAS>
109-21-7

> <Original_SMILES>
CCCC(=O)OCCCC

> <preferred_name>
Butyl butyrate

> <dsstox_substance_id>
DTXSID7041702

> <dsstox_compound_id>
DTXCID5021702

> <qc_level>
DSSTox_Low

> <Canonical_QSARr>
CCCC(=O)OCCCC

> <InChI_Code_QSARr>
InChI=1S/C8H16O2/c1-3-5-7-10-8(9)6-4-2/h3-7H2,1-2H3

> <InChI Key_QSARr>
XUPYJHCZDLZNFP-UHFFFAOYSA-N

> <Salt_Solvent>


> <Salt_Solvent_ID>
0

> <MPID>
98802

> <OH Reference>
ATKINSON,R (1989)

> <OH>
1.06E-11

> <OH Temperature>
25.0

> <LogOH>
-10.974694134735218

> <Tr_1_Tst_0>
1

$$$$
100246
  Mrv171c012241912032D          

  7  6  0  0  0  0            999 V2000
    0.4044   -0.5274    0.0000 C   0  0  0  0  0  0  0  0  0  0  0  0
   -0.3101   -0.9399    0.0000 O   0  0  0  0  0  0  0  0  0  0  0  0
    1.1188   -0.9399    0.0000 C   0  0  0  0  0  0  0  0  0  0  0  0
    1.8333   -0.5274    0.0000 O   0  0  0  0  0  0  0  0  0  0  0  0
    2.5478   -0.9399    0.0000 C   0  0  0  0  0  0  0  0  0  0  0  0
    3.2623   -0.5274    0.0000 C   0  0  0  0  0  0  0  0  0  0  0  0
    2.5478   -1.7649    0.0000 C   0  0  0  0  0  0  0  0  0  0  0  0
  1  2  1  0  0  0  0
  1  3  1  0  0  0  0
  3  4  1  0  0  0  0
  4  5  1  0  0  0  0
  5  6  1  0  0  0  0
  5  7  1  0  0  0  0
M  END
> <ChemID>
100246

> <CAS>
109-59-1

> <Original_SMILES>
CC(C)OCCO

> <preferred_name>
2-Isopropoxyethanol

> <dsstox_substance_id>
DTXSID4047466

> <dsstox_compound_id>
DTXCID2027466

> <qc_level>
DSSTox_High

> <Canonical_QSARr>
CC(C)OCCO

> <InChI_Code_QSARr>
InChI=1S/C5H12O2/c1-5(2)7-4-3-6/h5-6H,3-4H2,1-2H3

> <InChI Key_QSARr>
HCGFUIQPSOCUHI-UHFFFAOYSA-N

> <Salt_Solvent>


> <Salt_Solvent_ID>
0

> <MPID>
98803

> <OH Reference>
PORTER,E ET AL. (1997)

> <OH>
2.060000000000001E-11

> <OH Temperature>
25.0

> <LogOH>
-10.68613277963084

> <Tr_1_Tst_0>
1

$$$$
100247
  Mrv171c012241912032D          

  7  6  0  0  0  0            999 V2000
    0.3083   -1.2379    0.0000 C   0  0  0  0  0  0  0  0  0  0  0  0
    1.0228   -0.8254    0.0000 C   0  0  0  0  0  0  0  0  0  0  0  0
    1.7373   -1.2379    0.0000 O   0  0  0  0  0  0  0  0  0  0  0  0
    2.4517   -0.8254    0.0000 C   0  0  0  0  0  0  0  0  0  0  0  0
    3.1662   -1.2379    0.0000 C   0  0  0  0  0  0  0  0  0  0  0  0
    3.8807   -0.8254    0.0000 C   0  0  0  0  0  0  0  0  0  0  0  0
    1.0228   -0.0004    0.0000 O   0  0  0  0  0  0  0  0  0  0  0  0
  1  2  1  0  0  0  0
  2  3  1  0  0  0  0
  3  4  1  0  0  0  0
  4  5  1  0  0  0  0
  5  6  1  0  0  0  0
  2  7  2  0  0  0  0
M  END
> <ChemID>
100247

> <CAS>
109-60-4

> <Original_SMILES>
CCCOC(C)=O

> <preferred_name>
Propyl acetate

> <dsstox_substance_id>
DTXSID6021901

> <dsstox_compound_id>
DTXCID301901

> <qc_level>
DSSTox_Low

> <Canonical_QSARr>
CCCOC(C)=O

> <InChI_Code_QSARr>
InChI=1S/C5H10O2/c1-3-4-7-5(2)6/h3-4H2,1-2H3

> <InChI Key_QSARr>
YKYONYBAUNKHLG-UHFFFAOYSA-N

> <Salt_Solvent>


> <Salt_Solvent_ID>
0

> <MPID>
98804

> <OH Reference>
ATKINSON,R (1989)

> <OH>
3.4E-12

> <OH Temperature>
25.0

> <LogOH>
-11.468521082957729

> <Tr_1_Tst_0>
0

$$$$
100248
  Mrv171c012241912032D          

  5  4  0  0  0  0            999 V2000
    2.5849   -1.1044    0.0000 Br  0  0  0  0  0  0  0  0  0  0  0  0
    2.1724   -0.3900    0.0000 C   0  0  0  0  0  0  0  0  0  0  0  0
    1.3474   -0.3900    0.0000 C   0  0  0  0  0  0  0  0  0  0  0  0
    0.9349    0.3245    0.0000 C   0  0  0  0  0  0  0  0  0  0  0  0
    0.1099    0.3245    0.0000 C   0  0  0  0  0  0  0  0  0  0  0  0
  1  2  1  0  0  0  0
  2  3  1  0  0  0  0
  3  4  1  0  0  0  0
  4  5  1  0  0  0  0
M  END
> <ChemID>
100248

> <CAS>
109-65-9

> <Original_SMILES>
CCCCBr

> <preferred_name>
1-Bromobutane

> <dsstox_substance_id>
DTXSID6021903

> <dsstox_compound_id>
DTXCID101903

> <qc_level>
DSSTox_Low

> <Canonical_QSARr>
CCCCBr

> <InChI_Code_QSARr>
InChI=1S/C4H9Br/c1-2-3-4-5/h2-4H2,1H3

> <InChI Key_QSARr>
MPPPKRYCTPRNTB-UHFFFAOYSA-N

> <Salt_Solvent>


> <Salt_Solvent_ID>
0

> <MPID>
98805

> <OH Reference>
TOSATO,ML ET AL. (1991)

> <OH>
2.500000000000001E-12

> <OH Temperature>
25.0

> <LogOH>
-11.602059991327964

> <Tr_1_Tst_0>
1

$$$$
100249
  Mrv171c012241912032D          

  5  4  0  0  0  0            999 V2000
    2.1723   -0.3899    0.0000 C   0  0  0  0  0  0  0  0  0  0  0  0
    2.5848   -1.1044    0.0000 C   0  0  0  0  0  0  0  0  0  0  0  0
    1.3473   -0.3899    0.0000 C   0  0  0  0  0  0  0  0  0  0  0  0
    0.9348    0.3245    0.0000 C   0  0  0  0  0  0  0  0  0  0  0  0
    0.1098    0.3245    0.0000 C   0  0  0  0  0  0  0  0  0  0  0  0
  1  2  1  0  0  0  0
  1  3  1  0  0  0  0
  3  4  1  0  0  0  0
  4  5  1  0  0  0  0
M  END
> <ChemID>
100249

> <CAS>
109-66-0

> <Original_SMILES>
CCCCC

> <preferred_name>
Pentane

> <dsstox_substance_id>
DTXSID2025846

> <dsstox_compound_id>
DTXCID705846

> <qc_level>
DSSTox_Low

> <Canonical_QSARr>
CCCCC

> <InChI_Code_QSARr>
InChI=1S/C5H12/c1-3-5-4-2/h3-5H2,1-2H3

> <InChI Key_QSARr>
OFBQJSOFQDEBGM-UHFFFAOYSA-N

> <Salt_Solvent>


> <Salt_Solvent_ID>
0

> <MPID>
98806

> <OH Reference>
ATKINSON,R (1989)

> <OH>
3.940000000000001E-12

> <OH Temperature>
25.0

> <LogOH>
-11.404503778174423

> <Tr_1_Tst_0>
1

$$$$
100250
  Mrv171c012241912032D          

  5  4  0  0  0  0            999 V2000
    0.9348    0.3245    0.0000 C   0  0  0  0  0  0  0  0  0  0  0  0
    1.3473   -0.3899    0.0000 C   0  0  0  0  0  0  0  0  0  0  0  0
    2.1723   -0.3899    0.0000 C   0  0  0  0  0  0  0  0  0  0  0  0
    2.5848   -1.1044    0.0000 C   0  0  0  0  0  0  0  0  0  0  0  0
    0.1098    0.3245    0.0000 C   0  0  0  0  0  0  0  0  0  0  0  0
  1  2  1  0  0  0  0
  2  3  1  0  0  0  0
  3  4  1  0  0  0  0
  1  5  2  0  0  0  0
M  END
> <ChemID>
100250

> <CAS>
109-67-1

> <Original_SMILES>
CCCC=C

> <preferred_name>
1-Pentene

> <dsstox_substance_id>
DTXSID7025849

> <dsstox_compound_id>
DTXCID905849

> <qc_level>
DSSTox_High

> <Canonical_QSARr>
CCCC=C

> <InChI_Code_QSARr>
InChI=1S/C5H10/c1-3-5-4-2/h3H,1,4-5H2,2H3

> <InChI Key_QSARr>
YWAKXRMUMFPDSH-UHFFFAOYSA-N

> <Salt_Solvent>


> <Salt_Solvent_ID>
0

> <MPID>
98807

> <OH Reference>
KWOK,ESC & ATKINSON,R (1994)

> <OH>
3.19E-11

> <OH Temperature>
25.0

> <LogOH>
-10.49620931694284

> <Tr_1_Tst_0>
1

$$$$
100251
  Mrv171c012241912032D          

  5  4  0  0  0  0            999 V2000
    2.5848   -1.1044    0.0000 C   0  0  0  0  0  0  0  0  0  0  0  0
    2.1723   -0.3899    0.0000 C   0  0  0  0  0  0  0  0  0  0  0  0
    1.3473   -0.3899    0.0000 C   0  0  0  0  0  0  0  0  0  0  0  0
    0.9348    0.3245    0.0000 C   0  0  0  0  0  0  0  0  0  0  0  0
    0.1098    0.3245    0.0000 Cl  0  0  0  0  0  0  0  0  0  0  0  0
  1  2  1  0  0  0  0
  2  3  1  0  0  0  0
  3  4  1  0  0  0  0
  4  5  1  0  0  0  0
M  END
> <ChemID>
100251

> <CAS>
109-69-3

> <Original_SMILES>
CCCCCl

> <preferred_name>
1-Chlorobutane

> <dsstox_substance_id>
DTXSID8020206

> <dsstox_compound_id>
DTXCID00206

> <qc_level>
DSSTox_Low

> <Canonical_QSARr>
CCCCCl

> <InChI_Code_QSARr>
InChI=1S/C4H9Cl/c1-2-3-4-5/h2-4H2,1H3

> <InChI Key_QSARr>
VFWCMGCRMGJXDK-UHFFFAOYSA-N

> <Salt_Solvent>


> <Salt_Solvent_ID>
0

> <MPID>
98808

> <OH Reference>
MARKERT,F & NIELSEN,OJ (1992)

> <OH>
1.5E-12

> <OH Temperature>
25.0

> <LogOH>
-11.823908740944326

> <Tr_1_Tst_0>
0

$$$$
100252
  Mrv171c012241912032D          

  5  4  0  0  0  0            999 V2000
    2.1730   -0.3945    0.0000 C   0  0  0  0  0  0  0  0  0  0  0  0
    2.5855   -1.1090    0.0000 S   0  0  0  0  0  0  0  0  0  0  0  0
    1.3480   -0.3945    0.0000 C   0  0  0  0  0  0  0  0  0  0  0  0
    0.9355    0.3199    0.0000 C   0  0  0  0  0  0  0  0  0  0  0  0
    0.1105    0.3199    0.0000 C   0  0  0  0  0  0  0  0  0  0  0  0
  1  2  1  0  0  0  0
  1  3  1  0  0  0  0
  3  4  1  0  0  0  0
  4  5  1  0  0  0  0
M  END
> <ChemID>
100252

> <CAS>
109-79-5

> <Original_SMILES>
CCCCS

> <preferred_name>
1-Butanethiol

> <dsstox_substance_id>
DTXSID6026824

> <dsstox_compound_id>
DTXCID406824

> <qc_level>
DSSTox_Low

> <Canonical_QSARr>
CCCCS

> <InChI_Code_QSARr>
InChI=1S/C4H10S/c1-2-3-4-5/h5H,2-4H2,1H3

> <InChI Key_QSARr>
WQAQPCDUOCURKW-UHFFFAOYSA-N

> <Salt_Solvent>


> <Salt_Solvent_ID>
0

> <MPID>
98809

> <OH Reference>
ATKINSON,R (1989)

> <OH>
5.1E-11

> <OH Temperature>
25.0

> <LogOH>
-10.292429823902053

> <Tr_1_Tst_0>
1

$$$$
100253
  Mrv171c012241912032D          

  5  4  0  0  0  0            999 V2000
    2.3095   -1.7165    0.0000 C   0  0  0  0  0  0  0  0  0  0  0  0
    1.8970   -1.0020    0.0000 O   0  0  0  0  0  0  0  0  0  0  0  0
    1.0720   -1.0020    0.0000 C   0  0  0  0  0  0  0  0  0  0  0  0
    0.6595   -0.2876    0.0000 C   0  0  0  0  0  0  0  0  0  0  0  0
   -0.1655   -0.2876    0.0000 O   0  0  0  0  0  0  0  0  0  0  0  0
  1  2  1  0  0  0  0
  2  3  1  0  0  0  0
  3  4  1  0  0  0  0
  4  5  1  0  0  0  0
M  END
> <ChemID>
100253

> <CAS>
109-86-4

> <Original_SMILES>
COCCO

> <preferred_name>
2-Methoxyethanol

> <dsstox_substance_id>
DTXSID5024182

> <dsstox_compound_id>
DTXCID804182

> <qc_level>
DSSTox_Low

> <Canonical_QSARr>
COCCO

> <InChI_Code_QSARr>
InChI=1S/C3H8O2/c1-5-3-2-4/h4H,2-3H2,1H3

> <InChI Key_QSARr>
XNWFRZJHXBZDAG-UHFFFAOYSA-N

> <Salt_Solvent>


> <Salt_Solvent_ID>
0

> <MPID>
98810

> <OH Reference>
ATKINSON,R (1989)

> <OH>
1.25E-11

> <OH Temperature>
25.0

> <LogOH>
-10.903089986991946

> <Tr_1_Tst_0>
1

$$$$
100254
  Mrv171c012241912032D          

  5  4  0  0  0  0            999 V2000
    2.1772   -0.3874    0.0000 O   0  0  0  0  0  0  0  0  0  0  0  0
    2.5897   -1.1018    0.0000 C   0  0  0  0  0  0  0  0  0  0  0  0
    1.3522   -0.3874    0.0000 C   0  0  0  0  0  0  0  0  0  0  0  0
    0.9397    0.3271    0.0000 O   0  0  0  0  0  0  0  0  0  0  0  0
    0.1147    0.3271    0.0000 C   0  0  0  0  0  0  0  0  0  0  0  0
  1  2  1  0  0  0  0
  1  3  1  0  0  0  0
  3  4  1  0  0  0  0
  4  5  1  0  0  0  0
M  END
> <ChemID>
100254

> <CAS>
109-87-5

> <Original_SMILES>
COCOC

> <preferred_name>
Dimethoxymethane

> <dsstox_substance_id>
DTXSID1025564

> <dsstox_compound_id>
DTXCID905564

> <qc_level>
DSSTox_Low

> <Canonical_QSARr>
COCOC

> <InChI_Code_QSARr>
InChI=1S/C3H8O2/c1-4-3-5-2/h3H2,1-2H3

> <InChI Key_QSARr>
NKDDWNXOKDWJAK-UHFFFAOYSA-N

> <Salt_Solvent>


> <Salt_Solvent_ID>
0

> <MPID>
98811

> <OH Reference>
PORTER,E ET AL. (1997)

> <OH>
4.9E-12

> <OH Temperature>
25.0

> <LogOH>
-11.309803919971499

> <Tr_1_Tst_0>
0

$$$$
100256
  Mrv171c012241912032D          

  5  4  0  0  0  0            999 V2000
    0.9349    0.3245    0.0000 C   0  0  0  0  0  0  0  0  0  0  0  0
    1.3474   -0.3900    0.0000 O   0  0  0  0  0  0  0  0  0  0  0  0
    2.1724   -0.3900    0.0000 C   0  0  0  0  0  0  0  0  0  0  0  0
    2.5849   -1.1045    0.0000 C   0  0  0  0  0  0  0  0  0  0  0  0
    0.1099    0.3245    0.0000 O   0  0  0  0  0  0  0  0  0  0  0  0
  1  2  1  0  0  0  0
  2  3  1  0  0  0  0
  3  4  1  0  0  0  0
  1  5  2  0  0  0  0
M  END
> <ChemID>
100256

> <CAS>
109-94-4

> <Original_SMILES>
CCOC=O

> <preferred_name>
Ethyl formate

> <dsstox_substance_id>
DTXSID6040117

> <dsstox_compound_id>
DTXCID4020117

> <qc_level>
DSSTox_Low

> <Canonical_QSARr>
CCOC=O

> <InChI_Code_QSARr>
InChI=1S/C3H6O2/c1-2-5-3-4/h3H,2H2,1H3

> <InChI Key_QSARr>
WBJINCZRORDGAQ-UHFFFAOYSA-N

> <Salt_Solvent>


> <Salt_Solvent_ID>
0

> <MPID>
98812

> <OH Reference>
ATKINSON,R (1989)

> <OH>
1.02E-12

> <OH Temperature>
25.0

> <LogOH>
-11.991399828238094

> <Tr_1_Tst_0>
1

$$$$
100257
  Mrv171c012241912032D          

  5  4  0  0  0  0            999 V2000
    2.5849   -1.1045    0.0000 C   0  0  0  0  0  0  0  0  0  0  0  0
    2.1724   -0.3900    0.0000 C   0  0  0  0  0  0  0  0  0  0  0  0
    1.3474   -0.3900    0.0000 O   0  0  0  0  0  0  0  0  0  0  0  0
    0.9349    0.3245    0.0000 N   0  0  0  0  0  0  0  0  0  0  0  0
    0.1099    0.3245    0.0000 O   0  0  0  0  0  0  0  0  0  0  0  0
  1  2  1  0  0  0  0
  2  3  1  0  0  0  0
  3  4  1  0  0  0  0
  4  5  2  0  0  0  0
M  END
> <ChemID>
100257

> <CAS>
109-95-5

> <Original_SMILES>
CCON=O

> <preferred_name>
Ethyl nitrite

> <dsstox_substance_id>
DTXSID9046574

> <dsstox_compound_id>
DTXCID7026574

> <qc_level>
DSSTox_Low

> <Canonical_QSARr>
CCON=O

> <InChI_Code_QSARr>
InChI=1S/C2H5NO2/c1-2-5-3-4/h2H2,1H3

> <InChI Key_QSARr>
QQZWEECEMNQSTG-UHFFFAOYSA-N

> <Salt_Solvent>


> <Salt_Solvent_ID>
0

> <MPID>
98813

> <OH Reference>
ATKINSON,R (1994)

> <OH>
7.0E-13

> <OH Temperature>
25.0

> <LogOH>
-12.15490195998575

> <Tr_1_Tst_0>
1

$$$$
100258
  Mrv171c012241912032D          

  5  5  0  0  0  0            999 V2000
    1.3350   -0.3511    0.0000 N   0  0  0  0  0  0  0  0  0  0  0  0
    0.6676    0.1338    0.0000 C   0  0  0  0  0  0  0  0  0  0  0  0
    0.0001   -0.3511    0.0000 C   0  0  0  0  0  0  0  0  0  0  0  0
    0.2551   -1.1357    0.0000 C   0  0  0  0  0  0  0  0  0  0  0  0
    1.0801   -1.1357    0.0000 C   0  0  0  0  0  0  0  0  0  0  0  0
  2  1  1  0  0  0  0
  3  2  2  0  0  0  0
  4  3  1  0  0  0  0
  5  4  2  0  0  0  0
  1  5  1  0  0  0  0
M  END
> <ChemID>
100258

> <CAS>
109-97-7

> <Original_SMILES>
c1ccc[nH]1

> <preferred_name>
Pyrrole

> <dsstox_substance_id>
DTXSID5021910

> <dsstox_compound_id>
DTXCID201910

> <qc_level>
DSSTox_Low

> <Canonical_QSARr>
C1=CC=CN1

> <InChI_Code_QSARr>
InChI=1S/C4H5N/c1-2-4-5-3-1/h1-5H

> <InChI Key_QSARr>
KAESVJOAVNADME-UHFFFAOYSA-N

> <Salt_Solvent>


> <Salt_Solvent_ID>
0

> <MPID>
98814

> <OH Reference>
ATKINSON,R (1989)

> <OH>
1.1E-10

> <OH Temperature>
25.0

> <LogOH>
-9.95860731484176

> <Tr_1_Tst_0>
0

$$$$
100259
  Mrv171c012241912032D          

  5  5  0  0  0  0            999 V2000
    1.3286   -0.4612    0.0000 O   0  0  0  0  0  0  0  0  0  0  0  0
    0.6612    0.0237    0.0000 C   0  0  0  0  0  0  0  0  0  0  0  0
   -0.0062   -0.4612    0.0000 C   0  0  0  0  0  0  0  0  0  0  0  0
    0.2487   -1.2458    0.0000 C   0  0  0  0  0  0  0  0  0  0  0  0
    1.0737   -1.2458    0.0000 C   0  0  0  0  0  0  0  0  0  0  0  0
  2  1  1  0  0  0  0
  3  2  1  0  0  0  0
  4  3  1  0  0  0  0
  5  4  1  0  0  0  0
  1  5  1  0  0  0  0
M  END
> <ChemID>
100259

> <CAS>
109-99-9

> <Original_SMILES>
C1CCCO1

> <preferred_name>
Tetrahydrofuran

> <dsstox_substance_id>
DTXSID1021328

> <dsstox_compound_id>
DTXCID501328

> <qc_level>
DSSTox_Low

> <Canonical_QSARr>
C1CCCO1

> <InChI_Code_QSARr>
InChI=1S/C4H8O/c1-2-4-5-3-1/h1-4H2

> <InChI Key_QSARr>
WYURNTSHIVDZCO-UHFFFAOYSA-N

> <Salt_Solvent>


> <Salt_Solvent_ID>
0

> <MPID>
98815

> <OH Reference>
ATKINSON,R (1989)

> <OH>
1.61E-11

> <OH Temperature>
25.0

> <LogOH>
-10.793174123968136

> <Tr_1_Tst_0>
1

$$$$
100260
  Mrv171c012241912032D          

  5  5  0  0  0  0            999 V2000
    1.3347   -0.3508    0.0000 C   0  0  0  0  0  0  0  0  0  0  0  0
    0.6672    0.1341    0.0000 C   0  0  0  0  0  0  0  0  0  0  0  0
   -0.0002   -0.3508    0.0000 C   0  0  0  0  0  0  0  0  0  0  0  0
    0.2547   -1.1354    0.0000 O   0  0  0  0  0  0  0  0  0  0  0  0
    1.0797   -1.1354    0.0000 C   0  0  0  0  0  0  0  0  0  0  0  0
  2  1  1  0  0  0  0
  3  2  2  0  0  0  0
  4  3  1  0  0  0  0
  5  4  1  0  0  0  0
  1  5  2  0  0  0  0
M  END
> <ChemID>
100260

> <CAS>
110-00-9

> <Original_SMILES>
c1ccco1

> <preferred_name>
Furan

> <dsstox_substance_id>
DTXSID6020646

> <dsstox_compound_id>
DTXCID20646

> <qc_level>
DSSTox_Low

> <Canonical_QSARr>
C1=CC=CO1

> <InChI_Code_QSARr>
InChI=1S/C4H4O/c1-2-4-5-3-1/h1-4H

> <InChI Key_QSARr>
YLQBMQCUIZJEEH-UHFFFAOYSA-N

> <Salt_Solvent>


> <Salt_Solvent_ID>
0

> <MPID>
98816

> <OH Reference>
ATKINSON,R (1989)

> <OH>
4.049999999999999E-11

> <OH Temperature>
25.0

> <LogOH>
-10.39254497678535

> <Tr_1_Tst_0>
1

$$$$
100261
  Mrv171c012241912032D          

  5  5  0  0  0  0            999 V2000
    1.2365   -0.4495    0.0000 S   0  0  0  0  0  0  0  0  0  0  0  0
    0.5691    0.0354    0.0000 C   0  0  0  0  0  0  0  0  0  0  0  0
   -0.0984   -0.4495    0.0000 C   0  0  0  0  0  0  0  0  0  0  0  0
    0.1566   -1.2341    0.0000 C   0  0  0  0  0  0  0  0  0  0  0  0
    0.9816   -1.2341    0.0000 C   0  0  0  0  0  0  0  0  0  0  0  0
  2  1  1  0  0  0  0
  3  2  1  0  0  0  0
  4  3  1  0  0  0  0
  5  4  1  0  0  0  0
  1  5  1  0  0  0  0
M  END
> <ChemID>
100261

> <CAS>
110-01-0

> <Original_SMILES>
C1CCCS1

> <preferred_name>
Tetrahydrothiophene

> <dsstox_substance_id>
DTXSID3047760

> <dsstox_compound_id>
DTXCID8027743

> <qc_level>
DSSTox_Low

> <Canonical_QSARr>
C1CCCS1

> <InChI_Code_QSARr>
InChI=1S/C4H8S/c1-2-4-5-3-1/h1-4H2

> <InChI Key_QSARr>
RAOIDOHSFRTOEL-UHFFFAOYSA-N

> <Salt_Solvent>


> <Salt_Solvent_ID>
0

> <MPID>
98817

> <OH Reference>
ATKINSON,R (1989)

> <OH>
1.97E-11

> <OH Temperature>
25.0

> <LogOH>
-10.705533773838404

> <Tr_1_Tst_0>
1

$$$$
100262
  Mrv171c012241912032D          

  5  5  0  0  0  0            999 V2000
    1.3347   -0.3508    0.0000 C   0  0  0  0  0  0  0  0  0  0  0  0
    0.6672    0.1341    0.0000 C   0  0  0  0  0  0  0  0  0  0  0  0
   -0.0002   -0.3508    0.0000 C   0  0  0  0  0  0  0  0  0  0  0  0
    0.2547   -1.1354    0.0000 S   0  0  0  0  0  0  0  0  0  0  0  0
    1.0797   -1.1354    0.0000 C   0  0  0  0  0  0  0  0  0  0  0  0
  2  1  1  0  0  0  0
  3  2  2  0  0  0  0
  4  3  1  0  0  0  0
  5  4  1  0  0  0  0
  1  5  2  0  0  0  0
M  END
> <ChemID>
100262

> <CAS>
110-02-1

> <Original_SMILES>
c1ccc[s]1

> <preferred_name>
Thiophene

> <dsstox_substance_id>
DTXSID8026145

> <dsstox_compound_id>
DTXCID006145

> <qc_level>
DSSTox_Low

> <Canonical_QSARr>
C1=CC=CS1

> <InChI_Code_QSARr>
InChI=1S/C4H4S/c1-2-4-5-3-1/h1-4H

> <InChI Key_QSARr>
YTPLMLYBLZKORZ-UHFFFAOYSA-N

> <Salt_Solvent>


> <Salt_Solvent_ID>
0

> <MPID>
98818

> <OH Reference>
ATKINSON,R (1989)

> <OH>
9.530000000000003E-12

> <OH Temperature>
25.0

> <LogOH>
-11.020907099361656

> <Tr_1_Tst_0>
0

$$$$
100263
  Mrv171c012241912032D          

  8  7  0  0  0  0            999 V2000
    0.0018   -1.2379    0.0000 C   0  0  0  0  0  0  0  0  0  0  0  0
    0.7162   -0.8254    0.0000 C   0  0  0  0  0  0  0  0  0  0  0  0
    1.4307   -1.2379    0.0000 C   0  0  0  0  0  0  0  0  0  0  0  0
    2.1452   -0.8254    0.0000 C   0  0  0  0  0  0  0  0  0  0  0  0
    2.8597   -1.2379    0.0000 C   0  0  0  0  0  0  0  0  0  0  0  0
    3.5741   -0.8254    0.0000 C   0  0  0  0  0  0  0  0  0  0  0  0
    2.8597   -2.0629    0.0000 C   0  0  0  0  0  0  0  0  0  0  0  0
    0.7162   -0.0004    0.0000 O   0  0  0  0  0  0  0  0  0  0  0  0
  1  2  1  0  0  0  0
  2  3  1  0  0  0  0
  3  4  1  0  0  0  0
  4  5  1  0  0  0  0
  5  6  1  0  0  0  0
  5  7  1  0  0  0  0
  2  8  2  0  0  0  0
M  END
> <ChemID>
100263

> <CAS>
110-12-3

> <Original_SMILES>
CC(C)CCC(C)=O

> <preferred_name>
5-Methyl-2-hexanone

> <dsstox_substance_id>
DTXSID5021914

> <dsstox_compound_id>
DTXCID801914

> <qc_level>
DSSTox_Low

> <Canonical_QSARr>
CC(C)CCC(C)=O

> <InChI_Code_QSARr>
InChI=1S/C7H14O/c1-6(2)4-5-7(3)8/h6H,4-5H2,1-3H3

> <InChI Key_QSARr>
FFWSICBKRCICMR-UHFFFAOYSA-N

> <Salt_Solvent>


> <Salt_Solvent_ID>
0

> <MPID>
98819

> <OH Reference>
LECALVE,S ET AL. (1998)

> <OH>
1.03E-11

> <OH Temperature>
25.0

> <LogOH>
-10.987162775294845

> <Tr_1_Tst_0>
1

$$$$
100264
  Mrv171c012241912032D          

  8  7  0  0  0  0            999 V2000
   -0.0021   -1.2375    0.0000 C   0  0  0  0  0  0  0  0  0  0  0  0
    0.7124   -0.8250    0.0000 C   0  0  0  0  0  0  0  0  0  0  0  0
    0.7124    0.0000    0.0000 O   0  0  0  0  0  0  0  0  0  0  0  0
    1.4269   -1.2375    0.0000 C   0  0  0  0  0  0  0  0  0  0  0  0
    2.1414   -0.8250    0.0000 C   0  0  0  0  0  0  0  0  0  0  0  0
    2.8558   -1.2375    0.0000 C   0  0  0  0  0  0  0  0  0  0  0  0
    3.5703   -0.8250    0.0000 O   0  0  0  0  0  0  0  0  0  0  0  0
    2.8558   -2.0625    0.0000 C   0  0  0  0  0  0  0  0  0  0  0  0
  1  2  1  0  0  0  0
  2  3  2  0  0  0  0
  2  4  1  0  0  0  0
  4  5  1  0  0  0  0
  5  6  1  0  0  0  0
  6  7  2  0  0  0  0
  6  8  1  0  0  0  0
M  END
> <ChemID>
100264

> <CAS>
110-13-4

> <Original_SMILES>
CC(=O)CCC(C)=O

> <preferred_name>
2,5-Hexanedione

> <dsstox_substance_id>
DTXSID8030138

> <dsstox_compound_id>
DTXCID6010138

> <qc_level>
DSSTox_Low

> <Canonical_QSARr>
CC(=O)CCC(C)=O

> <InChI_Code_QSARr>
InChI=1S/C6H10O2/c1-5(7)3-4-6(2)8/h3-4H2,1-2H3

> <InChI Key_QSARr>
OJVAMHKKJGICOG-UHFFFAOYSA-N

> <Salt_Solvent>


> <Salt_Solvent_ID>
0

> <MPID>
98820

> <OH Reference>
ATKINSON,R (1989)

> <OH>
7.130000000000001E-12

> <OH Temperature>
25.0

> <LogOH>
-11.146910470148114

> <Tr_1_Tst_0>
1

$$$$
100265
  Mrv171c012241912032D          

  8  7  0  0  0  0            999 V2000
    0.7125   -0.8250    0.0000 C   0  0  0  0  0  0  0  0  0  0  0  0
   -0.0020   -1.2375    0.0000 C   0  0  0  0  0  0  0  0  0  0  0  0
    1.4270   -1.2375    0.0000 O   0  0  0  0  0  0  0  0  0  0  0  0
    2.1415   -0.8250    0.0000 C   0  0  0  0  0  0  0  0  0  0  0  0
    2.8559   -1.2375    0.0000 C   0  0  0  0  0  0  0  0  0  0  0  0
    3.5704   -0.8250    0.0000 C   0  0  0  0  0  0  0  0  0  0  0  0
    2.8559   -2.0625    0.0000 C   0  0  0  0  0  0  0  0  0  0  0  0
    0.7125   -0.0000    0.0000 O   0  0  0  0  0  0  0  0  0  0  0  0
  1  2  1  0  0  0  0
  1  3  1  0  0  0  0
  3  4  1  0  0  0  0
  4  5  1  0  0  0  0
  5  6  1  0  0  0  0
  5  7  1  0  0  0  0
  1  8  2  0  0  0  0
M  END
> <ChemID>
100265

> <CAS>
110-19-0

> <Original_SMILES>
CC(C)COC(C)=O

> <preferred_name>
Isobutyl acetate

> <dsstox_substance_id>
DTXSID5026837

> <dsstox_compound_id>
DTXCID906837

> <qc_level>
DSSTox_Low

> <Canonical_QSARr>
CC(C)COC(C)=O

> <InChI_Code_QSARr>
InChI=1S/C6H12O2/c1-5(2)4-8-6(3)7/h5H,4H2,1-3H3

> <InChI Key_QSARr>
GJRQTCIYDGXPES-UHFFFAOYSA-N

> <Salt_Solvent>


> <Salt_Solvent_ID>
0

> <MPID>
98821

> <OH Reference>
ATKINSON,R (1989)

> <OH>
5.5E-12

> <OH Temperature>
25.0

> <LogOH>
-11.259637310505745

> <Tr_1_Tst_0>
1

$$$$
100266
  Mrv171c012241912032D          

  8  7  0  0  0  0            999 V2000
   -0.0022   -0.6195    0.0000 C   0  0  0  0  0  0  0  0  0  0  0  0
    0.7122   -1.0320    0.0000 C   0  0  0  0  0  0  0  0  0  0  0  0
    1.4267   -0.6195    0.0000 C   0  0  0  0  0  0  0  0  0  0  0  0
    2.1412   -1.0320    0.0000 C   0  0  0  0  0  0  0  0  0  0  0  0
    2.8556   -0.6195    0.0000 C   0  0  0  0  0  0  0  0  0  0  0  0
    3.5701   -1.0320    0.0000 C   0  0  0  0  0  0  0  0  0  0  0  0
    4.2846   -0.6195    0.0000 C   0  0  0  0  0  0  0  0  0  0  0  0
    3.5701   -1.8570    0.0000 O   0  0  0  0  0  0  0  0  0  0  0  0
  1  2  1  0  0  0  0
  2  3  1  0  0  0  0
  3  4  1  0  0  0  0
  4  5  1  0  0  0  0
  5  6  1  0  0  0  0
  6  7  1  0  0  0  0
  6  8  2  0  0  0  0
M  END
> <ChemID>
100266

> <CAS>
110-43-0

> <Original_SMILES>
CCCCCC(C)=O

> <preferred_name>
2-Heptanone

> <dsstox_substance_id>
DTXSID5021916

> <dsstox_compound_id>
DTXCID601916

> <qc_level>
DSSTox_Low

> <Canonical_QSARr>
CCCCCC(C)=O

> <InChI_Code_QSARr>
InChI=1S/C7H14O/c1-3-4-5-6-7(2)8/h3-6H2,1-2H3

> <InChI Key_QSARr>
CATSNJVOTSVZJV-UHFFFAOYSA-N

> <Salt_Solvent>


> <Salt_Solvent_ID>
0

> <MPID>
98822

> <OH Reference>
ATKINSON,R ET AL. (2000)

> <OH>
1.17E-11

> <OH Temperature>
25.0

> <LogOH>
-10.931814138253822

> <Tr_1_Tst_0>
0

$$$$
100267
  Mrv171c012241912032D          

  6  5  0  0  0  0            999 V2000
    0.7343    0.0053    0.0000 C   0  0  0  0  0  0  0  0  0  0  0  0
    0.0199   -0.4072    0.0000 Br  0  0  0  0  0  0  0  0  0  0  0  0
    1.4488   -0.4072    0.0000 C   0  0  0  0  0  0  0  0  0  0  0  0
    2.1633    0.0053    0.0000 C   0  0  0  0  0  0  0  0  0  0  0  0
    2.8778   -0.4072    0.0000 C   0  0  0  0  0  0  0  0  0  0  0  0
    3.5922    0.0053    0.0000 C   0  0  0  0  0  0  0  0  0  0  0  0
  1  2  1  0  0  0  0
  1  3  1  0  0  0  0
  3  4  1  0  0  0  0
  4  5  1  0  0  0  0
  5  6  1  0  0  0  0
M  END
> <ChemID>
100267

> <CAS>
110-53-2

> <Original_SMILES>
CCCCCBr

> <preferred_name>
1-Bromopentane

> <dsstox_substance_id>
DTXSID3049203

> <dsstox_compound_id>
DTXCID8028474

> <qc_level>
DSSTox_Low

> <Canonical_QSARr>
CCCCCBr

> <InChI_Code_QSARr>
InChI=1S/C5H11Br/c1-2-3-4-5-6/h2-5H2,1H3

> <InChI Key_QSARr>
YZWKKMVJZFACSU-UHFFFAOYSA-N

> <Salt_Solvent>


> <Salt_Solvent_ID>
0

> <MPID>
98823

> <OH Reference>
DONAGHY,T ET AL. (1993)

> <OH>
3.96E-12

> <OH Temperature>
25.0

> <LogOH>
-11.402304814074503

> <Tr_1_Tst_0>
1

$$$$
100268
  Mrv171c012241912032D          

  6  5  0  0  0  0            999 V2000
    0.0018   -0.4119    0.0000 C   0  0  0  0  0  0  0  0  0  0  0  0
    0.7163    0.0006    0.0000 C   0  0  0  0  0  0  0  0  0  0  0  0
    1.4307   -0.4119    0.0000 C   0  0  0  0  0  0  0  0  0  0  0  0
    2.1452    0.0006    0.0000 C   0  0  0  0  0  0  0  0  0  0  0  0
    2.8597   -0.4119    0.0000 C   0  0  0  0  0  0  0  0  0  0  0  0
    3.5741    0.0006    0.0000 C   0  0  0  0  0  0  0  0  0  0  0  0
  1  2  1  0  0  0  0
  2  3  1  0  0  0  0
  3  4  1  0  0  0  0
  4  5  1  0  0  0  0
  5  6  1  0  0  0  0
M  END
> <ChemID>
100268

> <CAS>
110-54-3

> <Original_SMILES>
CCCCCC

> <preferred_name>
Hexane

> <dsstox_substance_id>
DTXSID0021917

> <dsstox_compound_id>
DTXCID001917

> <qc_level>
DSSTox_Low

> <Canonical_QSARr>
CCCCCC

> <InChI_Code_QSARr>
InChI=1S/C6H14/c1-3-5-6-4-2/h3-6H2,1-2H3

> <InChI Key_QSARr>
VLKZOEOYAKHREP-UHFFFAOYSA-N

> <Salt_Solvent>


> <Salt_Solvent_ID>
0

> <MPID>
98824

> <OH Reference>
ATKINSON,R (1989)

> <OH>
5.610000000000001E-12

> <OH Temperature>
25.0

> <LogOH>
-11.251037138743818

> <Tr_1_Tst_0>
1

$$$$
100269
  Mrv171c012241912032D          

  6  5  0  0  0  0            999 V2000
    0.0018   -0.4119    0.0000 C   0  0  0  0  0  0  0  0  0  0  0  0
    0.7163    0.0006    0.0000 C   0  0  0  0  0  0  0  0  0  0  0  0
    1.4307   -0.4119    0.0000 C   0  0  0  0  0  0  0  0  0  0  0  0
    2.1452    0.0006    0.0000 C   0  0  0  0  0  0  0  0  0  0  0  0
    2.8597   -0.4119    0.0000 C   0  0  0  0  0  0  0  0  0  0  0  0
    3.5741    0.0006    0.0000 O   0  0  0  0  0  0  0  0  0  0  0  0
  1  2  1  0  0  0  0
  2  3  1  0  0  0  0
  3  4  1  0  0  0  0
  4  5  1  0  0  0  0
  5  6  2  0  0  0  0
M  END
> <ChemID>
100269

> <CAS>
110-62-3

> <Original_SMILES>
CCCCC=O

> <preferred_name>
Pentanal

> <dsstox_substance_id>
DTXSID7021653

> <dsstox_compound_id>
DTXCID001653

> <qc_level>
DSSTox_Low

> <Canonical_QSARr>
CCCCC=O

> <InChI_Code_QSARr>
InChI=1S/C5H10O/c1-2-3-4-5-6/h5H,2-4H2,1H3

> <InChI Key_QSARr>
HGBOYTHUEUWSSQ-UHFFFAOYSA-N

> <Salt_Solvent>


> <Salt_Solvent_ID>
0

> <MPID>
98825

> <OH Reference>
ATKINSON,R (1989)

> <OH>
2.85E-11

> <OH Temperature>
25.0

> <LogOH>
-10.54515513999147

> <Tr_1_Tst_0>
1

$$$$
100270
  Mrv171c012241912032D          

  6  5  0  0  0  0            999 V2000
    2.1451    0.0006    0.0000 C   0  0  0  0  0  0  0  0  0  0  0  0
    1.4307   -0.4119    0.0000 C   0  0  0  0  0  0  0  0  0  0  0  0
    0.7162    0.0006    0.0000 O   0  0  0  0  0  0  0  0  0  0  0  0
    0.0017   -0.4119    0.0000 C   0  0  0  0  0  0  0  0  0  0  0  0
    2.8596   -0.4119    0.0000 O   0  0  0  0  0  0  0  0  0  0  0  0
    3.5741    0.0006    0.0000 C   0  0  0  0  0  0  0  0  0  0  0  0
  1  2  1  0  0  0  0
  2  3  1  0  0  0  0
  3  4  1  0  0  0  0
  1  5  1  0  0  0  0
  5  6  1  0  0  0  0
M  END
> <ChemID>
100270

> <CAS>
110-71-4

> <Original_SMILES>
COCCOC

> <preferred_name>
Ethylene glycol dimethyl ether

> <dsstox_substance_id>
DTXSID0025286

> <dsstox_compound_id>
DTXCID705286

> <qc_level>
DSSTox_Low

> <Canonical_QSARr>
COCCOC

> <InChI_Code_QSARr>
InChI=1S/C4H10O2/c1-5-3-4-6-2/h3-4H2,1-2H3

> <InChI Key_QSARr>
XTHFKEDIFFGKHM-UHFFFAOYSA-N

> <Salt_Solvent>


> <Salt_Solvent_ID>
0

> <MPID>
98826

> <OH Reference>
PORTER,E ET AL. (1997)

> <OH>
2.74E-11

> <OH Temperature>
25.0

> <LogOH>
-10.5622494371796

> <Tr_1_Tst_0>
0

$$$$
100271
  Mrv171c012241912032D          

  6  5  0  0  0  0            999 V2000
    1.2375    0.7145    0.0000 C   0  0  0  0  0  0  0  0  0  0  0  0
    0.5230    1.1270    0.0000 C   0  0  0  0  0  0  0  0  0  0  0  0
   -0.1915    0.7145    0.0000 C   0  0  0  0  0  0  0  0  0  0  0  0
    1.9519    1.1270    0.0000 O   0  0  0  0  0  0  0  0  0  0  0  0
    2.6664    0.7145    0.0000 C   0  0  0  0  0  0  0  0  0  0  0  0
    3.3809    1.1270    0.0000 O   0  0  0  0  0  0  0  0  0  0  0  0
  1  2  1  0  0  0  0
  2  3  1  0  0  0  0
  1  4  1  0  0  0  0
  4  5  1  0  0  0  0
  5  6  2  0  0  0  0
M  END
> <ChemID>
100271

> <CAS>
110-74-7

> <Original_SMILES>
CCCOC=O

> <preferred_name>
Formic acid, propyl ester

> <dsstox_substance_id>
DTXSID3059391

> <dsstox_compound_id>
DTXCID6033166

> <qc_level>
Public_High

> <Canonical_QSARr>
CCCOC=O

> <InChI_Code_QSARr>
InChI=1S/C4H8O2/c1-2-3-6-4-5/h4H,2-3H2,1H3

> <InChI Key_QSARr>
KFNNIILCVOLYIR-UHFFFAOYSA-N

> <Salt_Solvent>


> <Salt_Solvent_ID>
0

> <MPID>
98827

> <OH Reference>
KWOK,ESC & ATKINSON,R (1994)

> <OH>
2.38E-12

> <OH Temperature>
25.0

> <LogOH>
-11.623423042943502

> <Tr_1_Tst_0>
1

$$$$
100272
  Mrv171c012241912032D          

  6  5  0  0  0  0            999 V2000
    0.0018   -0.4119    0.0000 O   0  0  0  0  0  0  0  0  0  0  0  0
    0.7162    0.0006    0.0000 C   0  0  0  0  0  0  0  0  0  0  0  0
    1.4307   -0.4119    0.0000 C   0  0  0  0  0  0  0  0  0  0  0  0
    2.1452    0.0006    0.0000 O   0  0  0  0  0  0  0  0  0  0  0  0
    2.8597   -0.4119    0.0000 C   0  0  0  0  0  0  0  0  0  0  0  0
    3.5741    0.0006    0.0000 C   0  0  0  0  0  0  0  0  0  0  0  0
  1  2  1  0  0  0  0
  2  3  1  0  0  0  0
  3  4  1  0  0  0  0
  4  5  1  0  0  0  0
  5  6  1  0  0  0  0
M  END
> <ChemID>
100272

> <CAS>
110-80-5

> <Original_SMILES>
CCOCCO

> <preferred_name>
2-Ethoxyethanol

> <dsstox_substance_id>
DTXSID7024087

> <dsstox_compound_id>
DTXCID604087

> <qc_level>
DSSTox_Low

> <Canonical_QSARr>
CCOCCO

> <InChI_Code_QSARr>
InChI=1S/C4H10O2/c1-2-6-4-3-5/h5H,2-4H2,1H3

> <InChI Key_QSARr>
ZNQVEEAIQZEUHB-UHFFFAOYSA-N

> <Salt_Solvent>


> <Salt_Solvent_ID>
0

> <MPID>
98828

> <OH Reference>
KWOK,ESC & ATKINSON,R (1994)

> <OH>
1.54E-11

> <OH Temperature>
25.0

> <LogOH>
-10.81247927916355

> <Tr_1_Tst_0>
1

$$$$
100273
  Mrv171c012241912032D          

  6  6  0  0  0  0            999 V2000
    1.4289   -0.4125    0.0000 C   0  0  0  0  0  0  0  0  0  0  0  0
    0.7145    0.0000    0.0000 C   0  0  0  0  0  0  0  0  0  0  0  0
    0.0000   -0.4125    0.0000 C   0  0  0  0  0  0  0  0  0  0  0  0
    0.0000   -1.2375    0.0000 C   0  0  0  0  0  0  0  0  0  0  0  0
    0.7145   -1.6500    0.0000 C   0  0  0  0  0  0  0  0  0  0  0  0
    1.4289   -1.2375    0.0000 C   0  0  0  0  0  0  0  0  0  0  0  0
  2  1  1  0  0  0  0
  3  2  1  0  0  0  0
  4  3  1  0  0  0  0
  5  4  1  0  0  0  0
  6  5  1  0  0  0  0
  1  6  1  0  0  0  0
M  END
> <ChemID>
100273

> <CAS>
110-82-7

> <Original_SMILES>
C1CCCCC1

> <preferred_name>
Cyclohexane

> <dsstox_substance_id>
DTXSID4021923

> <dsstox_compound_id>
DTXCID701923

> <qc_level>
DSSTox_Low

> <Canonical_QSARr>
C1CCCCC1

> <InChI_Code_QSARr>
InChI=1S/C6H12/c1-2-4-6-5-3-1/h1-6H2

> <InChI Key_QSARr>
XDTMQSROBMDMFD-UHFFFAOYSA-N

> <Salt_Solvent>


> <Salt_Solvent_ID>
0

> <MPID>
98829

> <OH Reference>
ATKINSON,R (1989)

> <OH>
7.49E-12

> <OH Temperature>
25.0

> <LogOH>
-11.125518182300524

> <Tr_1_Tst_0>
1

$$$$
100274
  Mrv171c012241912032D          

  6  6  0  0  0  0            999 V2000
    1.5292   -0.2943    0.0000 C   0  0  0  0  0  0  0  0  0  0  0  0
    0.8148    0.1182    0.0000 C   0  0  0  0  0  0  0  0  0  0  0  0
    0.1003   -0.2943    0.0000 C   0  0  0  0  0  0  0  0  0  0  0  0
    0.1003   -1.1193    0.0000 C   0  0  0  0  0  0  0  0  0  0  0  0
    0.8148   -1.5318    0.0000 C   0  0  0  0  0  0  0  0  0  0  0  0
    1.5292   -1.1193    0.0000 C   0  0  0  0  0  0  0  0  0  0  0  0
  2  1  1  0  0  0  0
  3  2  1  0  0  0  0
  4  3  1  0  0  0  0
  5  4  1  0  0  0  0
  6  5  1  0  0  0  0
  1  6  2  0  0  0  0
M  END
> <ChemID>
100274

> <CAS>
110-83-8

> <Original_SMILES>
C1CCCC=C1

> <preferred_name>
Cyclohexene

> <dsstox_substance_id>
DTXSID9038717

> <dsstox_compound_id>
DTXCID7018717

> <qc_level>
DSSTox_Low

> <Canonical_QSARr>
C1CCCC=C1

> <InChI_Code_QSARr>
InChI=1S/C6H10/c1-2-4-6-5-3-1/h1-2H,3-6H2

> <InChI Key_QSARr>
HGCIXCUEYOPUTN-UHFFFAOYSA-N

> <Salt_Solvent>


> <Salt_Solvent_ID>
0

> <MPID>
98830

> <OH Reference>
ATKINSON,R (1989)

> <OH>
6.770000000000001E-11

> <OH Temperature>
25.0

> <LogOH>
-10.169411331314846

> <Tr_1_Tst_0>
0

$$$$
100275
  Mrv171c012241912032D          

  6  6  0  0  0  0            999 V2000
    1.4289   -0.4125    0.0000 N   0  0  0  0  0  0  0  0  0  0  0  0
    0.7145    0.0000    0.0000 C   0  0  0  0  0  0  0  0  0  0  0  0
    0.0000   -0.4125    0.0000 C   0  0  0  0  0  0  0  0  0  0  0  0
    0.0000   -1.2375    0.0000 C   0  0  0  0  0  0  0  0  0  0  0  0
    0.7145   -1.6500    0.0000 C   0  0  0  0  0  0  0  0  0  0  0  0
    1.4289   -1.2375    0.0000 C   0  0  0  0  0  0  0  0  0  0  0  0
  2  1  1  0  0  0  0
  3  2  2  0  0  0  0
  4  3  1  0  0  0  0
  5  4  2  0  0  0  0
  6  5  1  0  0  0  0
  1  6  2  0  0  0  0
M  END
> <ChemID>
100275

> <CAS>
110-86-1

> <Original_SMILES>
c1cccc[n]1

> <preferred_name>
Pyridine

> <dsstox_substance_id>
DTXSID9021924

> <dsstox_compound_id>
DTXCID101924

> <qc_level>
DSSTox_Low

> <Canonical_QSARr>
C1=CC=CC=N1

> <InChI_Code_QSARr>
InChI=1S/C5H5N/c1-2-4-6-5-3-1/h1-5H

> <InChI Key_QSARr>
JUJWROOIHBZHMG-UHFFFAOYSA-N

> <Salt_Solvent>


> <Salt_Solvent_ID>
0

> <MPID>
98831

> <OH Reference>
ATKINSON,R (1989)

> <OH>
3.699999999999999E-13

> <OH Temperature>
25.0

> <LogOH>
-12.431798275932998

> <Tr_1_Tst_0>
1

$$$$
100276
  Mrv171c012241912032D          

  6  6  0  0  0  0            999 V2000
    1.4289   -0.4125    0.0000 C   0  0  0  0  0  0  0  0  0  0  0  0
    0.7145    0.0000    0.0000 O   0  0  0  0  0  0  0  0  0  0  0  0
    0.0000   -0.4125    0.0000 C   0  0  0  0  0  0  0  0  0  0  0  0
    0.0000   -1.2375    0.0000 O   0  0  0  0  0  0  0  0  0  0  0  0
    0.7145   -1.6500    0.0000 C   0  0  0  0  0  0  0  0  0  0  0  0
    1.4289   -1.2375    0.0000 O   0  0  0  0  0  0  0  0  0  0  0  0
  2  1  1  0  0  0  0
  3  2  1  0  0  0  0
  4  3  1  0  0  0  0
  5  4  1  0  0  0  0
  6  5  1  0  0  0  0
  1  6  1  0  0  0  0
M  END
> <ChemID>
100276

> <CAS>
110-88-3

> <Original_SMILES>
C1OCOCO1

> <preferred_name>
1,3,5-Trioxane

> <dsstox_substance_id>
DTXSID4021925

> <dsstox_compound_id>
DTXCID501925

> <qc_level>
DSSTox_Low

> <Canonical_QSARr>
C1OCOCO1

> <InChI_Code_QSARr>
InChI=1S/C3H6O3/c1-4-2-6-3-5-1/h1-3H2

> <InChI Key_QSARr>
BGJSXRVXTHVRSN-UHFFFAOYSA-N

> <Salt_Solvent>


> <Salt_Solvent_ID>
0

> <MPID>
98832

> <OH Reference>
ATKINSON,R (1989)

> <OH>
6.2E-12

> <OH Temperature>
25.0

> <LogOH>
-11.207608310501744

> <Tr_1_Tst_0>
1

$$$$
100277
  Mrv171c012241912032D          

  9  8  0  0  0  0            999 V2000
    3.1587    1.1116    0.0000 C   0  0  0  0  0  0  0  0  0  0  0  0
    2.7462    0.3971    0.0000 C   0  0  0  0  0  0  0  0  0  0  0  0
    1.9212    0.3971    0.0000 C   0  0  0  0  0  0  0  0  0  0  0  0
    1.5087   -0.3174    0.0000 C   0  0  0  0  0  0  0  0  0  0  0  0
    1.9212   -1.0318    0.0000 C   0  0  0  0  0  0  0  0  0  0  0  0
    1.5087   -1.7463    0.0000 C   0  0  0  0  0  0  0  0  0  0  0  0
    1.9212   -2.4608    0.0000 O   0  0  0  0  0  0  0  0  0  0  0  0
    0.6837   -1.7463    0.0000 C   0  0  0  0  0  0  0  0  0  0  0  0
    3.1587   -0.3174    0.0000 C   0  0  0  0  0  0  0  0  0  0  0  0
  1  2  1  0  0  0  0
  2  3  2  0  0  0  0
  3  4  1  0  0  0  0
  4  5  1  0  0  0  0
  5  6  1  0  0  0  0
  6  7  2  0  0  0  0
  6  8  1  0  0  0  0
  2  9  1  0  0  0  0
M  END
> <ChemID>
100277

> <CAS>
110-93-0

> <Original_SMILES>
CC(C)=CCCC(C)=O

> <preferred_name>
6-Methyl-5-hepten-2-one

> <dsstox_substance_id>
DTXSID5021629

> <dsstox_compound_id>
DTXCID501629

> <qc_level>
DSSTox_Low

> <Canonical_QSARr>
CC(C)=CCCC(C)=O

> <InChI_Code_QSARr>
InChI=1S/C8H14O/c1-7(2)5-4-6-8(3)9/h5H,4,6H2,1-3H3

> <InChI Key_QSARr>
UHEPJGULSIKKTP-UHFFFAOYSA-N

> <Salt_Solvent>


> <Salt_Solvent_ID>
0

> <MPID>
98833

> <OH Reference>
SMITH,AM ET AL. (1996)

> <OH>
1.57E-10

> <OH Temperature>
23.0

> <LogOH>
-9.804100347590747

> <Tr_1_Tst_0>
1

$$$$
100278
  Mrv171c012241912032D          

  9  8  0  0  0  0            999 V2000
   -0.1500   -1.1151    0.0000 C   0  0  0  0  0  0  0  0  0  0  0  0
    0.5645   -0.7026    0.0000 C   0  0  0  0  0  0  0  0  0  0  0  0
    1.2790   -1.1151    0.0000 C   0  0  0  0  0  0  0  0  0  0  0  0
    1.9934   -0.7026    0.0000 C   0  0  0  0  0  0  0  0  0  0  0  0
    2.7079   -1.1151    0.0000 C   0  0  0  0  0  0  0  0  0  0  0  0
    3.4224   -0.7026    0.0000 C   0  0  0  0  0  0  0  0  0  0  0  0
    4.1368   -1.1151    0.0000 C   0  0  0  0  0  0  0  0  0  0  0  0
    4.8513   -0.7026    0.0000 C   0  0  0  0  0  0  0  0  0  0  0  0
    0.5645    0.1224    0.0000 O   0  0  0  0  0  0  0  0  0  0  0  0
  1  2  1  0  0  0  0
  2  3  1  0  0  0  0
  3  4  1  0  0  0  0
  4  5  1  0  0  0  0
  5  6  1  0  0  0  0
  6  7  1  0  0  0  0
  7  8  1  0  0  0  0
  2  9  2  0  0  0  0
M  END
> <ChemID>
100278

> <CAS>
111-13-7

> <Original_SMILES>
CCCCCCC(C)=O

> <preferred_name>
2-Octanone

> <dsstox_substance_id>
DTXSID4021927

> <dsstox_compound_id>
DTXCID301927

> <qc_level>
DSSTox_Low

> <Canonical_QSARr>
CCCCCCC(C)=O

> <InChI_Code_QSARr>
InChI=1S/C8H16O/c1-3-4-5-6-7-8(2)9/h3-7H2,1-2H3

> <InChI Key_QSARr>
ZPVFWPFBNIEHGJ-UHFFFAOYSA-N

> <Salt_Solvent>


> <Salt_Solvent_ID>
0

> <MPID>
98834

> <OH Reference>
KWOK,ESC & ATKINSON,R (1994)

> <OH>
1.1E-11

> <OH Temperature>
25.0

> <LogOH>
-10.958607314841784

> <Tr_1_Tst_0>
0

$$$$
100279
  Mrv171c012241912032D          

  9  8  0  0  0  0            999 V2000
   -0.1480   -1.1158    0.0000 C   0  0  0  0  0  0  0  0  0  0  0  0
    0.5665   -0.7033    0.0000 C   0  0  0  0  0  0  0  0  0  0  0  0
    1.2810   -1.1158    0.0000 O   0  0  0  0  0  0  0  0  0  0  0  0
    1.9955   -0.7033    0.0000 C   0  0  0  0  0  0  0  0  0  0  0  0
    2.7099   -1.1158    0.0000 C   0  0  0  0  0  0  0  0  0  0  0  0
    3.4244   -0.7033    0.0000 O   0  0  0  0  0  0  0  0  0  0  0  0
    4.1389   -1.1158    0.0000 C   0  0  0  0  0  0  0  0  0  0  0  0
    4.8533   -0.7033    0.0000 C   0  0  0  0  0  0  0  0  0  0  0  0
    0.5665    0.1217    0.0000 O   0  0  0  0  0  0  0  0  0  0  0  0
  1  2  1  0  0  0  0
  2  3  1  0  0  0  0
  3  4  1  0  0  0  0
  4  5  1  0  0  0  0
  5  6  1  0  0  0  0
  6  7  1  0  0  0  0
  7  8  1  0  0  0  0
  2  9  2  0  0  0  0
M  END
> <ChemID>
100279

> <CAS>
111-15-9

> <Original_SMILES>
CCOCCOC(C)=O

> <preferred_name>
2-Ethoxyethyl acetate

> <dsstox_substance_id>
DTXSID9021928

> <dsstox_compound_id>
DTXCID701928

> <qc_level>
DSSTox_Low

> <Canonical_QSARr>
CCOCCOC(C)=O

> <InChI_Code_QSARr>
InChI=1S/C6H12O3/c1-3-8-4-5-9-6(2)7/h3-5H2,1-2H3

> <InChI Key_QSARr>
SVONRAPFKPVNKG-UHFFFAOYSA-N

> <Salt_Solvent>


> <Salt_Solvent_ID>
0

> <MPID>
98835

> <OH Reference>
ATKINSON,R (1989)

> <OH>
1.3E-11

> <OH Temperature>
25.0

> <LogOH>
-10.886056647693158

> <Tr_1_Tst_0>
1

$$$$
100280
  Mrv171c012241912032D          

  7  6  0  0  0  0            999 V2000
   -0.0018   -0.0582    0.0000 Br  0  0  0  0  0  0  0  0  0  0  0  0
    0.7127   -0.4707    0.0000 C   0  0  0  0  0  0  0  0  0  0  0  0
    1.4272   -0.0582    0.0000 C   0  0  0  0  0  0  0  0  0  0  0  0
    2.1416   -0.4707    0.0000 C   0  0  0  0  0  0  0  0  0  0  0  0
    2.8561   -0.0582    0.0000 C   0  0  0  0  0  0  0  0  0  0  0  0
    3.5706   -0.4707    0.0000 C   0  0  0  0  0  0  0  0  0  0  0  0
    4.2850   -0.0582    0.0000 C   0  0  0  0  0  0  0  0  0  0  0  0
  1  2  1  0  0  0  0
  2  3  1  0  0  0  0
  3  4  1  0  0  0  0
  4  5  1  0  0  0  0
  5  6  1  0  0  0  0
  6  7  1  0  0  0  0
M  END
> <ChemID>
100280

> <CAS>
111-25-1

> <Original_SMILES>
CCCCCCBr

> <preferred_name>
1-Bromohexane

> <dsstox_substance_id>
DTXSID4021929

> <dsstox_compound_id>
DTXCID101929

> <qc_level>
DSSTox_Low

> <Canonical_QSARr>
CCCCCCBr

> <InChI_Code_QSARr>
InChI=1S/C6H13Br/c1-2-3-4-5-6-7/h2-6H2,1H3

> <InChI Key_QSARr>
MNDIARAMWBIKFW-UHFFFAOYSA-N

> <Salt_Solvent>


> <Salt_Solvent_ID>
0

> <MPID>
98836

> <OH Reference>
DONAGHY,T ET AL. (1993)

> <OH>
5.849999999999998E-12

> <OH Temperature>
25.0

> <LogOH>
-11.232844133917826

> <Tr_1_Tst_0>
1

$$$$
100281
  Mrv171c012241912032D          

  7  6  0  0  0  0            999 V2000
   -0.0018   -0.0582    0.0000 C   0  0  0  0  0  0  0  0  0  0  0  0
    0.7127   -0.4707    0.0000 C   0  0  0  0  0  0  0  0  0  0  0  0
    1.4272   -0.0582    0.0000 C   0  0  0  0  0  0  0  0  0  0  0  0
    2.1416   -0.4707    0.0000 C   0  0  0  0  0  0  0  0  0  0  0  0
    2.8561   -0.0582    0.0000 C   0  0  0  0  0  0  0  0  0  0  0  0
    3.5706   -0.4707    0.0000 C   0  0  0  0  0  0  0  0  0  0  0  0
    4.2850   -0.0582    0.0000 O   0  0  0  0  0  0  0  0  0  0  0  0
  1  2  1  0  0  0  0
  2  3  1  0  0  0  0
  3  4  1  0  0  0  0
  4  5  1  0  0  0  0
  5  6  1  0  0  0  0
  6  7  1  0  0  0  0
M  END
> <ChemID>
100281

> <CAS>
111-27-3

> <Original_SMILES>
CCCCCCO

> <preferred_name>
1-Hexanol

> <dsstox_substance_id>
DTXSID8021931

> <dsstox_compound_id>
DTXCID201931

> <qc_level>
DSSTox_Low

> <Canonical_QSARr>
CCCCCCO

> <InChI_Code_QSARr>
InChI=1S/C6H14O/c1-2-3-4-5-6-7/h7H,2-6H2,1H3

> <InChI Key_QSARr>
ZSIAUFGUXNUGDI-UHFFFAOYSA-N

> <Salt_Solvent>


> <Salt_Solvent_ID>
0

> <MPID>
98837

> <OH Reference>
KWOK,ESC & ATKINSON,R (1994)

> <OH>
1.25E-11

> <OH Temperature>
25.0

> <LogOH>
-10.903089986991946

> <Tr_1_Tst_0>
1

$$$$
100282
  Mrv171c012241912032D          

  7  6  0  0  0  0            999 V2000
   -0.0018   -0.0582    0.0000 O   0  0  0  0  0  0  0  0  0  0  0  0
    0.7127   -0.4707    0.0000 C   0  0  0  0  0  0  0  0  0  0  0  0
    1.4272   -0.0582    0.0000 C   0  0  0  0  0  0  0  0  0  0  0  0
    2.1416   -0.4707    0.0000 C   0  0  0  0  0  0  0  0  0  0  0  0
    2.8561   -0.0582    0.0000 C   0  0  0  0  0  0  0  0  0  0  0  0
    3.5706   -0.4707    0.0000 C   0  0  0  0  0  0  0  0  0  0  0  0
    4.2850   -0.0582    0.0000 O   0  0  0  0  0  0  0  0  0  0  0  0
  1  2  2  0  0  0  0
  2  3  1  0  0  0  0
  3  4  1  0  0  0  0
  4  5  1  0  0  0  0
  5  6  1  0  0  0  0
  6  7  2  0  0  0  0
M  END
> <ChemID>
100282

> <CAS>
111-30-8

> <Original_SMILES>
O=CCCCC=O

> <preferred_name>
Glutaraldehyde

> <dsstox_substance_id>
DTXSID6025355

> <dsstox_compound_id>
DTXCID605355

> <qc_level>
DSSTox_Low

> <Canonical_QSARr>
O=CCCCC=O

> <InChI_Code_QSARr>
InChI=1S/C5H8O2/c6-4-2-1-3-5-7/h4-5H,1-3H2

> <InChI Key_QSARr>
SXRSQZLOMIGNAQ-UHFFFAOYSA-N

> <Salt_Solvent>


> <Salt_Solvent_ID>
0

> <MPID>
98838

> <OH Reference>
ATKINSON,R (1989)

> <OH>
2.38E-11

> <OH Temperature>
25.0

> <LogOH>
-10.623423042943479

> <Tr_1_Tst_0>
0

$$$$
100283
  Mrv171c012241912032D          

  7  6  0  0  0  0            999 V2000
    3.9037    1.4288    0.0000 C   0  0  0  0  0  0  0  0  0  0  0  0
    3.1892    1.8413    0.0000 O   0  0  0  0  0  0  0  0  0  0  0  0
    2.4747    1.4288    0.0000 C   0  0  0  0  0  0  0  0  0  0  0  0
    1.7603    1.8413    0.0000 C   0  0  0  0  0  0  0  0  0  0  0  0
    4.6181    1.8413    0.0000 C   0  0  0  0  0  0  0  0  0  0  0  0
    5.3326    1.4288    0.0000 C   0  0  0  0  0  0  0  0  0  0  0  0
    6.0471    1.8413    0.0000 O   0  0  0  0  0  0  0  0  0  0  0  0
  1  2  1  0  0  0  0
  2  3  1  0  0  0  0
  3  4  1  0  0  0  0
  1  5  1  0  0  0  0
  5  6  1  0  0  0  0
  6  7  1  0  0  0  0
M  END
> <ChemID>
100283

> <CAS>
111-35-3

> <Original_SMILES>
CCOCCCO

> <preferred_name>
3-Ethoxy-1-propanol

> <dsstox_substance_id>
DTXSID4073124

> <dsstox_compound_id>
DTXCID8033194

> <qc_level>
Public_High

> <Canonical_QSARr>
CCOCCCO

> <InChI_Code_QSARr>
InChI=1S/C5H12O2/c1-2-7-5-3-4-6/h6H,2-5H2,1H3

> <InChI Key_QSARr>
XHMWPVBQGARKQM-UHFFFAOYSA-N

> <Salt_Solvent>


> <Salt_Solvent_ID>
0

> <MPID>
98839

> <OH Reference>
ATKINSON,R (1989)

> <OH>
2.2E-11

> <OH Temperature>
25.0

> <LogOH>
-10.65757731917778

> <Tr_1_Tst_0>
1

$$$$
100284
  Mrv171c012241912032D          

  7  6  0  0  0  0            999 V2000
    2.1471   -0.4105    0.0000 O   0  0  0  0  0  0  0  0  0  0  0  0
    1.4326    0.0020    0.0000 C   0  0  0  0  0  0  0  0  0  0  0  0
    0.7181   -0.4105    0.0000 C   0  0  0  0  0  0  0  0  0  0  0  0
    0.0036    0.0020    0.0000 C   0  0  0  0  0  0  0  0  0  0  0  0
    2.8615    0.0020    0.0000 C   0  0  0  0  0  0  0  0  0  0  0  0
    3.5760   -0.4105    0.0000 C   0  0  0  0  0  0  0  0  0  0  0  0
    4.2905    0.0020    0.0000 C   0  0  0  0  0  0  0  0  0  0  0  0
  1  2  1  0  0  0  0
  2  3  1  0  0  0  0
  3  4  1  0  0  0  0
  1  5  1  0  0  0  0
  5  6  1  0  0  0  0
  6  7  1  0  0  0  0
M  END
> <ChemID>
100284

> <CAS>
111-43-3

> <Original_SMILES>
CCCOCCC

> <preferred_name>
Propyl ether

> <dsstox_substance_id>
DTXSID8042343

> <dsstox_compound_id>
DTXCID6022343

> <qc_level>
DSSTox_Low

> <Canonical_QSARr>
CCCOCCC

> <InChI_Code_QSARr>
InChI=1S/C6H14O/c1-3-5-7-6-4-2/h3-6H2,1-2H3

> <InChI Key_QSARr>
POLCUAVZOMRGSN-UHFFFAOYSA-N

> <Salt_Solvent>


> <Salt_Solvent_ID>
0

> <MPID>
98840

> <OH Reference>
KWOK,ESC & ATKINSON,R (1994)

> <OH>
1.849999999999999E-11

> <OH Temperature>
25.0

> <LogOH>
-10.732828271596999

> <Tr_1_Tst_0>
1

$$$$
100285
  Mrv171c012241912032D          

  7  6  0  0  0  0            999 V2000
    0.0075   -0.0592    0.0000 O   0  0  0  0  0  0  0  0  0  0  0  0
    0.7220   -0.4717    0.0000 C   0  0  0  0  0  0  0  0  0  0  0  0
    1.4365   -0.0592    0.0000 C   0  0  0  0  0  0  0  0  0  0  0  0
    2.1510   -0.4717    0.0000 O   0  0  0  0  0  0  0  0  0  0  0  0
    2.8654   -0.0592    0.0000 C   0  0  0  0  0  0  0  0  0  0  0  0
    3.5799   -0.4717    0.0000 C   0  0  0  0  0  0  0  0  0  0  0  0
    4.2944   -0.0592    0.0000 O   0  0  0  0  0  0  0  0  0  0  0  0
  1  2  1  0  0  0  0
  2  3  1  0  0  0  0
  3  4  1  0  0  0  0
  4  5  1  0  0  0  0
  5  6  1  0  0  0  0
  6  7  1  0  0  0  0
M  END
> <ChemID>
100285

> <CAS>
111-46-6

> <Original_SMILES>
OCCOCCO

> <preferred_name>
Diethylene glycol

> <dsstox_substance_id>
DTXSID8020462

> <dsstox_compound_id>
DTXCID20462

> <qc_level>
DSSTox_Low

> <Canonical_QSARr>
OCCOCCO

> <InChI_Code_QSARr>
InChI=1S/C4H10O3/c5-1-3-7-4-2-6/h5-6H,1-4H2

> <InChI Key_QSARr>
MTHSVFCYNBDYFN-UHFFFAOYSA-N

> <Salt_Solvent>


> <Salt_Solvent_ID>
0

> <MPID>
98841

> <OH Reference>
LEIFER,A (1993)

> <OH>
3.000000000000001E-11

> <OH Temperature>
25.0

> <LogOH>
-10.52287874528034

> <Tr_1_Tst_0>
1

$$$$
100286
  Mrv171c012241912032D          

  7  6  0  0  0  0            999 V2000
   -0.0019   -0.0582    0.0000 C   0  0  0  0  0  0  0  0  0  0  0  0
    0.7126   -0.4707    0.0000 C   0  0  0  0  0  0  0  0  0  0  0  0
    1.4271   -0.0582    0.0000 C   0  0  0  0  0  0  0  0  0  0  0  0
    2.1415   -0.4707    0.0000 S   0  0  0  0  0  0  0  0  0  0  0  0
    2.8560   -0.0582    0.0000 C   0  0  0  0  0  0  0  0  0  0  0  0
    3.5705   -0.4707    0.0000 C   0  0  0  0  0  0  0  0  0  0  0  0
    4.2850   -0.0582    0.0000 C   0  0  0  0  0  0  0  0  0  0  0  0
  1  2  1  0  0  0  0
  2  3  1  0  0  0  0
  3  4  1  0  0  0  0
  4  5  1  0  0  0  0
  5  6  1  0  0  0  0
  6  7  1  0  0  0  0
M  END
> <ChemID>
100286

> <CAS>
111-47-7

> <Original_SMILES>
CCCSCCC

> <preferred_name>
Propyl sulfide

> <dsstox_substance_id>
DTXSID3021934

> <dsstox_compound_id>
DTXCID401934

> <qc_level>
DSSTox_Low

> <Canonical_QSARr>
CCCSCCC

> <InChI_Code_QSARr>
InChI=1S/C6H14S/c1-3-5-7-6-4-2/h3-6H2,1-2H3

> <InChI Key_QSARr>
ZERULLAPCVRMCO-UHFFFAOYSA-N

> <Salt_Solvent>


> <Salt_Solvent_ID>
0

> <MPID>
98842

> <OH Reference>
ATKINSON,R (1989)

> <OH>
2.000000000000001E-11

> <OH Temperature>
25.0

> <LogOH>
-10.698970004336037

> <Tr_1_Tst_0>
0

$$$$
100287
  Mrv171c012241912032D          

  8  7  0  0  0  0            999 V2000
   -0.0057   -0.4133    0.0000 C   0  0  0  0  0  0  0  0  0  0  0  0
    0.7088   -0.0008    0.0000 C   0  0  0  0  0  0  0  0  0  0  0  0
    1.4233   -0.4133    0.0000 C   0  0  0  0  0  0  0  0  0  0  0  0
    2.1378   -0.0008    0.0000 C   0  0  0  0  0  0  0  0  0  0  0  0
    2.8522   -0.4133    0.0000 C   0  0  0  0  0  0  0  0  0  0  0  0
    3.5667   -0.0008    0.0000 C   0  0  0  0  0  0  0  0  0  0  0  0
    4.2812   -0.4133    0.0000 C   0  0  0  0  0  0  0  0  0  0  0  0
    4.9956   -0.0008    0.0000 C   0  0  0  0  0  0  0  0  0  0  0  0
  1  2  1  0  0  0  0
  2  3  1  0  0  0  0
  3  4  1  0  0  0  0
  4  5  1  0  0  0  0
  5  6  1  0  0  0  0
  6  7  1  0  0  0  0
  7  8  1  0  0  0  0
M  END
> <ChemID>
100287

> <CAS>
111-65-9

> <Original_SMILES>
CCCCCCCC

> <preferred_name>
Octane

> <dsstox_substance_id>
DTXSID0026882

> <dsstox_compound_id>
DTXCID406882

> <qc_level>
DSSTox_Low

> <Canonical_QSARr>
CCCCCCCC

> <InChI_Code_QSARr>
InChI=1S/C8H18/c1-3-5-7-8-6-4-2/h3-8H2,1-2H3

> <InChI Key_QSARr>
TVMXDCGIABBOFY-UHFFFAOYSA-N

> <Salt_Solvent>


> <Salt_Solvent_ID>
0

> <MPID>
98843

> <OH Reference>
ATKINSON,R (1989)

> <OH>
8.680000000000004E-12

> <OH Temperature>
25.0

> <LogOH>
-11.061480274823511

> <Tr_1_Tst_0>
1

$$$$
100289
  Mrv171c012241912032D          

  8  7  0  0  0  0            999 V2000
    0.0018   -0.4115    0.0000 C   0  0  0  0  0  0  0  0  0  0  0  0
    0.7163    0.0010    0.0000 C   0  0  0  0  0  0  0  0  0  0  0  0
    1.4308   -0.4115    0.0000 C   0  0  0  0  0  0  0  0  0  0  0  0
    2.1452    0.0010    0.0000 C   0  0  0  0  0  0  0  0  0  0  0  0
    2.8597   -0.4115    0.0000 C   0  0  0  0  0  0  0  0  0  0  0  0
    3.5742    0.0010    0.0000 C   0  0  0  0  0  0  0  0  0  0  0  0
    4.2887   -0.4115    0.0000 C   0  0  0  0  0  0  0  0  0  0  0  0
    5.0031    0.0010    0.0000 O   0  0  0  0  0  0  0  0  0  0  0  0
  1  2  1  0  0  0  0
  2  3  1  0  0  0  0
  3  4  1  0  0  0  0
  4  5  1  0  0  0  0
  5  6  1  0  0  0  0
  6  7  1  0  0  0  0
  7  8  1  0  0  0  0
M  END
> <ChemID>
100289

> <CAS>
111-70-6

> <Original_SMILES>
CCCCCCCO

> <preferred_name>
1-Heptanol

> <dsstox_substance_id>
DTXSID8021937

> <dsstox_compound_id>
DTXCID601937

> <qc_level>
DSSTox_Low

> <Canonical_QSARr>
CCCCCCCO

> <InChI_Code_QSARr>
InChI=1S/C7H16O/c1-2-3-4-5-6-7-8/h8H,2-7H2,1H3

> <InChI Key_QSARr>
BBMCTIGTTCKYKF-UHFFFAOYSA-N

> <Salt_Solvent>


> <Salt_Solvent_ID>
0

> <MPID>
98844

> <OH Reference>
KWOK,ESC & ATKINSON,R (1994)

> <OH>
1.37E-11

> <OH Temperature>
25.0

> <LogOH>
-10.863279432843605

> <Tr_1_Tst_0>
1

$$$$
100290
  Mrv171c012241912032D          

  8  7  0  0  0  0            999 V2000
   -0.0008   -0.4114    0.0000 O   0  0  0  0  0  0  0  0  0  0  0  0
    0.7136    0.0011    0.0000 C   0  0  0  0  0  0  0  0  0  0  0  0
    1.4281   -0.4114    0.0000 C   0  0  0  0  0  0  0  0  0  0  0  0
    2.1426    0.0011    0.0000 O   0  0  0  0  0  0  0  0  0  0  0  0
    2.8570   -0.4114    0.0000 C   0  0  0  0  0  0  0  0  0  0  0  0
    3.5715    0.0011    0.0000 C   0  0  0  0  0  0  0  0  0  0  0  0
    4.2860   -0.4114    0.0000 C   0  0  0  0  0  0  0  0  0  0  0  0
    5.0005    0.0011    0.0000 C   0  0  0  0  0  0  0  0  0  0  0  0
  1  2  1  0  0  0  0
  2  3  1  0  0  0  0
  3  4  1  0  0  0  0
  4  5  1  0  0  0  0
  5  6  1  0  0  0  0
  6  7  1  0  0  0  0
  7  8  1  0  0  0  0
M  END
> <ChemID>
100290

> <CAS>
111-76-2

> <Original_SMILES>
CCCCOCCO

> <preferred_name>
2-Butoxyethanol

> <dsstox_substance_id>
DTXSID1024097

> <dsstox_compound_id>
DTXCID904097

> <qc_level>
DSSTox_Low

> <Canonical_QSARr>
CCCCOCCO

> <InChI_Code_QSARr>
InChI=1S/C6H14O2/c1-2-3-5-8-6-4-7/h7H,2-6H2,1H3

> <InChI Key_QSARr>
POAOYUHQDCAZBD-UHFFFAOYSA-N

> <Salt_Solvent>


> <Salt_Solvent_ID>
0

> <MPID>
98845

> <OH Reference>
ATKINSON,R (1989)

> <OH>
1.86E-11

> <OH Temperature>
25.0

> <LogOH>
-10.730487055782087

> <Tr_1_Tst_0>
0

$$$$
100291
  Mrv171c012241912032D          

  9  8  0  0  0  0            999 V2000
    0.7161   -0.4579    0.0000 C   0  0  0  0  0  0  0  0  0  0  0  0
    0.0017   -0.0454    0.0000 C   0  0  0  0  0  0  0  0  0  0  0  0
    1.4306   -0.0454    0.0000 C   0  0  0  0  0  0  0  0  0  0  0  0
    2.1451   -0.4579    0.0000 C   0  0  0  0  0  0  0  0  0  0  0  0
    2.8595   -0.0454    0.0000 C   0  0  0  0  0  0  0  0  0  0  0  0
    3.5740   -0.4579    0.0000 C   0  0  0  0  0  0  0  0  0  0  0  0
    4.2885   -0.0454    0.0000 C   0  0  0  0  0  0  0  0  0  0  0  0
    5.0030   -0.4579    0.0000 C   0  0  0  0  0  0  0  0  0  0  0  0
    5.7174   -0.0454    0.0000 C   0  0  0  0  0  0  0  0  0  0  0  0
  1  2  1  0  0  0  0
  1  3  1  0  0  0  0
  3  4  1  0  0  0  0
  4  5  1  0  0  0  0
  5  6  1  0  0  0  0
  6  7  1  0  0  0  0
  7  8  1  0  0  0  0
  8  9  1  0  0  0  0
M  END
> <ChemID>
100291

> <CAS>
111-84-2

> <Original_SMILES>
CCCCCCCCC

> <preferred_name>
Nonane

> <dsstox_substance_id>
DTXSID9025796

> <dsstox_compound_id>
DTXCID005796

> <qc_level>
DSSTox_Low

> <Canonical_QSARr>
CCCCCCCCC

> <InChI_Code_QSARr>
InChI=1S/C9H20/c1-3-5-7-9-8-6-4-2/h3-9H2,1-2H3

> <InChI Key_QSARr>
BKIMMITUMNQMOS-UHFFFAOYSA-N

> <Salt_Solvent>


> <Salt_Solvent_ID>
0

> <MPID>
98846

> <OH Reference>
ATKINSON,R (1989)

> <OH>
1.02E-11

> <OH Temperature>
25.0

> <LogOH>
-10.991399828238071

> <Tr_1_Tst_0>
1

$$$$
100292
  Mrv171c012241912032D          

  9  8  0  0  0  0            999 V2000
    0.0017   -0.0454    0.0000 C   0  0  0  0  0  0  0  0  0  0  0  0
    0.7161   -0.4579    0.0000 C   0  0  0  0  0  0  0  0  0  0  0  0
    1.4306   -0.0454    0.0000 C   0  0  0  0  0  0  0  0  0  0  0  0
    2.1451   -0.4579    0.0000 C   0  0  0  0  0  0  0  0  0  0  0  0
    2.8595   -0.0454    0.0000 C   0  0  0  0  0  0  0  0  0  0  0  0
    3.5740   -0.4579    0.0000 C   0  0  0  0  0  0  0  0  0  0  0  0
    4.2885   -0.0454    0.0000 C   0  0  0  0  0  0  0  0  0  0  0  0
    5.0030   -0.4579    0.0000 C   0  0  0  0  0  0  0  0  0  0  0  0
    5.7174   -0.0454    0.0000 O   0  0  0  0  0  0  0  0  0  0  0  0
  1  2  1  0  0  0  0
  2  3  1  0  0  0  0
  3  4  1  0  0  0  0
  4  5  1  0  0  0  0
  5  6  1  0  0  0  0
  6  7  1  0  0  0  0
  7  8  1  0  0  0  0
  8  9  1  0  0  0  0
M  END
> <ChemID>
100292

> <CAS>
111-87-5

> <Original_SMILES>
CCCCCCCCO

> <preferred_name>
1-Octanol

> <dsstox_substance_id>
DTXSID7021940

> <dsstox_compound_id>
DTXCID101940

> <qc_level>
DSSTox_Low

> <Canonical_QSARr>
CCCCCCCCO

> <InChI_Code_QSARr>
InChI=1S/C8H18O/c1-2-3-4-5-6-7-8-9/h9H,2-8H2,1H3

> <InChI Key_QSARr>
KBPLFHHGFOOTCA-UHFFFAOYSA-N

> <Salt_Solvent>


> <Salt_Solvent_ID>
0

> <MPID>
98847

> <OH Reference>
ATKINSON,R (1994)

> <OH>
1.44E-11

> <OH Temperature>
25.0

> <LogOH>
-10.841637507904753

> <Tr_1_Tst_0>
1

$$$$
100293
  Mrv171c012241912032D          

  9  8  0  0  0  0            999 V2000
    0.0017   -0.0454    0.0000 C   0  0  0  0  0  0  0  0  0  0  0  0
    0.7161   -0.4579    0.0000 C   0  0  0  0  0  0  0  0  0  0  0  0
    1.4306   -0.0454    0.0000 O   0  0  0  0  0  0  0  0  0  0  0  0
    2.1451   -0.4579    0.0000 C   0  0  0  0  0  0  0  0  0  0  0  0
    2.8595   -0.0454    0.0000 C   0  0  0  0  0  0  0  0  0  0  0  0
    3.5740   -0.4579    0.0000 O   0  0  0  0  0  0  0  0  0  0  0  0
    4.2885   -0.0454    0.0000 C   0  0  0  0  0  0  0  0  0  0  0  0
    5.0030   -0.4579    0.0000 C   0  0  0  0  0  0  0  0  0  0  0  0
    5.7174   -0.0454    0.0000 O   0  0  0  0  0  0  0  0  0  0  0  0
  1  2  1  0  0  0  0
  2  3  1  0  0  0  0
  3  4  1  0  0  0  0
  4  5  1  0  0  0  0
  5  6  1  0  0  0  0
  6  7  1  0  0  0  0
  7  8  1  0  0  0  0
  8  9  1  0  0  0  0
M  END
> <ChemID>
100293

> <CAS>
111-90-0

> <Original_SMILES>
CCOCCOCCO

> <preferred_name>
2-(2-Ethoxyethoxy)ethanol

> <dsstox_substance_id>
DTXSID2021941

> <dsstox_compound_id>
DTXCID501941

> <qc_level>
DSSTox_Low

> <Canonical_QSARr>
CCOCCOCCO

> <InChI_Code_QSARr>
InChI=1S/C6H14O3/c1-2-8-5-6-9-4-3-7/h7H,2-6H2,1H3

> <InChI Key_QSARr>
XXJWXESWEXIICW-UHFFFAOYSA-N

> <Salt_Solvent>


> <Salt_Solvent_ID>
0

> <MPID>
98848

> <OH Reference>
ASCHMANN,SM ET AL. (2001)

> <OH>
5.719999999999999E-11

> <OH Temperature>
23.0

> <LogOH>
-10.242603971206977

> <Tr_1_Tst_0>
1

$$$$
100294
  Mrv171c012241912032D          

  9  8  0  0  0  0            999 V2000
    2.8597   -0.0454    0.0000 O   0  0  0  0  0  0  0  0  0  0  0  0
    2.1452   -0.4579    0.0000 C   0  0  0  0  0  0  0  0  0  0  0  0
    1.4308   -0.0454    0.0000 C   0  0  0  0  0  0  0  0  0  0  0  0
    0.7163   -0.4579    0.0000 O   0  0  0  0  0  0  0  0  0  0  0  0
    0.0018   -0.0454    0.0000 C   0  0  0  0  0  0  0  0  0  0  0  0
    3.5742   -0.4579    0.0000 C   0  0  0  0  0  0  0  0  0  0  0  0
    4.2886   -0.0454    0.0000 C   0  0  0  0  0  0  0  0  0  0  0  0
    5.0031   -0.4579    0.0000 O   0  0  0  0  0  0  0  0  0  0  0  0
    5.7176   -0.0454    0.0000 C   0  0  0  0  0  0  0  0  0  0  0  0
  1  2  1  0  0  0  0
  2  3  1  0  0  0  0
  3  4  1  0  0  0  0
  4  5  1  0  0  0  0
  1  6  1  0  0  0  0
  6  7  1  0  0  0  0
  7  8  1  0  0  0  0
  8  9  1  0  0  0  0
M  END
> <ChemID>
100294

> <CAS>
111-96-6

> <Original_SMILES>
COCCOCCOC

> <preferred_name>
Bis(2-methoxyethyl) ether

> <dsstox_substance_id>
DTXSID1024621

> <dsstox_compound_id>
DTXCID604621

> <qc_level>
DSSTox_Low

> <Canonical_QSARr>
COCCOCCOC

> <InChI_Code_QSARr>
InChI=1S/C6H14O3/c1-7-3-5-9-6-4-8-2/h3-6H2,1-2H3

> <InChI Key_QSARr>
SBZXBUIDTXKZTM-UHFFFAOYSA-N

> <Salt_Solvent>


> <Salt_Solvent_ID>
0

> <MPID>
98849

> <OH Reference>
ATKINSON,R (1989)

> <OH>
1.75E-11

> <OH Temperature>
25.0

> <LogOH>
-10.756961951313714

> <Tr_1_Tst_0>
0

$$$$
100295
  Mrv171c012241912032D          

 11 10  0  0  0  0            999 V2000
   -0.0043   -0.0383    0.0000 C   0  0  0  0  0  0  0  0  0  0  0  0
    0.7102   -0.4508    0.0000 C   0  0  0  0  0  0  0  0  0  0  0  0
    1.4246   -0.0383    0.0000 C   0  0  0  0  0  0  0  0  0  0  0  0
    2.1391   -0.4508    0.0000 C   0  0  0  0  0  0  0  0  0  0  0  0
    2.8536   -0.0383    0.0000 O   0  0  0  0  0  0  0  0  0  0  0  0
    3.5680   -0.4508    0.0000 C   0  0  0  0  0  0  0  0  0  0  0  0
    4.2825   -0.0383    0.0000 C   0  0  0  0  0  0  0  0  0  0  0  0
    4.9970   -0.4508    0.0000 O   0  0  0  0  0  0  0  0  0  0  0  0
    5.7115   -0.0383    0.0000 C   0  0  0  0  0  0  0  0  0  0  0  0
    6.4259   -0.4508    0.0000 C   0  0  0  0  0  0  0  0  0  0  0  0
    7.1404   -0.0383    0.0000 O   0  0  0  0  0  0  0  0  0  0  0  0
  1  2  1  0  0  0  0
  2  3  1  0  0  0  0
  3  4  1  0  0  0  0
  4  5  1  0  0  0  0
  5  6  1  0  0  0  0
  6  7  1  0  0  0  0
  7  8  1  0  0  0  0
  8  9  1  0  0  0  0
  9 10  1  0  0  0  0
 10 11  1  0  0  0  0
M  END
> <ChemID>
100295

> <CAS>
112-34-5

> <Original_SMILES>
CCCCOCCOCCO

> <preferred_name>
2-(2-Butoxyethoxy)ethanol

> <dsstox_substance_id>
DTXSID8021519

> <dsstox_compound_id>
DTXCID001519

> <qc_level>
DSSTox_Low

> <Canonical_QSARr>
CCCCOCCOCCO

> <InChI_Code_QSARr>
InChI=1S/C8H18O3/c1-2-3-5-10-7-8-11-6-4-9/h9H,2-8H2,1H3

> <InChI Key_QSARr>
OAYXUHPQHDHDDZ-UHFFFAOYSA-N

> <Salt_Solvent>


> <Salt_Solvent_ID>
0

> <MPID>
98850

> <OH Reference>
ASCHMANN,SM ET AL. (2001)

> <OH>
7.44E-11

> <OH Temperature>
23.0

> <LogOH>
-10.128427064454119

> <Tr_1_Tst_0>
1

$$$$
100296
  Mrv171c012241912032D          

 11 10  0  0  0  0            999 V2000
    3.5684   -0.4508    0.0000 O   0  0  0  0  0  0  0  0  0  0  0  0
    2.8540   -0.0383    0.0000 C   0  0  0  0  0  0  0  0  0  0  0  0
    2.1395   -0.4508    0.0000 C   0  0  0  0  0  0  0  0  0  0  0  0
    1.4250   -0.0383    0.0000 O   0  0  0  0  0  0  0  0  0  0  0  0
    0.7106   -0.4508    0.0000 C   0  0  0  0  0  0  0  0  0  0  0  0
   -0.0039   -0.0383    0.0000 C   0  0  0  0  0  0  0  0  0  0  0  0
    4.2829   -0.0383    0.0000 C   0  0  0  0  0  0  0  0  0  0  0  0
    4.9974   -0.4508    0.0000 C   0  0  0  0  0  0  0  0  0  0  0  0
    5.7119   -0.0383    0.0000 O   0  0  0  0  0  0  0  0  0  0  0  0
    6.4263   -0.4508    0.0000 C   0  0  0  0  0  0  0  0  0  0  0  0
    7.1408   -0.0383    0.0000 C   0  0  0  0  0  0  0  0  0  0  0  0
  1  2  1  0  0  0  0
  2  3  1  0  0  0  0
  3  4  1  0  0  0  0
  4  5  1  0  0  0  0
  5  6  1  0  0  0  0
  1  7  1  0  0  0  0
  7  8  1  0  0  0  0
  8  9  1  0  0  0  0
  9 10  1  0  0  0  0
 10 11  1  0  0  0  0
M  END
> <ChemID>
100296

> <CAS>
112-36-7

> <Original_SMILES>
CCOCCOCCOCC

> <preferred_name>
Diethylene glycol diethyl ether

> <dsstox_substance_id>
DTXSID3025047

> <dsstox_compound_id>
DTXCID505047

> <qc_level>
DSSTox_Low

> <Canonical_QSARr>
CCOCCOCCOCC

> <InChI_Code_QSARr>
InChI=1S/C8H18O3/c1-3-9-5-7-11-8-6-10-4-2/h3-8H2,1-2H3

> <InChI Key_QSARr>
RRQYJINTUHWNHW-UHFFFAOYSA-N

> <Salt_Solvent>


> <Salt_Solvent_ID>
0

> <MPID>
98851

> <OH Reference>
ATKINSON,R (1989)

> <OH>
2.68E-11

> <OH Temperature>
25.0

> <LogOH>
-10.571865205971195

> <Tr_1_Tst_0>
1

$$$$
100297
  Mrv171c012241912032D          

 12 11  0  0  0  0            999 V2000
   -0.0127   -0.4139    0.0000 C   0  0  0  0  0  0  0  0  0  0  0  0
    0.7018   -0.0014    0.0000 C   0  0  0  0  0  0  0  0  0  0  0  0
    1.4163   -0.4139    0.0000 C   0  0  0  0  0  0  0  0  0  0  0  0
    2.1307   -0.0014    0.0000 C   0  0  0  0  0  0  0  0  0  0  0  0
    2.8452   -0.4139    0.0000 C   0  0  0  0  0  0  0  0  0  0  0  0
    3.5597   -0.0014    0.0000 C   0  0  0  0  0  0  0  0  0  0  0  0
    4.2741   -0.4139    0.0000 C   0  0  0  0  0  0  0  0  0  0  0  0
    4.9886   -0.0014    0.0000 C   0  0  0  0  0  0  0  0  0  0  0  0
    5.7031   -0.4139    0.0000 C   0  0  0  0  0  0  0  0  0  0  0  0
    6.4176   -0.0014    0.0000 C   0  0  0  0  0  0  0  0  0  0  0  0
    7.1320   -0.4139    0.0000 C   0  0  0  0  0  0  0  0  0  0  0  0
    7.8465   -0.0014    0.0000 C   0  0  0  0  0  0  0  0  0  0  0  0
  1  2  1  0  0  0  0
  2  3  1  0  0  0  0
  3  4  1  0  0  0  0
  4  5  1  0  0  0  0
  5  6  1  0  0  0  0
  6  7  1  0  0  0  0
  7  8  1  0  0  0  0
  8  9  1  0  0  0  0
  9 10  1  0  0  0  0
 10 11  1  0  0  0  0
 11 12  1  0  0  0  0
M  END
> <ChemID>
100297

> <CAS>
112-40-3

> <Original_SMILES>
CCCCCCCCCCCC

> <preferred_name>
Dodecane

> <dsstox_substance_id>
DTXSID0026913

> <dsstox_compound_id>
DTXCID906913

> <qc_level>
DSSTox_Low

> <Canonical_QSARr>
CCCCCCCCCCCC

> <InChI_Code_QSARr>
InChI=1S/C12H26/c1-3-5-7-9-11-12-10-8-6-4-2/h3-12H2,1-2H3

> <InChI Key_QSARr>
SNRUBQQJIBEYMU-UHFFFAOYSA-N

> <Salt_Solvent>


> <Salt_Solvent_ID>
0

> <MPID>
98852

> <OH Reference>
ATKINSON,R (1994)

> <OH>
1.42E-11

> <OH Temperature>
25.0

> <LogOH>
-10.847711655616928

> <Tr_1_Tst_0>
1

$$$$
100298
  Mrv171c012241912032D          

  3  2  0  0  0  0            999 V2000
   -0.0002   -0.1377    0.0000 C   0  0  0  0  0  0  0  0  0  0  0  0
    0.7143   -0.5502    0.0000 C   0  0  0  0  0  0  0  0  0  0  0  0
    1.4287   -0.1377    0.0000 C   0  0  0  0  0  0  0  0  0  0  0  0
  1  2  1  0  0  0  0
  2  3  2  0  0  0  0
M  END
> <ChemID>
100298

> <CAS>
115-07-1

> <Original_SMILES>
CC=C

> <preferred_name>
1-Propene

> <dsstox_substance_id>
DTXSID5021205

> <dsstox_compound_id>
DTXCID501205

> <qc_level>
DSSTox_Low

> <Canonical_QSARr>
CC=C

> <InChI_Code_QSARr>
InChI=1S/C3H6/c1-3-2/h3H,1H2,2H3

> <InChI Key_QSARr>
QQONPFPTGQHPMA-UHFFFAOYSA-N

> <Salt_Solvent>


> <Salt_Solvent_ID>
0

> <MPID>
98853

> <OH Reference>
KWOK,ESC & ATKINSON,R (1994)

> <OH>
2.63E-11

> <OH Temperature>
25.0

> <LogOH>
-10.580044251510227

> <Tr_1_Tst_0>
0

$$$$
100299
  Mrv171c012241912032D          

  3  2  0  0  0  0            999 V2000
    0.0004   -0.1370    0.0000 C   0  0  0  0  0  0  0  0  0  0  0  0
    0.7149   -0.5495    0.0000 O   0  0  0  0  0  0  0  0  0  0  0  0
    1.4294   -0.1370    0.0000 C   0  0  0  0  0  0  0  0  0  0  0  0
  1  2  1  0  0  0  0
  2  3  1  0  0  0  0
M  END
> <ChemID>
100299

> <CAS>
115-10-6

> <Original_SMILES>
COC

> <preferred_name>
Dimethyl ether

> <dsstox_substance_id>
DTXSID8026937

> <dsstox_compound_id>
DTXCID106937

> <qc_level>
DSSTox_Low

> <Canonical_QSARr>
COC

> <InChI_Code_QSARr>
InChI=1S/C2H6O/c1-3-2/h1-2H3

> <InChI Key_QSARr>
LCGLNKUTAGEVQW-UHFFFAOYSA-N

> <Salt_Solvent>


> <Salt_Solvent_ID>
0

> <MPID>
98854

> <OH Reference>
KWOK,ESC & ATKINSON,R (1994)

> <OH>
2.98E-12

> <OH Temperature>
25.0

> <LogOH>
-11.525783735923728

> <Tr_1_Tst_0>
1

$$$$
100300
  Mrv171c012241912032D          

  4  3  0  0  0  0            999 V2000
    0.7124   -0.8310    0.0000 C   0  0  0  0  0  0  0  0  0  0  0  0
    1.1249   -0.1166    0.0000 C   0  0  0  0  0  0  0  0  0  0  0  0
    1.1249   -1.5455    0.0000 C   0  0  0  0  0  0  0  0  0  0  0  0
   -0.1126   -0.8310    0.0000 C   0  0  0  0  0  0  0  0  0  0  0  0
  1  2  1  0  0  0  0
  1  3  1  0  0  0  0
  1  4  2  0  0  0  0
M  END
> <ChemID>
100300

> <CAS>
115-11-7

> <Original_SMILES>
CC(C)=C

> <preferred_name>
Isobutene

> <dsstox_substance_id>
DTXSID9020748

> <dsstox_compound_id>
DTXCID90748

> <qc_level>
DSSTox_Low

> <Canonical_QSARr>
CC(C)=C

> <InChI_Code_QSARr>
InChI=1S/C4H8/c1-4(2)3/h1H2,2-3H3

> <InChI Key_QSARr>
VQTUBCCKSQIDNK-UHFFFAOYSA-N

> <Salt_Solvent>


> <Salt_Solvent_ID>
0

> <MPID>
98855

> <OH Reference>
ATKINSON,R (1989)

> <OH>
5.14E-11

> <OH Temperature>
25.0

> <LogOH>
-10.28903688100471

> <Tr_1_Tst_0>
1

$$$$
100301
  Mrv171c012241912032D          

  6  5  0  0  0  0            999 V2000
    1.5721   -1.5496    0.0000 C   0  0  0  0  0  0  0  0  0  0  0  0
    1.1596   -0.8351    0.0000 C   0  0  0  0  0  0  0  0  0  0  0  0
    1.8740   -0.4226    0.0000 C   0  0  0  0  0  0  0  0  0  0  0  0
    0.4451   -1.2476    0.0000 O   0  0  0  0  0  0  0  0  0  0  0  0
    0.7471   -0.1207    0.0000 C   0  0  0  0  0  0  0  0  0  0  0  0
   -0.0779   -0.1207    0.0000 C   0  0  0  0  0  0  0  0  0  0  0  0
  1  2  1  0  0  0  0
  2  3  1  0  0  0  0
  2  4  1  0  0  0  0
  2  5  1  0  0  0  0
  5  6  2  0  0  0  0
M  END
> <ChemID>
100301

> <CAS>
115-18-4

> <Original_SMILES>
CC(C)(O)C=C

> <preferred_name>
2-Methyl-3-buten-2-ol

> <dsstox_substance_id>
DTXSID3047471

> <dsstox_compound_id>
DTXCID1027471

> <qc_level>
DSSTox_Low

> <Canonical_QSARr>
CC(C)(O)C=C

> <InChI_Code_QSARr>
InChI=1S/C5H10O/c1-4-5(2,3)6/h4,6H,1H2,2-3H3

> <InChI Key_QSARr>
HNVRRHSXBLFLIG-UHFFFAOYSA-N

> <Salt_Solvent>


> <Salt_Solvent_ID>
0

> <MPID>
98856

> <OH Reference>
RUDICH,Y ET AL. (1995)

> <OH>
6.479999999999999E-11

> <OH Temperature>
25.0

> <LogOH>
-10.188424994129397

> <Tr_1_Tst_0>
1

$$$$
100302
  Mrv171c012241912032D          

  6  5  0  0  0  0            999 V2000
    1.0703   -0.5078    0.0000 C   0  0  0  0  0  0  0  0  0  0  0  0
    1.0703   -1.3328    0.0000 C   0  0  0  0  0  0  0  0  0  0  0  0
    0.3559   -1.7453    0.0000 O   0  0  0  0  0  0  0  0  0  0  0  0
    1.0703    0.3172    0.0000 Cl  0  0  0  0  0  0  0  0  0  0  0  0
    1.8953   -0.5078    0.0000 Cl  0  0  0  0  0  0  0  0  0  0  0  0
    0.2453   -0.5078    0.0000 Cl  0  0  0  0  0  0  0  0  0  0  0  0
  1  2  1  0  0  0  0
  2  3  1  0  0  0  0
  1  4  1  0  0  0  0
  1  5  1  0  0  0  0
  1  6  1  0  0  0  0
M  END
> <ChemID>
100302

> <CAS>
115-20-8

> <Original_SMILES>
OCC(Cl)(Cl)Cl

> <preferred_name>
2,2,2-Trichloroethanol

> <dsstox_substance_id>
DTXSID1021950

> <dsstox_compound_id>
DTXCID401950

> <qc_level>
DSSTox_High

> <Canonical_QSARr>
OCC(Cl)(Cl)Cl

> <InChI_Code_QSARr>
InChI=1S/C2H3Cl3O/c3-2(4,5)1-6/h6H,1H2

> <InChI Key_QSARr>
KPWDGTGXUYRARH-UHFFFAOYSA-N

> <Salt_Solvent>


> <Salt_Solvent_ID>
0

> <MPID>
98857

> <OH Reference>
ATKINSON,R (1989)

> <OH>
2.45E-13

> <OH Temperature>
25.0

> <LogOH>
-12.610833915635485

> <Tr_1_Tst_0>
0

$$$$
100303
  Mrv171c012241912032D          

  7  6  0  0  0  0            999 V2000
    0.5018   -1.8195    0.0000 C   0  0  0  0  0  0  0  0  0  0  0  0
    1.2163   -1.4070    0.0000 C   0  0  0  0  0  0  0  0  0  0  0  0
    1.9307   -1.8195    0.0000 O   0  0  0  0  0  0  0  0  0  0  0  0
    1.2163   -0.5820    0.0000 C   0  0  0  0  0  0  0  0  0  0  0  0
    1.2163    0.2430    0.0000 C   0  0  0  0  0  0  0  0  0  0  0  0
    2.0413   -0.5820    0.0000 O   0  0  0  0  0  0  0  0  0  0  0  0
    0.3913   -0.5820    0.0000 C   0  0  0  0  0  0  0  0  0  0  0  0
  1  2  1  0  0  0  0
  2  3  2  0  0  0  0
  2  4  1  0  0  0  0
  4  5  1  0  0  0  0
  4  6  1  0  0  0  0
  4  7  1  0  0  0  0
M  END
> <ChemID>
100303

> <CAS>
115-22-0

> <Original_SMILES>
CC(=O)C(C)(C)O

> <preferred_name>


> <dsstox_substance_id>
DTXSID60870468

> <dsstox_compound_id>
DTXCID80200384

> <qc_level>


> <Canonical_QSARr>
CC(=O)C(C)(C)O

> <InChI_Code_QSARr>
InChI=1S/C5H10O2/c1-4(6)5(2,3)7/h7H,1-3H3

> <InChI Key_QSARr>
BNDRWEVUODOUDW-UHFFFAOYSA-N

> <Salt_Solvent>


> <Salt_Solvent_ID>
0

> <MPID>
98858

> <OH Reference>
ASCHMANN,SM ET AL. (2000)

> <OH>
9.4E-13

> <OH Temperature>
23.0

> <LogOH>
-12.026872146400285

> <Tr_1_Tst_0>
1

$$$$
100304
  Mrv171c012241912032D          

  9  8  0  0  0  0            999 V2000
    0.8374   -1.2500    0.0000 P   0  0  0  0  0  0  0  0  0  0  0  0
    0.1229   -0.8375    0.0000 F   0  0  0  0  0  0  0  0  0  0  0  0
    1.5519   -1.6625    0.0000 O   0  0  0  0  0  0  0  0  0  0  0  0
    1.2499   -0.5356    0.0000 N   0  0  0  0  0  0  0  0  0  0  0  0
    0.8374    0.1789    0.0000 C   0  0  0  0  0  0  0  0  0  0  0  0
    2.0749   -0.5356    0.0000 C   0  0  0  0  0  0  0  0  0  0  0  0
    0.4249   -1.9645    0.0000 N   0  0  0  0  0  0  0  0  0  0  0  0
    0.8374   -2.6790    0.0000 C   0  0  0  0  0  0  0  0  0  0  0  0
   -0.4001   -1.9645    0.0000 C   0  0  0  0  0  0  0  0  0  0  0  0
  1  2  1  0  0  0  0
  1  3  2  0  0  0  0
  1  4  1  0  0  0  0
  4  5  1  0  0  0  0
  4  6  1  0  0  0  0
  1  7  1  0  0  0  0
  7  8  1  0  0  0  0
  7  9  1  0  0  0  0
M  END
> <ChemID>
100304

> <CAS>
115-26-4

> <Original_SMILES>
CN(C)P(=O)(F)N(C)C

> <preferred_name>
Dimefox

> <dsstox_substance_id>
DTXSID8041870

> <dsstox_compound_id>
DTXCID6021870

> <qc_level>
DSSTox_Low

> <Canonical_QSARr>
CN(C)P(=O)(F)N(C)C

> <InChI_Code_QSARr>
InChI=1S/C4H12FN2OP/c1-6(2)9(5,8)7(3)4/h1-4H3

> <InChI Key_QSARr>
PGJBQBDNXAZHBP-UHFFFAOYSA-N

> <Salt_Solvent>


> <Salt_Solvent_ID>
0

> <MPID>
98859

> <OH Reference>
priv. communication; KOCH,R ET AL. (1994)

> <OH>
6.400000000000001E-11

> <OH Temperature>
25.0

> <LogOH>
-10.193820026016121

> <Tr_1_Tst_0>
1

$$$$
100306
  Mrv171c012241912032D          

  5  4  0  0  0  0            999 V2000
    2.0694   -0.9750    0.0000 O   0  0  0  0  0  0  0  0  0  0  0  0
    1.2444   -0.9750    0.0000 C   0  0  0  0  0  0  0  0  0  0  0  0
    0.8319   -1.6895    0.0000 C   0  0  0  0  0  0  0  0  0  0  0  0
    0.8319   -0.2605    0.0000 C   0  0  0  0  0  0  0  0  0  0  0  0
    0.0069   -0.2605    0.0000 O   0  0  0  0  0  0  0  0  0  0  0  0
  1  2  2  0  0  0  0
  2  3  1  0  0  0  0
  2  4  1  0  0  0  0
  4  5  1  0  0  0  0
M  END
> <ChemID>
100306

> <CAS>
116-09-6

> <Original_SMILES>
CC(=O)CO

> <preferred_name>
Hydroxyacetone

> <dsstox_substance_id>
DTXSID8051590

> <dsstox_compound_id>
DTXCID2030142

> <qc_level>
DSSTox_High

> <Canonical_QSARr>
CC(=O)CO

> <InChI_Code_QSARr>
InChI=1S/C3H6O2/c1-3(5)2-4/h4H,2H2,1H3

> <InChI Key_QSARr>
XLSMFKSTNGKWQX-UHFFFAOYSA-N

> <Salt_Solvent>


> <Salt_Solvent_ID>
0

> <MPID>
98860

> <OH Reference>
ATKINSON,R (1989)

> <OH>
3.019999999999999E-12

> <OH Temperature>
25.0

> <LogOH>
-11.519993057042862

> <Tr_1_Tst_0>
0

$$$$
100308
  Mrv171c012241912032D          

  9  8  0  0  0  0            999 V2000
    1.8768   -0.7963    0.0000 C   0  0  0  0  0  0  0  0  0  0  0  0
    2.2893   -0.0819    0.0000 F   0  0  0  0  0  0  0  0  0  0  0  0
    2.2893   -1.5108    0.0000 F   0  0  0  0  0  0  0  0  0  0  0  0
    1.0518   -0.7963    0.0000 C   0  0  0  0  0  0  0  0  0  0  0  0
    0.6393   -0.0819    0.0000 F   0  0  0  0  0  0  0  0  0  0  0  0
    0.6393   -1.5108    0.0000 C   0  0  0  0  0  0  0  0  0  0  0  0
    0.2268   -2.2253    0.0000 F   0  0  0  0  0  0  0  0  0  0  0  0
   -0.0751   -1.0983    0.0000 F   0  0  0  0  0  0  0  0  0  0  0  0
    1.3538   -1.9233    0.0000 F   0  0  0  0  0  0  0  0  0  0  0  0
  1  2  1  0  0  0  0
  1  3  1  0  0  0  0
  1  4  2  0  0  0  0
  4  5  1  0  0  0  0
  4  6  1  0  0  0  0
  6  7  1  0  0  0  0
  6  8  1  0  0  0  0
  6  9  1  0  0  0  0
M  END
> <ChemID>
100308

> <CAS>
116-15-4

> <Original_SMILES>
FC(F)=C(F)C(F)(F)F

> <preferred_name>
1,1,2,3,3,3-Hexafluoro-1-propene

> <dsstox_substance_id>
DTXSID2026949

> <dsstox_compound_id>
DTXCID206949

> <qc_level>
DSSTox_Low

> <Canonical_QSARr>
FC(F)=C(F)C(F)(F)F

> <InChI_Code_QSARr>
InChI=1S/C3F6/c4-1(2(5)6)3(7,8)9

> <InChI Key_QSARr>
HCDGVLDPFQMKDK-UHFFFAOYSA-N

> <Salt_Solvent>


> <Salt_Solvent_ID>
0

> <MPID>
98861

> <OH Reference>
LI,Z ET AL. (2000)

> <OH>
2.2E-12

> <OH Temperature>
25.0

> <LogOH>
-11.657577319177802

> <Tr_1_Tst_0>
1

$$$$
100309
  Mrv171c012241912032D          

 12 12  0  0  0  0            999 V2000
    3.0761   -0.6015    0.0000 Cl  0  0  0  0  0  0  0  0  0  0  0  0
    2.3616   -1.0140    0.0000 C   0  0  0  0  0  0  0  0  0  0  0  0
    1.6472   -0.6015    0.0000 C   0  0  0  0  0  0  0  0  0  0  0  0
    1.6472    0.2235    0.0000 Cl  0  0  0  0  0  0  0  0  0  0  0  0
    0.9327   -1.0140    0.0000 C   0  0  0  0  0  0  0  0  0  0  0  0
    0.2182   -0.6015    0.0000 Cl  0  0  0  0  0  0  0  0  0  0  0  0
    0.9327   -1.8390    0.0000 C   0  0  0  0  0  0  0  0  0  0  0  0
    0.2182   -2.2515    0.0000 Cl  0  0  0  0  0  0  0  0  0  0  0  0
    1.6472   -2.2515    0.0000 C   0  0  0  0  0  0  0  0  0  0  0  0
    1.6472   -3.0765    0.0000 Cl  0  0  0  0  0  0  0  0  0  0  0  0
    2.3616   -1.8390    0.0000 C   0  0  0  0  0  0  0  0  0  0  0  0
    3.0761   -2.2515    0.0000 Cl  0  0  0  0  0  0  0  0  0  0  0  0
  1  2  1  0  0  0  0
  3  2  1  0  0  0  0
  3  4  1  0  0  0  0
  5  3  2  0  0  0  0
  5  6  1  0  0  0  0
  7  5  1  0  0  0  0
  7  8  1  0  0  0  0
  9  7  2  0  0  0  0
  9 10  1  0  0  0  0
 11  9  1  0  0  0  0
  2 11  2  0  0  0  0
 11 12  1  0  0  0  0
M  END
> <ChemID>
100309

> <CAS>
118-74-1

> <Original_SMILES>
Clc1c(Cl)c(Cl)c(Cl)c(Cl)c1Cl

> <preferred_name>
Hexachlorobenzene

> <dsstox_substance_id>
DTXSID2020682

> <dsstox_compound_id>
DTXCID80682

> <qc_level>
DSSTox_Low

> <Canonical_QSARr>
ClC1C(Cl)=C(Cl)C(Cl)=C(Cl)C=1Cl

> <InChI_Code_QSARr>
InChI=1S/C6Cl6/c7-1-2(8)4(10)6(12)5(11)3(1)9

> <InChI Key_QSARr>
CKAPSXZOOQJIBF-UHFFFAOYSA-N

> <Salt_Solvent>


> <Salt_Solvent_ID>
0

> <MPID>
98862

> <OH Reference>
BRUBAKER,WWJR & HITES,RA (1998A)

> <OH>
2.7E-14

> <OH Temperature>
25.0

> <LogOH>
-13.568636235841032

> <Tr_1_Tst_0>
1

$$$$
100310
  Mrv171c012241912032D          

 10 11  0  0  0  0            999 V2000
    1.4297   -0.4125    0.0000 C   0  0  0  0  0  0  0  0  0  0  0  0
    0.7153    0.0000    0.0000 C   0  0  0  0  0  0  0  0  0  0  0  0
    0.0008   -0.4125    0.0000 C   0  0  0  0  0  0  0  0  0  0  0  0
    0.0008   -1.2375    0.0000 C   0  0  0  0  0  0  0  0  0  0  0  0
    0.7153   -1.6500    0.0000 C   0  0  0  0  0  0  0  0  0  0  0  0
    1.4297   -1.2375    0.0000 C   0  0  0  0  0  0  0  0  0  0  0  0
    2.1442   -1.6500    0.0000 C   0  0  0  0  0  0  0  0  0  0  0  0
    2.8587   -1.2375    0.0000 C   0  0  0  0  0  0  0  0  0  0  0  0
    2.8587   -0.4125    0.0000 C   0  0  0  0  0  0  0  0  0  0  0  0
    2.1442    0.0000    0.0000 C   0  0  0  0  0  0  0  0  0  0  0  0
  2  1  1  0  0  0  0
  3  2  2  0  0  0  0
  4  3  1  0  0  0  0
  5  4  2  0  0  0  0
  6  5  1  0  0  0  0
  6  1  2  0  0  0  0
  7  6  1  0  0  0  0
  8  7  1  0  0  0  0
  9  8  1  0  0  0  0
 10  9  1  0  0  0  0
  1 10  1  0  0  0  0
M  END
> <ChemID>
100310

> <CAS>
119-64-2

> <Original_SMILES>
C1CCCc2ccccc21

> <preferred_name>
Tetralin

> <dsstox_substance_id>
DTXSID1026118

> <dsstox_compound_id>
DTXCID306118

> <qc_level>
DSSTox_Low

> <Canonical_QSARr>
C1CCCC2C=CC=CC=21

> <InChI_Code_QSARr>
InChI=1S/C10H12/c1-2-6-10-8-4-3-7-9(10)5-1/h1-2,5-6H,3-4,7-8H2

> <InChI Key_QSARr>
CXWXQJXEFPUFDZ-UHFFFAOYSA-N

> <Salt_Solvent>


> <Salt_Solvent_ID>
0

> <MPID>
98863

> <OH Reference>
ATKINSON,R (1989)

> <OH>
3.430000000000001E-11

> <OH Temperature>
25.0

> <LogOH>
-10.464705879957249

> <Tr_1_Tst_0>
0

$$$$
100311
  Mrv171c012241912032D          

 10 11  0  0  0  0            999 V2000
    0.0057   -1.2388    0.0000 N   0  0  0  0  0  0  0  0  0  0  0  0
    0.0057   -0.4138    0.0000 C   0  0  0  0  0  0  0  0  0  0  0  0
    0.7202   -0.0013    0.0000 C   0  0  0  0  0  0  0  0  0  0  0  0
    1.4347   -0.4138    0.0000 C   0  0  0  0  0  0  0  0  0  0  0  0
    2.1491   -0.0013    0.0000 C   0  0  0  0  0  0  0  0  0  0  0  0
    2.8636   -0.4138    0.0000 C   0  0  0  0  0  0  0  0  0  0  0  0
    2.8636   -1.2388    0.0000 C   0  0  0  0  0  0  0  0  0  0  0  0
    2.1491   -1.6513    0.0000 C   0  0  0  0  0  0  0  0  0  0  0  0
    1.4347   -1.2388    0.0000 C   0  0  0  0  0  0  0  0  0  0  0  0
    0.7202   -1.6513    0.0000 C   0  0  0  0  0  0  0  0  0  0  0  0
  2  1  1  0  0  0  0
  3  2  2  0  0  0  0
  4  3  1  0  0  0  0
  4  5  1  0  0  0  0
  5  6  2  0  0  0  0
  6  7  1  0  0  0  0
  7  8  2  0  0  0  0
  8  9  1  0  0  0  0
  9  4  2  0  0  0  0
 10  9  1  0  0  0  0
  1 10  2  0  0  0  0
M  END
> <ChemID>
100311

> <CAS>
119-65-3

> <Original_SMILES>
c1[n]ccc2ccccc21

> <preferred_name>
Isoquinoline

> <dsstox_substance_id>
DTXSID2047644

> <dsstox_compound_id>
DTXCID0027644

> <qc_level>
DSSTox_Low

> <Canonical_QSARr>
C1=NC=CC2C=CC=CC=21

> <InChI_Code_QSARr>
InChI=1S/C9H7N/c1-2-4-9-7-10-6-5-8(9)3-1/h1-7H

> <InChI Key_QSARr>
AWJUIBRHMBBTKR-UHFFFAOYSA-N

> <Salt_Solvent>


> <Salt_Solvent_ID>
0

> <MPID>
98864

> <OH Reference>
ATKINSON,R ET AL. (1995B)

> <OH>
8.5E-12

> <OH Temperature>
24.0

> <LogOH>
-11.070581074285716

> <Tr_1_Tst_0>
1

$$$$
100312
  Mrv171c012241912032D          

 14 16  0  0  0  0            999 V2000
    2.1385   -0.0041    0.0000 C   0  0  0  0  0  0  0  0  0  0  0  0
    2.8530   -0.4166    0.0000 C   0  0  0  0  0  0  0  0  0  0  0  0
    3.5675   -0.0041    0.0000 C   0  0  0  0  0  0  0  0  0  0  0  0
    4.2819   -0.4166    0.0000 C   0  0  0  0  0  0  0  0  0  0  0  0
    4.2819   -1.2416    0.0000 C   0  0  0  0  0  0  0  0  0  0  0  0
    3.5675   -1.6541    0.0000 C   0  0  0  0  0  0  0  0  0  0  0  0
    2.8530   -1.2416    0.0000 C   0  0  0  0  0  0  0  0  0  0  0  0
    2.1385   -1.6541    0.0000 C   0  0  0  0  0  0  0  0  0  0  0  0
    1.4240   -1.2416    0.0000 C   0  0  0  0  0  0  0  0  0  0  0  0
    0.7096   -1.6541    0.0000 C   0  0  0  0  0  0  0  0  0  0  0  0
   -0.0049   -1.2416    0.0000 C   0  0  0  0  0  0  0  0  0  0  0  0
   -0.0049   -0.4166    0.0000 C   0  0  0  0  0  0  0  0  0  0  0  0
    0.7096   -0.0041    0.0000 C   0  0  0  0  0  0  0  0  0  0  0  0
    1.4240   -0.4166    0.0000 C   0  0  0  0  0  0  0  0  0  0  0  0
  2  1  2  0  0  0  0
  2  3  1  0  0  0  0
  3  4  2  0  0  0  0
  4  5  1  0  0  0  0
  5  6  2  0  0  0  0
  6  7  1  0  0  0  0
  7  2  1  0  0  0  0
  8  7  2  0  0  0  0
  9  8  1  0  0  0  0
  9 10  1  0  0  0  0
 10 11  2  0  0  0  0
 11 12  1  0  0  0  0
 12 13  2  0  0  0  0
 13 14  1  0  0  0  0
  1 14  1  0  0  0  0
 14  9  2  0  0  0  0
M  END
> <ChemID>
100312

> <CAS>
120-12-7

> <Original_SMILES>
c1c2ccccc2cc2ccccc21

> <preferred_name>
Anthracene

> <dsstox_substance_id>
DTXSID0023878

> <dsstox_compound_id>
DTXCID203878

> <qc_level>
DSSTox_Low

> <Canonical_QSARr>
C1=C2C=CC=CC2=CC2C=CC=CC=21

> <InChI_Code_QSARr>
InChI=1S/C14H10/c1-2-6-12-10-14-8-4-3-7-13(14)9-11(12)5-1/h1-10H

> <InChI Key_QSARr>
MWPLVEDNUUSJAV-UHFFFAOYSA-N

> <Salt_Solvent>


> <Salt_Solvent_ID>
0

> <MPID>
98865

> <OH Reference>
KWOK,ESC ET AL. (1994)

> <OH>
1.1E-10

> <OH Temperature>
25.0

> <LogOH>
-9.95860731484176

> <Tr_1_Tst_0>
1

$$$$
100313
  Mrv171c012241912032D          

  9 10  0  0  0  0            999 V2000
    0.3222   -0.1593    0.0000 N   0  0  0  0  0  0  0  0  0  0  0  0
    1.1068   -0.4143    0.0000 C   0  0  0  0  0  0  0  0  0  0  0  0
    1.8213   -0.0018    0.0000 C   0  0  0  0  0  0  0  0  0  0  0  0
    2.5357   -0.4143    0.0000 C   0  0  0  0  0  0  0  0  0  0  0  0
    2.5357   -1.2393    0.0000 C   0  0  0  0  0  0  0  0  0  0  0  0
    1.8213   -1.6518    0.0000 C   0  0  0  0  0  0  0  0  0  0  0  0
    1.1068   -1.2393    0.0000 C   0  0  0  0  0  0  0  0  0  0  0  0
    0.3222   -1.4942    0.0000 C   0  0  0  0  0  0  0  0  0  0  0  0
   -0.1627   -0.8268    0.0000 C   0  0  0  0  0  0  0  0  0  0  0  0
  2  1  1  0  0  0  0
  2  3  1  0  0  0  0
  3  4  2  0  0  0  0
  4  5  1  0  0  0  0
  5  6  2  0  0  0  0
  6  7  1  0  0  0  0
  7  2  2  0  0  0  0
  8  7  1  0  0  0  0
  9  8  2  0  0  0  0
  1  9  1  0  0  0  0
M  END
> <ChemID>
100313

> <CAS>
120-72-9

> <Original_SMILES>
c1cccc2[nH]ccc21

> <preferred_name>
Indole

> <dsstox_substance_id>
DTXSID0020737

> <dsstox_compound_id>
DTXCID40737

> <qc_level>
DSSTox_Low

> <Canonical_QSARr>
C1=CC=CC2NC=CC=21

> <InChI_Code_QSARr>
InChI=1S/C8H7N/c1-2-4-8-7(3-1)5-6-9-8/h1-6,9H

> <InChI Key_QSARr>
SIKJAQJRHWYJAI-UHFFFAOYSA-N

> <Salt_Solvent>


> <Salt_Solvent_ID>
0

> <MPID>
98866

> <OH Reference>
ATKINSON,R ET AL. (1995B)

> <OH>
1.54E-10

> <OH Temperature>
25.0

> <LogOH>
-9.81247927916353

> <Tr_1_Tst_0>
1

$$$$
100314
  Mrv171c012241912032D          

  8  8  0  0  0  0            999 V2000
    0.0913   -0.7358    0.0000 O   0  0  0  0  0  0  0  0  0  0  0  0
    0.8057   -1.1483    0.0000 C   0  0  0  0  0  0  0  0  0  0  0  0
    0.8057   -1.9733    0.0000 C   0  0  0  0  0  0  0  0  0  0  0  0
    1.5202   -2.3858    0.0000 C   0  0  0  0  0  0  0  0  0  0  0  0
    2.2347   -1.9733    0.0000 C   0  0  0  0  0  0  0  0  0  0  0  0
    2.2347   -1.1483    0.0000 C   0  0  0  0  0  0  0  0  0  0  0  0
    1.5202   -0.7358    0.0000 C   0  0  0  0  0  0  0  0  0  0  0  0
    1.5202    0.0892    0.0000 O   0  0  0  0  0  0  0  0  0  0  0  0
  1  2  1  0  0  0  0
  3  2  1  0  0  0  0
  4  3  2  0  0  0  0
  5  4  1  0  0  0  0
  6  5  2  0  0  0  0
  7  6  1  0  0  0  0
  2  7  2  0  0  0  0
  7  8  1  0  0  0  0
M  END
> <ChemID>
100314

> <CAS>
120-80-9

> <Original_SMILES>
Oc1ccccc1O

> <preferred_name>
Catechol

> <dsstox_substance_id>
DTXSID3020257

> <dsstox_compound_id>
DTXCID30257

> <qc_level>
DSSTox_Low

> <Canonical_QSARr>
OC1C=CC=CC=1O

> <InChI_Code_QSARr>
InChI=1S/C6H6O2/c7-5-3-1-2-4-6(5)8/h1-4,7-8H

> <InChI Key_QSARr>
YCIMNLLNPGFGHC-UHFFFAOYSA-N

> <Salt_Solvent>


> <Salt_Solvent_ID>
0

> <MPID>
98867

> <OH Reference>
OLARIU,RI ET AL. (2000)

> <OH>
1.04E-10

> <OH Temperature>
27.0

> <LogOH>
-9.98296666070123

> <Tr_1_Tst_0>
0

$$$$
100315
  Mrv171c012241912032D          

  9  9  0  0  0  0            999 V2000
    1.7473   -2.4749    0.0000 Cl  0  0  0  0  0  0  0  0  0  0  0  0
    1.7473   -1.6499    0.0000 C   0  0  0  0  0  0  0  0  0  0  0  0
    2.4618   -1.2374    0.0000 C   0  0  0  0  0  0  0  0  0  0  0  0
    2.4618   -0.4124    0.0000 C   0  0  0  0  0  0  0  0  0  0  0  0
    1.7473    0.0001    0.0000 C   0  0  0  0  0  0  0  0  0  0  0  0
    1.7473    0.8251    0.0000 Cl  0  0  0  0  0  0  0  0  0  0  0  0
    1.0328   -0.4124    0.0000 C   0  0  0  0  0  0  0  0  0  0  0  0
    1.0328   -1.2374    0.0000 C   0  0  0  0  0  0  0  0  0  0  0  0
    0.3184   -1.6499    0.0000 Cl  0  0  0  0  0  0  0  0  0  0  0  0
  1  2  1  0  0  0  0
  3  2  1  0  0  0  0
  4  3  2  0  0  0  0
  5  4  1  0  0  0  0
  5  6  1  0  0  0  0
  7  5  2  0  0  0  0
  8  7  1  0  0  0  0
  2  8  2  0  0  0  0
  8  9  1  0  0  0  0
M  END
> <ChemID>
100315

> <CAS>
120-82-1

> <Original_SMILES>
Clc1cc(Cl)c(Cl)cc1

> <preferred_name>
1,2,4-Trichlorobenzene

> <dsstox_substance_id>
DTXSID0021965

> <dsstox_compound_id>
DTXCID701965

> <qc_level>
DSSTox_High

> <Canonical_QSARr>
ClC1=CC(Cl)=C(Cl)C=C1

> <InChI_Code_QSARr>
InChI=1S/C6H3Cl3/c7-4-1-2-5(8)6(9)3-4/h1-3H

> <InChI Key_QSARr>
PBKONEOXTCPAFI-UHFFFAOYSA-N

> <Salt_Solvent>


> <Salt_Solvent_ID>
0

> <MPID>
98868

> <OH Reference>
KWOK,ESC & ATKINSON,R (1994)

> <OH>
5.500000000000001E-13

> <OH Temperature>
25.0

> <LogOH>
-12.259637310505768

> <Tr_1_Tst_0>
1

$$$$
100316
  Mrv171c012241912032D          

  9  9  0  0  0  0            999 V2000
    2.5410   -1.6499    0.0000 Cl  0  0  0  0  0  0  0  0  0  0  0  0
    1.8265   -1.2374    0.0000 C   0  0  0  0  0  0  0  0  0  0  0  0
    1.8265   -0.4124    0.0000 C   0  0  0  0  0  0  0  0  0  0  0  0
    1.1121    0.0001    0.0000 C   0  0  0  0  0  0  0  0  0  0  0  0
    1.1121    0.8251    0.0000 Cl  0  0  0  0  0  0  0  0  0  0  0  0
    0.3976   -0.4124    0.0000 C   0  0  0  0  0  0  0  0  0  0  0  0
    0.3976   -1.2374    0.0000 C   0  0  0  0  0  0  0  0  0  0  0  0
    1.1121   -1.6499    0.0000 C   0  0  0  0  0  0  0  0  0  0  0  0
    1.1121   -2.4749    0.0000 O   0  0  0  0  0  0  0  0  0  0  0  0
  1  2  1  0  0  0  0
  3  2  1  0  0  0  0
  4  3  2  0  0  0  0
  4  5  1  0  0  0  0
  6  4  1  0  0  0  0
  7  6  2  0  0  0  0
  8  7  1  0  0  0  0
  2  8  2  0  0  0  0
  8  9  1  0  0  0  0
M  END
> <ChemID>
100316

> <CAS>
120-83-2

> <Original_SMILES>
Oc1ccc(Cl)cc1Cl

> <preferred_name>
2,4-Dichlorophenol

> <dsstox_substance_id>
DTXSID1020439

> <dsstox_compound_id>
DTXCID70439

> <qc_level>
DSSTox_Low

> <Canonical_QSARr>
OC1C=CC(Cl)=CC=1Cl

> <InChI_Code_QSARr>
InChI=1S/C6H4Cl2O/c7-4-1-2-6(9)5(8)3-4/h1-3,9H

> <InChI Key_QSARr>
HFZWRUODUSTPEG-UHFFFAOYSA-N

> <Salt_Solvent>


> <Salt_Solvent_ID>
0

> <MPID>
98869

> <OH Reference>
ATKINSON,R (1989)

> <OH>
1.06E-12

> <OH Temperature>
25.0

> <LogOH>
-11.974694134735241

> <Tr_1_Tst_0>
1

$$$$
100317
  Mrv171c012241912032D          

  6  6  0  0  0  0            999 V2000
    0.6463   -0.7917    0.0000 C   0  0  0  0  0  0  0  0  0  0  0  0
    0.6463    0.0333    0.0000 O   0  0  0  0  0  0  0  0  0  0  0  0
   -0.0211   -1.2766    0.0000 C   0  0  0  0  0  0  0  0  0  0  0  0
    0.2338   -2.0612    0.0000 C   0  0  0  0  0  0  0  0  0  0  0  0
    1.0588   -2.0612    0.0000 C   0  0  0  0  0  0  0  0  0  0  0  0
    1.3137   -1.2766    0.0000 C   0  0  0  0  0  0  0  0  0  0  0  0
  1  2  2  0  0  0  0
  3  1  1  0  0  0  0
  4  3  1  0  0  0  0
  5  4  1  0  0  0  0
  6  5  1  0  0  0  0
  1  6  1  0  0  0  0
M  END
> <ChemID>
100317

> <CAS>
120-92-3

> <Original_SMILES>
O=C1CCCC1

> <preferred_name>
Cyclopentanone

> <dsstox_substance_id>
DTXSID3029154

> <dsstox_compound_id>
DTXCID209154

> <qc_level>
DSSTox_Low

> <Canonical_QSARr>
O=C1CCCC1

> <InChI_Code_QSARr>
InChI=1S/C5H8O/c6-5-3-1-2-4-5/h1-4H2

> <InChI Key_QSARr>
BGTOWKSIORTVQH-UHFFFAOYSA-N

> <Salt_Solvent>


> <Salt_Solvent_ID>
0

> <MPID>
98870

> <OH Reference>
KWOK,ESC & ATKINSON,R (1994)

> <OH>
2.939999999999999E-12

> <OH Temperature>
25.0

> <LogOH>
-11.53165266958786

> <Tr_1_Tst_0>
1

$$$$
100318
  Mrv171c012241912032D          

  7  8  0  0  0  0            999 V2000
    1.0644   -2.2062    0.0000 C   0  0  0  0  0  0  0  0  0  0  0  0
    0.3500   -1.7937    0.0000 C   0  0  0  0  0  0  0  0  0  0  0  0
    0.3500   -0.9687    0.0000 C   0  0  0  0  0  0  0  0  0  0  0  0
    1.0644   -0.5562    0.0000 C   0  0  0  0  0  0  0  0  0  0  0  0
    1.7789   -0.9687    0.0000 C   0  0  0  0  0  0  0  0  0  0  0  0
    1.7789   -1.7937    0.0000 C   0  0  0  0  0  0  0  0  0  0  0  0
    0.8582   -1.3812    0.0000 C   0  0  0  0  0  0  0  0  0  0  0  0
  2  1  1  0  0  0  0
  3  2  2  0  0  0  0
  4  3  1  0  0  0  0
  4  5  1  0  0  0  0
  5  6  2  0  0  0  0
  6  1  1  0  0  0  0
  7  4  1  0  0  0  0
  1  7  1  0  0  0  0
M  END
> <ChemID>
100318

> <CAS>
121-46-0

> <Original_SMILES>
C1C2C=CC1C=C2

> <preferred_name>
2,5-Norbornadiene

> <dsstox_substance_id>
DTXSID1059523

> <dsstox_compound_id>
DTXCID6033669

> <qc_level>
Public_High

> <Canonical_QSARr>
C1C2C=CC1C=C2

> <InChI_Code_QSARr>
InChI=1S/C7H8/c1-2-7-4-3-6(1)5-7/h1-4,6-7H,5H2

> <InChI Key_QSARr>
SJYNFBVQFBRSIB-UHFFFAOYSA-N

> <Salt_Solvent>


> <Salt_Solvent_ID>
0

> <MPID>
98871

> <OH Reference>
ATKINSON,R (1989)

> <OH>
1.2E-10

> <OH Temperature>
25.0

> <LogOH>
-9.920818753952373

> <Tr_1_Tst_0>
0

$$$$
100319
  Mrv171c012241912032D          

  9  9  0  0  0  0            999 V2000
    2.1337    0.7064    0.0000 C   0  0  0  0  0  0  0  0  0  0  0  0
    1.4193    0.2939    0.0000 N   0  0  0  0  0  0  0  0  0  0  0  0
    0.7048    0.7064    0.0000 C   0  0  0  0  0  0  0  0  0  0  0  0
    1.4193   -0.5311    0.0000 C   0  0  0  0  0  0  0  0  0  0  0  0
    0.7048   -0.9436    0.0000 C   0  0  0  0  0  0  0  0  0  0  0  0
    0.7048   -1.7686    0.0000 C   0  0  0  0  0  0  0  0  0  0  0  0
    1.4193   -2.1811    0.0000 C   0  0  0  0  0  0  0  0  0  0  0  0
    2.1337   -1.7686    0.0000 C   0  0  0  0  0  0  0  0  0  0  0  0
    2.1337   -0.9436    0.0000 C   0  0  0  0  0  0  0  0  0  0  0  0
  1  2  1  0  0  0  0
  2  3  1  0  0  0  0
  2  4  1  0  0  0  0
  5  4  1  0  0  0  0
  6  5  2  0  0  0  0
  7  6  1  0  0  0  0
  8  7  2  0  0  0  0
  9  8  1  0  0  0  0
  4  9  2  0  0  0  0
M  END
> <ChemID>
100319

> <CAS>
121-69-7

> <Original_SMILES>
CN(C)c1ccccc1

> <preferred_name>
N,N-Dimethylaniline

> <dsstox_substance_id>
DTXSID2020507

> <dsstox_compound_id>
DTXCID60507

> <qc_level>
DSSTox_Low

> <Canonical_QSARr>
CN(C)C1C=CC=CC=1

> <InChI_Code_QSARr>
InChI=1S/C8H11N/c1-9(2)8-6-4-3-5-7-8/h3-7H,1-2H3

> <InChI Key_QSARr>
JLTDJTHDQAWBAV-UHFFFAOYSA-N

> <Salt_Solvent>


> <Salt_Solvent_ID>
0

> <MPID>
98872

> <OH Reference>
ATKINSON,R (1989)

> <OH>
1.48E-10

> <OH Temperature>
25.0

> <LogOH>
-9.829738284605027

> <Tr_1_Tst_0>
1

$$$$
100320
  Mrv171c012241912032D          

 13 13  0  0  0  0            999 V2000
    3.8567   -2.9222    0.0000 Cl  0  0  0  0  0  0  0  0  0  0  0  0
    3.1422   -2.5097    0.0000 C   0  0  0  0  0  0  0  0  0  0  0  0
    3.1422   -1.6847    0.0000 N   0  0  0  0  0  0  0  0  0  0  0  0
    2.4277   -1.2722    0.0000 C   0  0  0  0  0  0  0  0  0  0  0  0
    2.4277   -0.4472    0.0000 N   0  0  0  0  0  0  0  0  0  0  0  0
    3.1422   -0.0347    0.0000 C   0  0  0  0  0  0  0  0  0  0  0  0
    3.1422    0.7903    0.0000 C   0  0  0  0  0  0  0  0  0  0  0  0
    1.7133   -1.6847    0.0000 N   0  0  0  0  0  0  0  0  0  0  0  0
    1.7133   -2.5097    0.0000 C   0  0  0  0  0  0  0  0  0  0  0  0
    0.9988   -2.9222    0.0000 N   0  0  0  0  0  0  0  0  0  0  0  0
    0.2843   -2.5097    0.0000 C   0  0  0  0  0  0  0  0  0  0  0  0
   -0.4301   -2.9222    0.0000 C   0  0  0  0  0  0  0  0  0  0  0  0
    2.4277   -2.9222    0.0000 N   0  0  0  0  0  0  0  0  0  0  0  0
  1  2  1  0  0  0  0
  3  2  1  0  0  0  0
  4  3  2  0  0  0  0
  4  5  1  0  0  0  0
  5  6  1  0  0  0  0
  6  7  1  0  0  0  0
  8  4  1  0  0  0  0
  9  8  2  0  0  0  0
  9 10  1  0  0  0  0
 10 11  1  0  0  0  0
 11 12  1  0  0  0  0
 13  9  1  0  0  0  0
  2 13  2  0  0  0  0
M  END
> <ChemID>
100320

> <CAS>
122-34-9

> <Original_SMILES>
CCNc1[n]c(Cl)[n]c(NCC)[n]1

> <preferred_name>
Simazine

> <dsstox_substance_id>
DTXSID4021268

> <dsstox_compound_id>
DTXCID501268

> <qc_level>
DSSTox_Low

> <Canonical_QSARr>
CCNC1=NC(Cl)=NC(NCC)=N1

> <InChI_Code_QSARr>
InChI=1S/C7H12ClN5/c1-3-9-6-11-5(8)12-7(13-6)10-4-2/h3-4H2,1-2H3,(H2,9,10,11,12,13)

> <InChI Key_QSARr>
ODCWYMIRDDJXKW-UHFFFAOYSA-N

> <Salt_Solvent>


> <Salt_Solvent_ID>
0

> <MPID>
98873

> <OH Reference>
PALM,WU ET AL. (1998)

> <OH>
1.1E-11

> <OH Temperature>
25.0

> <LogOH>
-10.958607314841784

> <Tr_1_Tst_0>
1

$$$$
100321
  Mrv171c012241912032D          

 13 14  0  0  0  0            999 V2000
    3.5155   -1.7446    0.0000 C   0  0  0  0  0  0  0  0  0  0  0  0
    2.8010   -1.3321    0.0000 C   0  0  0  0  0  0  0  0  0  0  0  0
    2.8010   -0.5071    0.0000 N   0  0  0  0  0  0  0  0  0  0  0  0
    2.0865   -0.0946    0.0000 C   0  0  0  0  0  0  0  0  0  0  0  0
    2.0865    0.7304    0.0000 C   0  0  0  0  0  0  0  0  0  0  0  0
    1.3721    1.1429    0.0000 C   0  0  0  0  0  0  0  0  0  0  0  0
    0.6576    0.7304    0.0000 C   0  0  0  0  0  0  0  0  0  0  0  0
    0.6576   -0.0946    0.0000 C   0  0  0  0  0  0  0  0  0  0  0  0
    1.3721   -0.5071    0.0000 C   0  0  0  0  0  0  0  0  0  0  0  0
    2.0865   -1.7446    0.0000 C   0  0  0  0  0  0  0  0  0  0  0  0
    2.0865   -2.5696    0.0000 C   0  0  0  0  0  0  0  0  0  0  0  0
    2.8010   -2.9821    0.0000 C   0  0  0  0  0  0  0  0  0  0  0  0
    3.5155   -2.5696    0.0000 C   0  0  0  0  0  0  0  0  0  0  0  0
  2  1  1  0  0  0  0
  2  3  1  0  0  0  0
  3  4  1  0  0  0  0
  5  4  1  0  0  0  0
  6  5  2  0  0  0  0
  7  6  1  0  0  0  0
  8  7  2  0  0  0  0
  9  8  1  0  0  0  0
  4  9  2  0  0  0  0
 10  2  2  0  0  0  0
 11 10  1  0  0  0  0
 12 11  2  0  0  0  0
 13 12  1  0  0  0  0
  1 13  2  0  0  0  0
M  END
> <ChemID>
100321

> <CAS>
122-39-4

> <Original_SMILES>
c1ccccc1Nc1ccccc1

> <preferred_name>
Diphenylamine

> <dsstox_substance_id>
DTXSID4021975

> <dsstox_compound_id>
DTXCID001975

> <qc_level>
DSSTox_Low

> <Canonical_QSARr>
C1=CC=CC=C1NC1C=CC=CC=1

> <InChI_Code_QSARr>
InChI=1S/C12H11N/c1-3-7-11(8-4-1)13-12-9-5-2-6-10-12/h1-10,13H

> <InChI Key_QSARr>
DMBHHRLKUKUOEG-UHFFFAOYSA-N

> <Salt_Solvent>


> <Salt_Solvent_ID>
0

> <MPID>
98874

> <OH Reference>
priv. communication; KOCH,R ET AL. (1994)

> <OH>
1.94E-10

> <OH Temperature>
25.0

> <LogOH>
-9.712198270069765

> <Tr_1_Tst_0>
1

$$$$
100322
  Mrv171c012241912032D          

 10  9  0  0  0  0            999 V2000
    3.0849   -0.3647    0.0000 C   0  0  0  0  0  0  0  0  0  0  0  0
    2.3704   -0.7772    0.0000 C   0  0  0  0  0  0  0  0  0  0  0  0
    1.6559   -0.3647    0.0000 C   0  0  0  0  0  0  0  0  0  0  0  0
    0.9415   -0.7772    0.0000 C   0  0  0  0  0  0  0  0  0  0  0  0
    0.9415   -1.6022    0.0000 C   0  0  0  0  0  0  0  0  0  0  0  0
    1.6559   -2.0147    0.0000 C   0  0  0  0  0  0  0  0  0  0  0  0
    0.2270   -2.0147    0.0000 C   0  0  0  0  0  0  0  0  0  0  0  0
    3.7994   -0.7772    0.0000 C   0  0  0  0  0  0  0  0  0  0  0  0
    4.5138   -0.3647    0.0000 C   0  0  0  0  0  0  0  0  0  0  0  0
    3.0849    0.4603    0.0000 C   0  0  0  0  0  0  0  0  0  0  0  0
  1  2  1  0  0  0  0
  2  3  1  0  0  0  0
  3  4  1  0  0  0  0
  4  5  2  0  0  0  0
  5  6  1  0  0  0  0
  5  7  1  0  0  0  0
  1  8  1  0  0  0  0
  8  9  2  0  0  0  0
  1 10  2  0  0  0  0
M  END
> <ChemID>
100322

> <CAS>
123-35-3

> <Original_SMILES>
CC(C)=CCCC(=C)C=C

> <preferred_name>
Myrcene

> <dsstox_substance_id>
DTXSID6025692

> <dsstox_compound_id>
DTXCID205692

> <qc_level>
DSSTox_Low

> <Canonical_QSARr>
CC(C)=CCCC(=C)C=C

> <InChI_Code_QSARr>
InChI=1S/C10H16/c1-5-10(4)8-6-7-9(2)3/h5,7H,1,4,6,8H2,2-3H3

> <InChI Key_QSARr>
UAHWPYUMFXYFJY-UHFFFAOYSA-N

> <Salt_Solvent>


> <Salt_Solvent_ID>
0

> <MPID>
98875

> <OH Reference>
ATKINSON,R (1989)

> <OH>
2.15E-10

> <OH Temperature>
25.0

> <LogOH>
-9.6675615400844

> <Tr_1_Tst_0>
0

$$$$
100323
  Mrv171c012241912032D          

  4  3  0  0  0  0            999 V2000
    2.1043   -0.5633    0.0000 C   0  0  0  0  0  0  0  0  0  0  0  0
    1.2793   -0.5633    0.0000 C   0  0  0  0  0  0  0  0  0  0  0  0
    0.8668    0.1512    0.0000 C   0  0  0  0  0  0  0  0  0  0  0  0
    0.0418    0.1512    0.0000 O   0  0  0  0  0  0  0  0  0  0  0  0
  1  2  1  0  0  0  0
  2  3  1  0  0  0  0
  3  4  2  0  0  0  0
M  END
> <ChemID>
100323

> <CAS>
123-38-6

> <Original_SMILES>
CCC=O

> <preferred_name>
Propanal

> <dsstox_substance_id>
DTXSID2021658

> <dsstox_compound_id>
DTXCID001658

> <qc_level>
DSSTox_Low

> <Canonical_QSARr>
CCC=O

> <InChI_Code_QSARr>
InChI=1S/C3H6O/c1-2-3-4/h3H,2H2,1H3

> <InChI Key_QSARr>
NBBJYMSMWIIQGU-UHFFFAOYSA-N

> <Salt_Solvent>


> <Salt_Solvent_ID>
0

> <MPID>
98876

> <OH Reference>
ATKINSON,R (1989)

> <OH>
1.96E-11

> <OH Temperature>
25.0

> <LogOH>
-10.707743928643534

> <Tr_1_Tst_0>
1

$$$$
100324
  Mrv171c012241912032D          

  8  7  0  0  0  0            999 V2000
    1.9832   -0.8639    0.0000 C   0  0  0  0  0  0  0  0  0  0  0  0
    1.5707   -0.1494    0.0000 C   0  0  0  0  0  0  0  0  0  0  0  0
    1.1582    0.5651    0.0000 O   0  0  0  0  0  0  0  0  0  0  0  0
    0.8562   -0.5619    0.0000 C   0  0  0  0  0  0  0  0  0  0  0  0
    2.2851    0.2631    0.0000 C   0  0  0  0  0  0  0  0  0  0  0  0
    1.5707   -1.5783    0.0000 C   0  0  0  0  0  0  0  0  0  0  0  0
    1.9832   -2.2928    0.0000 O   0  0  0  0  0  0  0  0  0  0  0  0
    0.7457   -1.5783    0.0000 C   0  0  0  0  0  0  0  0  0  0  0  0
  1  2  1  0  0  0  0
  2  3  1  0  0  0  0
  2  4  1  0  0  0  0
  2  5  1  0  0  0  0
  1  6  1  0  0  0  0
  6  7  2  0  0  0  0
  6  8  1  0  0  0  0
M  END
> <ChemID>
100324

> <CAS>
123-42-2

> <Original_SMILES>
CC(=O)CC(C)(C)O

> <preferred_name>
Diacetone alcohol

> <dsstox_substance_id>
DTXSID6024917

> <dsstox_compound_id>
DTXCID304917

> <qc_level>
DSSTox_Low

> <Canonical_QSARr>
CC(=O)CC(C)(C)O

> <InChI_Code_QSARr>
InChI=1S/C6H12O2/c1-5(7)4-6(2,3)8/h8H,4H2,1-3H3

> <InChI Key_QSARr>
SWXVUIWOUIDPGS-UHFFFAOYSA-N

> <Salt_Solvent>


> <Salt_Solvent_ID>
0

> <MPID>
98877

> <OH Reference>
ATKINSON,R & ASCHMANN,SM (1995)

> <OH>
4.000000000000001E-12

> <OH Temperature>
23.0

> <LogOH>
-11.397940008672055

> <Tr_1_Tst_0>
1

$$$$
100325
  Mrv171c012241912032D          

  6  5  0  0  0  0            999 V2000
    1.2739   -1.1327    0.0000 C   0  0  0  0  0  0  0  0  0  0  0  0
    2.0989   -1.1327    0.0000 C   0  0  0  0  0  0  0  0  0  0  0  0
    2.5114   -1.8472    0.0000 C   0  0  0  0  0  0  0  0  0  0  0  0
    2.5114   -0.4182    0.0000 C   0  0  0  0  0  0  0  0  0  0  0  0
    0.8614   -0.4182    0.0000 C   0  0  0  0  0  0  0  0  0  0  0  0
    0.0364   -0.4182    0.0000 O   0  0  0  0  0  0  0  0  0  0  0  0
  1  2  1  0  0  0  0
  2  3  1  0  0  0  0
  2  4  1  0  0  0  0
  1  5  1  0  0  0  0
  5  6  1  0  0  0  0
M  END
> <ChemID>
100325

> <CAS>
123-51-3

> <Original_SMILES>
CC(C)CCO

> <preferred_name>
Isopentyl alcohol

> <dsstox_substance_id>
DTXSID3025469

> <dsstox_compound_id>
DTXCID705469

> <qc_level>
DSSTox_Low

> <Canonical_QSARr>
CC(C)CCO

> <InChI_Code_QSARr>
InChI=1S/C5H12O/c1-5(2)3-4-6/h5-6H,3-4H2,1-2H3

> <InChI Key_QSARr>
PHTQWCKDNZKARW-UHFFFAOYSA-N

> <Salt_Solvent>


> <Salt_Solvent_ID>
0

> <MPID>
98878

> <OH Reference>
SAUNDERS,SM ET AL. (1993)

> <OH>
1.31E-11

> <OH Temperature>
25.0

> <LogOH>
-10.882728704344215

> <Tr_1_Tst_0>
1

$$$$
100326
  Mrv171c012241912032D          

  7  6  0  0  0  0            999 V2000
    1.9012    0.6622    0.0000 C   0  0  0  0  0  0  0  0  0  0  0  0
    1.4887   -0.0523    0.0000 C   0  0  0  0  0  0  0  0  0  0  0  0
    1.9012   -0.7668    0.0000 C   0  0  0  0  0  0  0  0  0  0  0  0
    1.4887   -1.4813    0.0000 C   0  0  0  0  0  0  0  0  0  0  0  0
    1.9012   -2.1957    0.0000 C   0  0  0  0  0  0  0  0  0  0  0  0
    0.6637   -1.4813    0.0000 O   0  0  0  0  0  0  0  0  0  0  0  0
    0.6637   -0.0523    0.0000 O   0  0  0  0  0  0  0  0  0  0  0  0
  1  2  1  0  0  0  0
  2  3  1  0  0  0  0
  3  4  1  0  0  0  0
  4  5  1  0  0  0  0
  4  6  2  0  0  0  0
  2  7  2  0  0  0  0
M  END
> <ChemID>
100326

> <CAS>
123-54-6

> <Original_SMILES>
CC(=O)CC(C)=O

> <preferred_name>
2,4-Pentanedione

> <dsstox_substance_id>
DTXSID4021979

> <dsstox_compound_id>
DTXCID601979

> <qc_level>
DSSTox_Low

> <Canonical_QSARr>
CC(=O)CC(C)=O

> <InChI_Code_QSARr>
InChI=1S/C5H8O2/c1-4(6)3-5(2)7/h3H2,1-2H3

> <InChI Key_QSARr>
YRKCREAYFQTBPV-UHFFFAOYSA-N

> <Salt_Solvent>


> <Salt_Solvent_ID>
0

> <MPID>
98879

> <OH Reference>
ATKINSON,R (1989)

> <OH>
1.15E-12

> <OH Temperature>
25.0

> <LogOH>
-11.939302159646392

> <Tr_1_Tst_0>
0

$$$$
100327
  Mrv171c012241912032D          

  5  4  0  0  0  0            999 V2000
    2.5848   -1.1044    0.0000 C   0  0  0  0  0  0  0  0  0  0  0  0
    2.1723   -0.3899    0.0000 C   0  0  0  0  0  0  0  0  0  0  0  0
    1.3473   -0.3899    0.0000 C   0  0  0  0  0  0  0  0  0  0  0  0
    0.9348    0.3245    0.0000 C   0  0  0  0  0  0  0  0  0  0  0  0
    0.1098    0.3245    0.0000 O   0  0  0  0  0  0  0  0  0  0  0  0
  1  2  1  0  0  0  0
  2  3  1  0  0  0  0
  3  4  1  0  0  0  0
  4  5  2  0  0  0  0
M  END
> <ChemID>
100327

> <CAS>
123-72-8

> <Original_SMILES>
CCCC=O

> <preferred_name>
Butyraldehyde

> <dsstox_substance_id>
DTXSID8021513

> <dsstox_compound_id>
DTXCID601513

> <qc_level>
DSSTox_Low

> <Canonical_QSARr>
CCCC=O

> <InChI_Code_QSARr>
InChI=1S/C4H8O/c1-2-3-4-5/h4H,2-3H2,1H3

> <InChI Key_QSARr>
ZTQSAGDEMFDKMZ-UHFFFAOYSA-N

> <Salt_Solvent>


> <Salt_Solvent_ID>
0

> <MPID>
98880

> <OH Reference>
ATKINSON,R (1985)

> <OH>
2.35E-11

> <OH Temperature>
25.0

> <LogOH>
-10.628932137728247

> <Tr_1_Tst_0>
1

$$$$
100328
  Mrv171c012241912032D          

  5  4  0  0  0  0            999 V2000
    1.2375    0.7145    0.0000 C   0  0  0  0  0  0  0  0  0  0  0  0
    0.8250    0.0000    0.0000 C   0  0  0  0  0  0  0  0  0  0  0  0
    0.0000    0.0000    0.0000 C   0  0  0  0  0  0  0  0  0  0  0  0
   -0.4125   -0.7145    0.0000 C   0  0  0  0  0  0  0  0  0  0  0  0
    0.0000   -1.4289    0.0000 O   0  0  0  0  0  0  0  0  0  0  0  0
  2  1  1  4  0  0  0
  2  3  2  0  0  0  0
  3  4  1  0  0  0  0
  4  5  2  0  0  0  0
M  END
> <ChemID>
100328

> <CAS>
123-73-9|4170-30-3

> <Original_SMILES>
C/C=C/C=O

> <preferred_name>
(E)-Crotonaldehyde|Crotonaldehyde

> <dsstox_substance_id>
DTXSID6020351|DTXSID8024864

> <dsstox_compound_id>
DTXCID60351|DTXCID404864

> <qc_level>
DSSTox_Low

> <Canonical_QSARr>
CC=CC=O

> <InChI_Code_QSARr>
InChI=1S/C4H6O/c1-2-3-4-5/h2-4H,1H3

> <InChI Key_QSARr>
MLUCVPSAIODCQM-UHFFFAOYSA-N

> <Salt_Solvent>


> <Salt_Solvent_ID>
0

> <MPID>
98881|99202

> <OH Reference>
ATKINSON,R (1989)

> <OH>
3.609499999999999E-11

> <OH Temperature>
25.0

> <LogOH>
-10.44255295385063

> <Tr_1_Tst_0>
1

$$$$
100329
  Mrv171c012241912032D          

  8  7  0  0  0  0            999 V2000
   -0.1066   -0.4070    0.0000 C   0  0  0  0  0  0  0  0  0  0  0  0
    0.6078   -0.8195    0.0000 C   0  0  0  0  0  0  0  0  0  0  0  0
    1.3223   -0.4070    0.0000 O   0  0  0  0  0  0  0  0  0  0  0  0
    2.0368   -0.8195    0.0000 C   0  0  0  0  0  0  0  0  0  0  0  0
    2.7512   -0.4070    0.0000 C   0  0  0  0  0  0  0  0  0  0  0  0
    3.4657   -0.8195    0.0000 C   0  0  0  0  0  0  0  0  0  0  0  0
    4.1802   -0.4070    0.0000 C   0  0  0  0  0  0  0  0  0  0  0  0
    0.6078   -1.6445    0.0000 O   0  0  0  0  0  0  0  0  0  0  0  0
  1  2  1  0  0  0  0
  2  3  1  0  0  0  0
  3  4  1  0  0  0  0
  4  5  1  0  0  0  0
  5  6  1  0  0  0  0
  6  7  1  0  0  0  0
  2  8  2  0  0  0  0
M  END
> <ChemID>
100329

> <CAS>
123-86-4

> <Original_SMILES>
CCCCOC(C)=O

> <preferred_name>
Butyl acetate

> <dsstox_substance_id>
DTXSID3021982

> <dsstox_compound_id>
DTXCID101982

> <qc_level>
DSSTox_Low

> <Canonical_QSARr>
CCCCOC(C)=O

> <InChI_Code_QSARr>
InChI=1S/C6H12O2/c1-3-4-5-8-6(2)7/h3-5H2,1-2H3

> <InChI Key_QSARr>
DKPFZGUDAPQIHT-UHFFFAOYSA-N

> <Salt_Solvent>


> <Salt_Solvent_ID>
0

> <MPID>
98882

> <OH Reference>
KWOK,ESC & ATKINSON,R (1994)

> <OH>
4.9E-12

> <OH Temperature>
25.0

> <LogOH>
-11.309803919971499

> <Tr_1_Tst_0>
1

$$$$
100330
  Mrv171c012241912032D          

  6  6  0  0  0  0            999 V2000
    1.4289   -0.4125    0.0000 C   0  0  0  0  0  0  0  0  0  0  0  0
    0.7145    0.0000    0.0000 O   0  0  0  0  0  0  0  0  0  0  0  0
    0.0000   -0.4125    0.0000 C   0  0  0  0  0  0  0  0  0  0  0  0
    0.0000   -1.2375    0.0000 C   0  0  0  0  0  0  0  0  0  0  0  0
    0.7145   -1.6500    0.0000 O   0  0  0  0  0  0  0  0  0  0  0  0
    1.4289   -1.2375    0.0000 C   0  0  0  0  0  0  0  0  0  0  0  0
  2  1  1  0  0  0  0
  3  2  1  0  0  0  0
  4  3  1  0  0  0  0
  5  4  1  0  0  0  0
  6  5  1  0  0  0  0
  1  6  1  0  0  0  0
M  END
> <ChemID>
100330

> <CAS>
123-91-1

> <Original_SMILES>
C1COCCO1

> <preferred_name>
1,4-Dioxane

> <dsstox_substance_id>
DTXSID4020533

> <dsstox_compound_id>
DTXCID00533

> <qc_level>
DSSTox_Low

> <Canonical_QSARr>
C1COCCO1

> <InChI_Code_QSARr>
InChI=1S/C4H8O2/c1-2-6-4-3-5-1/h1-4H2

> <InChI Key_QSARr>
RYHBNJHYFVUHQT-UHFFFAOYSA-N

> <Salt_Solvent>


> <Salt_Solvent_ID>
0

> <MPID>
98883

> <OH Reference>
ATKINSON,R (1989)

> <OH>
1.09E-11

> <OH Temperature>
25.0

> <LogOH>
-10.962573502059396

> <Tr_1_Tst_0>
0

$$$$
100331
  Mrv171c012241912032D          

 10  9  0  0  0  0            999 V2000
    0.7189    0.0002    0.0000 C   0  0  0  0  0  0  0  0  0  0  0  0
    0.0045   -0.4123    0.0000 C   0  0  0  0  0  0  0  0  0  0  0  0
    1.4334   -0.4123    0.0000 C   0  0  0  0  0  0  0  0  0  0  0  0
    2.1479    0.0002    0.0000 C   0  0  0  0  0  0  0  0  0  0  0  0
    2.8624   -0.4123    0.0000 C   0  0  0  0  0  0  0  0  0  0  0  0
    3.5768    0.0002    0.0000 C   0  0  0  0  0  0  0  0  0  0  0  0
    4.2913   -0.4123    0.0000 C   0  0  0  0  0  0  0  0  0  0  0  0
    5.0058    0.0002    0.0000 C   0  0  0  0  0  0  0  0  0  0  0  0
    5.7202   -0.4123    0.0000 C   0  0  0  0  0  0  0  0  0  0  0  0
    6.4347    0.0002    0.0000 C   0  0  0  0  0  0  0  0  0  0  0  0
  1  2  1  0  0  0  0
  1  3  1  0  0  0  0
  3  4  1  0  0  0  0
  4  5  1  0  0  0  0
  5  6  1  0  0  0  0
  6  7  1  0  0  0  0
  7  8  1  0  0  0  0
  8  9  1  0  0  0  0
  9 10  1  0  0  0  0
M  END
> <ChemID>
100331

> <CAS>
124-18-5

> <Original_SMILES>
CCCCCCCCCC

> <preferred_name>
Decane

> <dsstox_substance_id>
DTXSID6024913

> <dsstox_compound_id>
DTXCID704913

> <qc_level>
DSSTox_Low

> <Canonical_QSARr>
CCCCCCCCCC

> <InChI_Code_QSARr>
InChI=1S/C10H22/c1-3-5-7-9-10-8-6-4-2/h3-10H2,1-2H3

> <InChI Key_QSARr>
DIOQZVSQGTUSAI-UHFFFAOYSA-N

> <Salt_Solvent>


> <Salt_Solvent_ID>
0

> <MPID>
98884

> <OH Reference>
ATKINSON,R (1989)

> <OH>
1.16E-11

> <OH Temperature>
25.0

> <LogOH>
-10.935542010773068

> <Tr_1_Tst_0>
1

$$$$
100332
  Mrv171c012241912032D          

  3  2  0  0  0  0            999 V2000
   -0.0269   -0.3388    0.0000 C   0  0  0  0  0  0  0  0  0  0  0  0
    0.6876   -0.7513    0.0000 N   0  0  0  0  0  0  0  0  0  0  0  0
    1.4020   -0.3388    0.0000 C   0  0  0  0  0  0  0  0  0  0  0  0
  1  2  1  0  0  0  0
  2  3  1  0  0  0  0
M  END
> <ChemID>
100332

> <CAS>
124-40-3

> <Original_SMILES>
CNC

> <preferred_name>
Dimethylamine

> <dsstox_substance_id>
DTXSID5024057

> <dsstox_compound_id>
DTXCID704057

> <qc_level>
DSSTox_High

> <Canonical_QSARr>
CNC

> <InChI_Code_QSARr>
InChI=1S/C2H7N/c1-3-2/h3H,1-2H3

> <InChI Key_QSARr>
ROSDSFDQCJNGOL-UHFFFAOYSA-N

> <Salt_Solvent>


> <Salt_Solvent_ID>
0

> <MPID>
98885

> <OH Reference>
ATKINSON,R (1989)

> <OH>
6.539999999999999E-11

> <OH Temperature>
25.0

> <LogOH>
-10.184422251675734

> <Tr_1_Tst_0>
1

$$$$
100333
  Mrv171c012241912032D          

  6  5  0  0  0  0            999 V2000
    0.8375   -1.8112    0.0000 C   0  0  0  0  0  0  0  0  0  0  0  0
    0.1230   -2.2237    0.0000 O   0  0  0  0  0  0  0  0  0  0  0  0
    0.8375   -0.9862    0.0000 C   0  0  0  0  0  0  0  0  0  0  0  0
    0.8375   -0.1612    0.0000 C   0  0  0  0  0  0  0  0  0  0  0  0
    1.6625   -0.9862    0.0000 N   0  0  0  0  0  0  0  0  0  0  0  0
    0.0125   -0.9862    0.0000 C   0  0  0  0  0  0  0  0  0  0  0  0
  1  2  1  0  0  0  0
  1  3  1  0  0  0  0
  3  4  1  0  0  0  0
  3  5  1  0  0  0  0
  3  6  1  0  0  0  0
M  END
> <ChemID>
100333

> <CAS>
124-68-5

> <Original_SMILES>
CC(C)(N)CO

> <preferred_name>
2-Amino-2-methylpropan-1-ol

> <dsstox_substance_id>
DTXSID8027032

> <dsstox_compound_id>
DTXCID407032

> <qc_level>
DSSTox_Low

> <Canonical_QSARr>
CC(C)(N)CO

> <InChI_Code_QSARr>
InChI=1S/C4H11NO/c1-4(2,5)3-6/h6H,3,5H2,1-2H3

> <InChI Key_QSARr>
CBTVGIZVANVGBH-UHFFFAOYSA-N

> <Salt_Solvent>


> <Salt_Solvent_ID>
0

> <MPID>
98886

> <OH Reference>
ATKINSON,R (1989)

> <OH>
2.8E-11

> <OH Temperature>
25.0

> <LogOH>
-10.55284196865776

> <Tr_1_Tst_0>
1

$$$$
100334
  Mrv171c012241912032D          

  7  6  0  0  0  0            999 V2000
    1.0959   -0.6395    0.0000 C   0  0  0  0  0  0  0  0  0  0  0  0
    1.5084    0.0749    0.0000 F   0  0  0  0  0  0  0  0  0  0  0  0
    0.3814   -0.2270    0.0000 F   0  0  0  0  0  0  0  0  0  0  0  0
    1.8104   -1.0520    0.0000 F   0  0  0  0  0  0  0  0  0  0  0  0
    0.6834   -1.3540    0.0000 C   0  0  0  0  0  0  0  0  0  0  0  0
    1.0959   -2.0685    0.0000 F   0  0  0  0  0  0  0  0  0  0  0  0
   -0.1416   -1.3540    0.0000 Br  0  0  0  0  0  0  0  0  0  0  0  0
  1  2  1  0  0  0  0
  1  3  1  0  0  0  0
  1  4  1  0  0  0  0
  1  5  1  0  0  0  0
  5  6  1  0  0  0  0
  5  7  1  0  0  0  0
M  END
> <ChemID>
100334

> <CAS>
124-72-1

> <Original_SMILES>
FC(Br)C(F)(F)F

> <preferred_name>


> <dsstox_substance_id>
DTXSID10861765

> <dsstox_compound_id>
DTXCID20810648

> <qc_level>


> <Canonical_QSARr>
FC(Br)C(F)(F)F

> <InChI_Code_QSARr>
InChI=1S/C2HBrF4/c3-1(4)2(5,6)7/h1H

> <InChI Key_QSARr>
RZXZIZDRFQFCTA-UHFFFAOYSA-N

> <Salt_Solvent>


> <Salt_Solvent_ID>
0

> <MPID>
98887

> <OH Reference>
ORKIN,VL & KHAMAGANOV,VG (1993)

> <OH>
1.75E-14

> <OH Temperature>
25.0

> <LogOH>
-13.756961951313697

> <Tr_1_Tst_0>
0

$$$$
100335
  Mrv171c012241912032D          

  8  7  0  0  0  0            999 V2000
    1.2399   -1.1356    0.0000 C   0  0  0  0  0  0  0  0  0  0  0  0
    1.2399   -1.9606    0.0000 F   0  0  0  0  0  0  0  0  0  0  0  0
    2.0649   -1.1356    0.0000 F   0  0  0  0  0  0  0  0  0  0  0  0
    0.4149   -1.1356    0.0000 Br  0  0  0  0  0  0  0  0  0  0  0  0
    1.2399   -0.3106    0.0000 C   0  0  0  0  0  0  0  0  0  0  0  0
    1.2399    0.5144    0.0000 F   0  0  0  0  0  0  0  0  0  0  0  0
    2.0649   -0.3106    0.0000 F   0  0  0  0  0  0  0  0  0  0  0  0
    0.4149   -0.3106    0.0000 Br  0  0  0  0  0  0  0  0  0  0  0  0
  1  2  1  0  0  0  0
  1  3  1  0  0  0  0
  1  4  1  0  0  0  0
  1  5  1  0  0  0  0
  5  6  1  0  0  0  0
  5  7  1  0  0  0  0
  5  8  1  0  0  0  0
M  END
> <ChemID>
100335

> <CAS>
124-73-2

> <Original_SMILES>
FC(F)(Br)C(F)(F)Br

> <preferred_name>
1,2-Dibromo-1,1,2,2-tetrafluoroethane

> <dsstox_substance_id>
DTXSID0041226

> <dsstox_compound_id>
DTXCID8021226

> <qc_level>
DSSTox_Low

> <Canonical_QSARr>
FC(F)(Br)C(F)(F)Br

> <InChI_Code_QSARr>
InChI=1S/C2Br2F4/c3-1(5,6)2(4,7)8

> <InChI Key_QSARr>
KVBKAPANDHPRDG-UHFFFAOYSA-N

> <Salt_Solvent>


> <Salt_Solvent_ID>
0

> <MPID>
98888

> <OH Reference>
ATKINSON,R (1994); <1.3E-16

> <OH>
1.3E-16

> <OH Temperature>
23.0

> <LogOH>
-15.886056647693144

> <Tr_1_Tst_0>
1

$$$$
100336
  Mrv171c012241912032D          

  9  8  0  0  0  0            999 V2000
    0.8250    0.0000    0.0000 C   0  0  0  0  0  0  0  0  0  0  0  0
    0.8250    0.8250    0.0000 C   0  0  0  0  0  0  0  0  0  0  0  0
    0.8250   -0.8250    0.0000 C   0  0  0  0  0  0  0  0  0  0  0  0
    1.6500    0.0000    0.0000 O   0  0  0  0  0  0  0  0  0  0  0  0
    2.0625   -0.7144    0.0000 C   0  0  0  0  0  0  0  0  0  0  0  0
    2.8875   -0.7144    0.0000 C   0  0  0  0  0  0  0  0  0  0  0  0
    0.0000    0.0000    0.0000 O   0  0  0  0  0  0  0  0  0  0  0  0
   -0.4125    0.7145    0.0000 C   0  0  0  0  0  0  0  0  0  0  0  0
   -1.2375    0.7145    0.0000 C   0  0  0  0  0  0  0  0  0  0  0  0
  1  2  1  0  0  0  0
  1  3  1  0  0  0  0
  1  4  1  0  0  0  0
  4  5  1  0  0  0  0
  5  6  1  0  0  0  0
  1  7  1  0  0  0  0
  7  8  1  0  0  0  0
  8  9  1  0  0  0  0
M  END
> <ChemID>
100336

> <CAS>
126-84-1

> <Original_SMILES>
CC(C)(OCC)OCC

> <preferred_name>
Propane, 2,2-diethoxy-

> <dsstox_substance_id>
DTXSID2059568

> <dsstox_compound_id>
DTXCID6033879

> <qc_level>
Public_High

> <Canonical_QSARr>
CC(C)(OCC)OCC

> <InChI_Code_QSARr>
InChI=1S/C7H16O2/c1-5-8-7(3,4)9-6-2/h5-6H2,1-4H3

> <InChI Key_QSARr>
FGQLGYBGTRHODR-UHFFFAOYSA-N

> <Salt_Solvent>


> <Salt_Solvent_ID>
0

> <MPID>
98889

> <OH Reference>
ATKINSON,R (1989)

> <OH>
1.17E-11

> <OH Temperature>
25.0

> <LogOH>
-10.931814138253822

> <Tr_1_Tst_0>
1

$$$$
100337
  Mrv171c012241912032D          

  6  5  0  0  0  0            999 V2000
    1.8554   -1.7855    0.0000 Cl  0  0  0  0  0  0  0  0  0  0  0  0
    1.4429   -1.0710    0.0000 C   0  0  0  0  0  0  0  0  0  0  0  0
    1.8554   -0.3566    0.0000 Cl  0  0  0  0  0  0  0  0  0  0  0  0
    0.6179   -1.0710    0.0000 C   0  0  0  0  0  0  0  0  0  0  0  0
    0.2054   -1.7855    0.0000 Cl  0  0  0  0  0  0  0  0  0  0  0  0
    0.2054   -0.3566    0.0000 Cl  0  0  0  0  0  0  0  0  0  0  0  0
  1  2  1  0  0  0  0
  2  3  1  0  0  0  0
  2  4  2  0  0  0  0
  4  5  1  0  0  0  0
  4  6  1  0  0  0  0
M  END
> <ChemID>
100337

> <CAS>
127-18-4

> <Original_SMILES>
ClC(Cl)=C(Cl)Cl

> <preferred_name>
Tetrachloroethylene

> <dsstox_substance_id>
DTXSID2021319

> <dsstox_compound_id>
DTXCID601319

> <qc_level>
DSSTox_Low

> <Canonical_QSARr>
ClC(Cl)=C(Cl)Cl

> <InChI_Code_QSARr>
InChI=1S/C2Cl4/c3-1(4)2(5)6

> <InChI Key_QSARr>
CYTYCFOTNPOANT-UHFFFAOYSA-N

> <Salt_Solvent>


> <Salt_Solvent_ID>
0

> <MPID>
98890

> <OH Reference>
ATKINSON,R (1989)

> <OH>
1.67E-13

> <OH Temperature>
25.0

> <LogOH>
-12.777283528852402

> <Tr_1_Tst_0>
1

$$$$
100338
  Mrv171c012241912032D          

  6  5  0  0  0  0            999 V2000
    1.2751   -0.6739    0.0000 C   0  0  0  0  0  0  0  0  0  0  0  0
    0.8626    0.0406    0.0000 C   0  0  0  0  0  0  0  0  0  0  0  0
    2.1001   -0.6739    0.0000 O   0  0  0  0  0  0  0  0  0  0  0  0
    0.8626   -1.3883    0.0000 N   0  0  0  0  0  0  0  0  0  0  0  0
    1.2751   -2.1028    0.0000 C   0  0  0  0  0  0  0  0  0  0  0  0
    0.0376   -1.3883    0.0000 C   0  0  0  0  0  0  0  0  0  0  0  0
  1  2  1  0  0  0  0
  1  3  2  0  0  0  0
  1  4  1  0  0  0  0
  4  5  1  0  0  0  0
  4  6  1  0  0  0  0
M  END
> <ChemID>
100338

> <CAS>
127-19-5

> <Original_SMILES>
CC(=O)N(C)C

> <preferred_name>
N,N-Dimethylacetamide

> <dsstox_substance_id>
DTXSID5020499

> <dsstox_compound_id>
DTXCID90499

> <qc_level>
DSSTox_Low

> <Canonical_QSARr>
CC(=O)N(C)C

> <InChI_Code_QSARr>
InChI=1S/C4H9NO/c1-4(6)5(2)3/h1-3H3

> <InChI Key_QSARr>
FXHOOIRPVKKKFG-UHFFFAOYSA-N

> <Salt_Solvent>


> <Salt_Solvent_ID>
0

> <MPID>
98891

> <OH Reference>
KOCH,R ET AL. (1997)

> <OH>
1.36E-11

> <OH Temperature>
27.0

> <LogOH>
-10.866461091629764

> <Tr_1_Tst_0>
0

$$$$
100339
  Mrv171c012241912032D          

 10 11  0  0  0  0            999 V2000
    2.3968   -1.1438    0.0000 C   0  0  0  0  0  0  0  0  0  0  0  0
    1.9843   -0.4293    0.0000 C   0  0  0  0  0  0  0  0  0  0  0  0
    2.3968    0.2852    0.0000 C   0  0  0  0  0  0  0  0  0  0  0  0
    1.1593   -0.4293    0.0000 C   0  0  0  0  0  0  0  0  0  0  0  0
    1.3379   -1.1438    0.0000 C   0  0  0  0  0  0  0  0  0  0  0  0
    1.1593   -1.8582    0.0000 C   0  0  0  0  0  0  0  0  0  0  0  0
    0.7468   -1.1438    0.0000 C   0  0  0  0  0  0  0  0  0  0  0  0
    0.0184   -1.5311    0.0000 C   0  0  0  0  0  0  0  0  0  0  0  0
    0.0184   -0.7565    0.0000 C   0  0  0  0  0  0  0  0  0  0  0  0
    1.9843   -1.8582    0.0000 C   0  0  0  0  0  0  0  0  0  0  0  0
  2  1  1  0  0  0  0
  2  3  2  0  0  0  0
  4  2  1  0  0  0  0
  4  5  1  0  0  0  0
  5  6  1  0  0  0  0
  6  7  1  0  0  0  0
  7  4  1  0  0  0  0
  7  8  1  0  0  0  0
  7  9  1  0  0  0  0
 10  6  1  0  0  0  0
  1 10  1  0  0  0  0
M  END
> <ChemID>
100339

> <CAS>
127-91-3

> <Original_SMILES>
CC1(C)C2CC1CCC2=C

> <preferred_name>
beta-Pinene

> <dsstox_substance_id>
DTXSID7027049

> <dsstox_compound_id>
DTXCID507049

> <qc_level>
DSSTox_Low

> <Canonical_QSARr>
CC1(C)C2CC1CCC2=C

> <InChI_Code_QSARr>
InChI=1S/C10H16/c1-7-4-5-8-6-9(7)10(8,2)3/h8-9H,1,4-6H2,2-3H3

> <InChI Key_QSARr>
WTARULDDTDQWMU-UHFFFAOYSA-N

> <Salt_Solvent>


> <Salt_Solvent_ID>
0

> <MPID>
98892

> <OH Reference>
ATKINSON,R (1989)

> <OH>
7.889999999999997E-11

> <OH Temperature>
25.0

> <LogOH>
-10.102922996790571

> <Tr_1_Tst_0>
1

$$$$
100340
  Mrv171c012241912032D          

 16 19  0  0  0  0            999 V2000
    2.2044   -1.4429    0.0000 C   0  0  0  0  0  0  0  0  0  0  0  0
    2.6169   -0.7285    0.0000 C   0  0  0  0  0  0  0  0  0  0  0  0
    2.2044   -0.0140    0.0000 C   0  0  0  0  0  0  0  0  0  0  0  0
    1.3794   -0.0140    0.0000 C   0  0  0  0  0  0  0  0  0  0  0  0
    0.9669   -0.7285    0.0000 C   0  0  0  0  0  0  0  0  0  0  0  0
    0.1419   -0.7285    0.0000 C   0  0  0  0  0  0  0  0  0  0  0  0
   -0.2706   -1.4429    0.0000 C   0  0  0  0  0  0  0  0  0  0  0  0
    0.1419   -2.1574    0.0000 C   0  0  0  0  0  0  0  0  0  0  0  0
    0.9669   -2.1574    0.0000 C   0  0  0  0  0  0  0  0  0  0  0  0
    1.3794   -2.8719    0.0000 C   0  0  0  0  0  0  0  0  0  0  0  0
    2.2044   -2.8719    0.0000 C   0  0  0  0  0  0  0  0  0  0  0  0
    2.6169   -2.1574    0.0000 C   0  0  0  0  0  0  0  0  0  0  0  0
    3.4419   -2.1574    0.0000 C   0  0  0  0  0  0  0  0  0  0  0  0
    3.8544   -1.4429    0.0000 C   0  0  0  0  0  0  0  0  0  0  0  0
    3.4419   -0.7285    0.0000 C   0  0  0  0  0  0  0  0  0  0  0  0
    1.3794   -1.4429    0.0000 C   0  0  0  0  0  0  0  0  0  0  0  0
  2  1  1  0  0  0  0
  2  3  1  0  0  0  0
  3  4  2  0  0  0  0
  4  5  1  0  0  0  0
  5  6  2  0  0  0  0
  6  7  1  0  0  0  0
  7  8  2  0  0  0  0
  8  9  1  0  0  0  0
  9 10  1  0  0  0  0
 10 11  2  0  0  0  0
 11 12  1  0  0  0  0
 12  1  2  0  0  0  0
 12 13  1  0  0  0  0
 13 14  2  0  0  0  0
 14 15  1  0  0  0  0
 15  2  2  0  0  0  0
  9 16  2  0  0  0  0
  1 16  1  0  0  0  0
 16  5  1  0  0  0  0
M  END
> <ChemID>
100340

> <CAS>
129-00-0

> <Original_SMILES>
c1cc2cccc3ccc4cccc1c4c32

> <preferred_name>
Pyrene

> <dsstox_substance_id>
DTXSID3024289

> <dsstox_compound_id>
DTXCID804289

> <qc_level>
DSSTox_Low

> <Canonical_QSARr>
C1=CC2C=CC=C3C=CC4=CC=CC1=C4C=23

> <InChI_Code_QSARr>
InChI=1S/C16H10/c1-3-11-7-9-13-5-2-6-14-10-8-12(4-1)15(11)16(13)14/h1-10H

> <InChI Key_QSARr>
BBEAQIROQSPTKN-UHFFFAOYSA-N

> <Salt_Solvent>


> <Salt_Solvent_ID>
0

> <MPID>
98893

> <OH Reference>
ATKINSON,R ET AL. (1990B)

> <OH>
5.000000000000002E-11

> <OH Temperature>
25.0

> <LogOH>
-10.30102999566398

> <Tr_1_Tst_0>
1

$$$$
100341
  Mrv171c012241912032D          

 12 13  0  0  0  0            999 V2000
    1.4340   -1.2403    0.0000 C   0  0  0  0  0  0  0  0  0  0  0  0
    0.7196   -0.8278    0.0000 C   0  0  0  0  0  0  0  0  0  0  0  0
    0.0051   -1.2403    0.0000 C   0  0  0  0  0  0  0  0  0  0  0  0
    0.0051   -2.0653    0.0000 C   0  0  0  0  0  0  0  0  0  0  0  0
    0.7196   -2.4778    0.0000 C   0  0  0  0  0  0  0  0  0  0  0  0
    1.4340   -2.0653    0.0000 C   0  0  0  0  0  0  0  0  0  0  0  0
    2.1485   -2.4778    0.0000 C   0  0  0  0  0  0  0  0  0  0  0  0
    2.1485   -3.3028    0.0000 O   0  0  0  0  0  0  0  0  0  0  0  0
    2.8630   -2.0653    0.0000 C   0  0  0  0  0  0  0  0  0  0  0  0
    2.8630   -1.2403    0.0000 C   0  0  0  0  0  0  0  0  0  0  0  0
    2.1485   -0.8278    0.0000 C   0  0  0  0  0  0  0  0  0  0  0  0
    2.1485   -0.0028    0.0000 O   0  0  0  0  0  0  0  0  0  0  0  0
  2  1  1  0  0  0  0
  3  2  2  0  0  0  0
  4  3  1  0  0  0  0
  5  4  2  0  0  0  0
  6  5  1  0  0  0  0
  6  1  2  0  0  0  0
  7  6  1  0  0  0  0
  7  8  2  0  0  0  0
  9  7  1  0  0  0  0
 10  9  2  0  0  0  0
 11 10  1  0  0  0  0
  1 11  1  0  0  0  0
 11 12  2  0  0  0  0
M  END
> <ChemID>
100341

> <CAS>
130-15-4

> <Original_SMILES>
O=C1C=CC(=O)c2ccccc12

> <preferred_name>
1,4-Naphthoquinone

> <dsstox_substance_id>
DTXSID5040704

> <dsstox_compound_id>
DTXCID3020704

> <qc_level>
DSSTox_Low

> <Canonical_QSARr>
O=C1C=CC(=O)C2C=CC=CC1=2

> <InChI_Code_QSARr>
InChI=1S/C10H6O2/c11-9-5-6-10(12)8-4-2-1-3-7(8)9/h1-6H

> <InChI Key_QSARr>
FRASJONUBLZVQX-UHFFFAOYSA-N

> <Salt_Solvent>


> <Salt_Solvent_ID>
0

> <MPID>
98894

> <OH Reference>
LEIFER,A (1993)

> <OH>
3.1E-12

> <OH Temperature>
25.0

> <LogOH>
-11.508638306165748

> <Tr_1_Tst_0>
1

$$$$
100342
  Mrv171c012241912032D          

 13 15  0  0  0  0            999 V2000
    0.5267   -1.6923    0.0000 C   0  0  0  0  0  0  0  0  0  0  0  0
    1.3336   -1.5208    0.0000 C   0  0  0  0  0  0  0  0  0  0  0  0
    2.0011   -2.0057    0.0000 O   0  0  0  0  0  0  0  0  0  0  0  0
    2.6685   -1.5208    0.0000 C   0  0  0  0  0  0  0  0  0  0  0  0
    3.4755   -1.6923    0.0000 C   0  0  0  0  0  0  0  0  0  0  0  0
    4.0275   -1.0792    0.0000 C   0  0  0  0  0  0  0  0  0  0  0  0
    3.7726   -0.2946    0.0000 C   0  0  0  0  0  0  0  0  0  0  0  0
    2.9656   -0.1231    0.0000 C   0  0  0  0  0  0  0  0  0  0  0  0
    2.4136   -0.7361    0.0000 C   0  0  0  0  0  0  0  0  0  0  0  0
    1.5886   -0.7361    0.0000 C   0  0  0  0  0  0  0  0  0  0  0  0
    1.0365   -0.1231    0.0000 C   0  0  0  0  0  0  0  0  0  0  0  0
    0.2296   -0.2946    0.0000 C   0  0  0  0  0  0  0  0  0  0  0  0
   -0.0254   -1.0792    0.0000 C   0  0  0  0  0  0  0  0  0  0  0  0
  2  1  1  0  0  0  0
  2  3  1  0  0  0  0
  3  4  1  0  0  0  0
  5  4  2  0  0  0  0
  6  5  1  0  0  0  0
  7  6  2  0  0  0  0
  8  7  1  0  0  0  0
  9  8  2  0  0  0  0
  4  9  1  0  0  0  0
  9 10  1  0  0  0  0
 10  2  2  0  0  0  0
 11 10  1  0  0  0  0
 12 11  2  0  0  0  0
 13 12  1  0  0  0  0
  1 13  2  0  0  0  0
M  END
> <ChemID>
100342

> <CAS>
132-64-9

> <Original_SMILES>
c1cccc2oc3ccccc3c21

> <preferred_name>
Dibenzofuran

> <dsstox_substance_id>
DTXSID2021993

> <dsstox_compound_id>
DTXCID801993

> <qc_level>
DSSTox_Low

> <Canonical_QSARr>
C1=CC=CC2OC3=CC=CC=C3C=21

> <InChI_Code_QSARr>
InChI=1S/C12H8O/c1-3-7-11-9(5-1)10-6-2-4-8-12(10)13-11/h1-8H

> <InChI Key_QSARr>
TXCDCPKCNAJMEE-UHFFFAOYSA-N

> <Salt_Solvent>


> <Salt_Solvent_ID>
0

> <MPID>
98895

> <OH Reference>
KWOK,ESC ET AL. (1994A)

> <OH>
3.9E-12

> <OH Temperature>
25.0

> <LogOH>
-11.40893539297348

> <Tr_1_Tst_0>
0

$$$$
100343
  Mrv171c012241912032D          

 13 15  0  0  0  0            999 V2000
    2.6771   -0.4818    0.0000 C   0  0  0  0  0  0  0  0  0  0  0  0
    3.4841   -0.3102    0.0000 C   0  0  0  0  0  0  0  0  0  0  0  0
    4.0361   -0.9233    0.0000 C   0  0  0  0  0  0  0  0  0  0  0  0
    3.7812   -1.7080    0.0000 C   0  0  0  0  0  0  0  0  0  0  0  0
    2.9742   -1.8795    0.0000 C   0  0  0  0  0  0  0  0  0  0  0  0
    2.4221   -1.2664    0.0000 C   0  0  0  0  0  0  0  0  0  0  0  0
    1.5971   -1.2664    0.0000 C   0  0  0  0  0  0  0  0  0  0  0  0
    1.0451   -1.8795    0.0000 C   0  0  0  0  0  0  0  0  0  0  0  0
    0.2381   -1.7080    0.0000 C   0  0  0  0  0  0  0  0  0  0  0  0
   -0.0168   -0.9233    0.0000 C   0  0  0  0  0  0  0  0  0  0  0  0
    0.5352   -0.3102    0.0000 C   0  0  0  0  0  0  0  0  0  0  0  0
    1.3422   -0.4818    0.0000 C   0  0  0  0  0  0  0  0  0  0  0  0
    2.0096    0.0032    0.0000 S   0  0  0  0  0  0  0  0  0  0  0  0
  2  1  1  0  0  0  0
  3  2  2  0  0  0  0
  4  3  1  0  0  0  0
  5  4  2  0  0  0  0
  6  5  1  0  0  0  0
  6  1  2  0  0  0  0
  7  6  1  0  0  0  0
  7  8  1  0  0  0  0
  8  9  2  0  0  0  0
  9 10  1  0  0  0  0
 10 11  2  0  0  0  0
 11 12  1  0  0  0  0
 12  7  2  0  0  0  0
 13 12  1  0  0  0  0
  1 13  1  0  0  0  0
M  END
> <ChemID>
100343

> <CAS>
132-65-0

> <Original_SMILES>
c1cccc2[s]c3ccccc3c21

> <preferred_name>
Dibenzothiophene

> <dsstox_substance_id>
DTXSID0047741

> <dsstox_compound_id>
DTXCID0027725

> <qc_level>
DSSTox_Low

> <Canonical_QSARr>
C1=CC=CC2SC3C=CC=CC=3C=21

> <InChI_Code_QSARr>
InChI=1S/C12H8S/c1-3-7-11-9(5-1)10-6-2-4-8-12(10)13-11/h1-8H

> <InChI Key_QSARr>
IYYZUPMFVPLQIF-UHFFFAOYSA-N

> <Salt_Solvent>


> <Salt_Solvent_ID>
0

> <MPID>
98896

> <OH Reference>
KWOK,ESC ET AL. (1999)

> <OH>
8.099999999999998E-12

> <OH Temperature>
24.0

> <LogOH>
-11.09151498112137

> <Tr_1_Tst_0>
1

$$$$
100344
  Mrv171c012241912032D          

 11 12  0  0  0  0            999 V2000
    1.8238   -0.4135    0.0000 C   0  0  0  0  0  0  0  0  0  0  0  0
    1.1094   -0.0010    0.0000 C   0  0  0  0  0  0  0  0  0  0  0  0
    0.3949   -0.4135    0.0000 C   0  0  0  0  0  0  0  0  0  0  0  0
   -0.3196   -0.0010    0.0000 O   0  0  0  0  0  0  0  0  0  0  0  0
    0.3949   -1.2385    0.0000 C   0  0  0  0  0  0  0  0  0  0  0  0
    1.1094   -1.6510    0.0000 C   0  0  0  0  0  0  0  0  0  0  0  0
    1.8238   -1.2385    0.0000 C   0  0  0  0  0  0  0  0  0  0  0  0
    2.5383   -1.6510    0.0000 C   0  0  0  0  0  0  0  0  0  0  0  0
    3.2528   -1.2385    0.0000 C   0  0  0  0  0  0  0  0  0  0  0  0
    3.2528   -0.4135    0.0000 C   0  0  0  0  0  0  0  0  0  0  0  0
    2.5383   -0.0010    0.0000 C   0  0  0  0  0  0  0  0  0  0  0  0
  2  1  1  0  0  0  0
  3  2  2  0  0  0  0
  3  4  1  0  0  0  0
  5  3  1  0  0  0  0
  6  5  2  0  0  0  0
  7  6  1  0  0  0  0
  7  1  2  0  0  0  0
  8  7  1  0  0  0  0
  9  8  2  0  0  0  0
 10  9  1  0  0  0  0
 11 10  2  0  0  0  0
  1 11  1  0  0  0  0
M  END
> <ChemID>
100344

> <CAS>
135-19-3

> <Original_SMILES>
Oc1cc2ccccc2cc1

> <preferred_name>
2-Naphthalenol

> <dsstox_substance_id>
DTXSID5027061

> <dsstox_compound_id>
DTXCID907061

> <qc_level>
DSSTox_Low

> <Canonical_QSARr>
OC1=CC2C=CC=CC=2C=C1

> <InChI_Code_QSARr>
InChI=1S/C10H8O/c11-10-6-5-8-3-1-2-4-9(8)7-10/h1-7,11H

> <InChI Key_QSARr>
JWAZRIHNYRIHIV-UHFFFAOYSA-N

> <Salt_Solvent>


> <Salt_Solvent_ID>
0

> <MPID>
98897

> <OH Reference>
BUNCE,NJ ET AL. (1997)

> <OH>
1.7E-10

> <OH Temperature>
25.0

> <LogOH>
-9.769551078621731

> <Tr_1_Tst_0>
1

$$$$
100345
  Mrv171c012241912032D          

  7  6  0  0  0  0            999 V2000
    1.1685   -1.8044    0.0000 O   0  0  0  0  0  0  0  0  0  0  0  0
    1.1685   -0.9794    0.0000 C   0  0  0  0  0  0  0  0  0  0  0  0
    0.4540   -0.5669    0.0000 C   0  0  0  0  0  0  0  0  0  0  0  0
   -0.2605   -0.9794    0.0000 C   0  0  0  0  0  0  0  0  0  0  0  0
    1.8829   -0.5669    0.0000 O   0  0  0  0  0  0  0  0  0  0  0  0
    2.5974   -0.9794    0.0000 C   0  0  0  0  0  0  0  0  0  0  0  0
    3.3119   -0.5669    0.0000 C   0  0  0  0  0  0  0  0  0  0  0  0
  1  2  2  0  0  0  0
  2  3  1  0  0  0  0
  3  4  2  0  0  0  0
  2  5  1  0  0  0  0
  5  6  1  0  0  0  0
  6  7  1  0  0  0  0
M  END
> <ChemID>
100345

> <CAS>
140-88-5

> <Original_SMILES>
CCOC(=O)C=C

> <preferred_name>
Ethyl acrylate

> <dsstox_substance_id>
DTXSID4020583

> <dsstox_compound_id>
DTXCID00583

> <qc_level>
DSSTox_Low

> <Canonical_QSARr>
CCOC(=O)C=C

> <InChI_Code_QSARr>
InChI=1S/C5H8O2/c1-3-5(6)7-4-2/h3H,1,4H2,2H3

> <InChI Key_QSARr>
JIGUQPWFLRLWPJ-UHFFFAOYSA-N

> <Salt_Solvent>


> <Salt_Solvent_ID>
0

> <MPID>
98898

> <OH Reference>
KWOK,ESC & ATKINSON,R (1994)

> <OH>
1.6E-11

> <OH Temperature>
25.0

> <LogOH>
-10.79588001734409

> <Tr_1_Tst_0>
1

$$$$
100346
  Mrv171c012241912032D          

  4  3  0  0  0  0            999 V2000
    1.2375   -0.7145    0.0000 C   0  0  0  0  0  0  0  0  0  0  0  0
    2.0625   -0.7145    0.0000 O   0  0  0  0  0  0  0  0  0  0  0  0
    0.8250   -0.0000    0.0000 C   0  0  0  0  0  0  0  0  0  0  0  0
   -0.0000   -0.0000    0.0000 O   0  0  0  0  0  0  0  0  0  0  0  0
  1  2  1  0  0  0  0
  1  3  1  0  0  0  0
  3  4  2  0  0  0  0
M  END
> <ChemID>
100346

> <CAS>
141-46-8

> <Original_SMILES>
OCC=O

> <preferred_name>
Acetaldehyde, hydroxy-

> <dsstox_substance_id>
DTXSID4074693

> <dsstox_compound_id>
DTXCID4034570

> <qc_level>
Public_High

> <Canonical_QSARr>
OCC=O

> <InChI_Code_QSARr>
InChI=1S/C2H4O2/c3-1-2-4/h1,4H,2H2

> <InChI Key_QSARr>
WGCNASOHLSPBMP-UHFFFAOYSA-N

> <Salt_Solvent>


> <Salt_Solvent_ID>
0

> <MPID>
98899

> <OH Reference>
ATKINSON,R (1989)

> <OH>
9.900000000000003E-12

> <OH Temperature>
25.0

> <LogOH>
-11.004364805402448

> <Tr_1_Tst_0>
0

$$$$
100347
  Mrv171c012241912032D          

  6  5  0  0  0  0            999 V2000
    1.8927    0.4153    0.0000 C   0  0  0  0  0  0  0  0  0  0  0  0
    1.4802   -0.2991    0.0000 C   0  0  0  0  0  0  0  0  0  0  0  0
    1.8927   -1.0136    0.0000 O   0  0  0  0  0  0  0  0  0  0  0  0
    1.4802   -1.7281    0.0000 C   0  0  0  0  0  0  0  0  0  0  0  0
    1.8927   -2.4425    0.0000 C   0  0  0  0  0  0  0  0  0  0  0  0
    0.6552   -0.2991    0.0000 O   0  0  0  0  0  0  0  0  0  0  0  0
  1  2  1  0  0  0  0
  2  3  1  0  0  0  0
  3  4  1  0  0  0  0
  4  5  1  0  0  0  0
  2  6  2  0  0  0  0
M  END
> <ChemID>
100347

> <CAS>
141-78-6

> <Original_SMILES>
CCOC(C)=O

> <preferred_name>
Ethyl acetate

> <dsstox_substance_id>
DTXSID1022001

> <dsstox_compound_id>
DTXCID602001

> <qc_level>
DSSTox_Low

> <Canonical_QSARr>
CCOC(C)=O

> <InChI_Code_QSARr>
InChI=1S/C4H8O2/c1-3-6-4(2)5/h3H2,1-2H3

> <InChI Key_QSARr>
XEKOWRVHYACXOJ-UHFFFAOYSA-N

> <Salt_Solvent>


> <Salt_Solvent_ID>
0

> <MPID>
98900

> <OH Reference>
ATKINSON,R (1989)

> <OH>
1.6E-12

> <OH Temperature>
25.0

> <LogOH>
-11.795880017344068

> <Tr_1_Tst_0>
1

$$$$
100348
  Mrv171c012241912032D          

  5  4  0  0  0  0            999 V2000
    2.5848   -1.1044    0.0000 Cl  0  0  0  0  0  0  0  0  0  0  0  0
    2.1723   -0.3899    0.0000 C   0  0  0  0  0  0  0  0  0  0  0  0
    1.3473   -0.3899    0.0000 C   0  0  0  0  0  0  0  0  0  0  0  0
    0.9348    0.3245    0.0000 C   0  0  0  0  0  0  0  0  0  0  0  0
    0.1098    0.3245    0.0000 Cl  0  0  0  0  0  0  0  0  0  0  0  0
  1  2  1  0  0  0  0
  2  3  1  0  0  0  0
  3  4  1  0  0  0  0
  4  5  1  0  0  0  0
M  END
> <ChemID>
100348

> <CAS>
142-28-9

> <Original_SMILES>
ClCCCCl

> <preferred_name>
1,3-Dichloropropane

> <dsstox_substance_id>
DTXSID6022004

> <dsstox_compound_id>
DTXCID802004

> <qc_level>
DSSTox_Low

> <Canonical_QSARr>
ClCCCCl

> <InChI_Code_QSARr>
InChI=1S/C3H6Cl2/c4-2-1-3-5/h1-3H2

> <InChI Key_QSARr>
YHRUOJUYPBUZOS-UHFFFAOYSA-N

> <Salt_Solvent>


> <Salt_Solvent_ID>
0

> <MPID>
98901

> <OH Reference>
DONAGHY,T ET AL. (1993)

> <OH>
7.8E-13

> <OH Temperature>
25.0

> <LogOH>
-12.107905397309498

> <Tr_1_Tst_0>
1

$$$$
100349
  Mrv171c012241912032D          

  5  5  0  0  0  0            999 V2000
    1.2319   -0.4506    0.0000 C   0  0  0  0  0  0  0  0  0  0  0  0
    0.5645    0.0343    0.0000 C   0  0  0  0  0  0  0  0  0  0  0  0
   -0.1029   -0.4506    0.0000 C   0  0  0  0  0  0  0  0  0  0  0  0
    0.1520   -1.2352    0.0000 C   0  0  0  0  0  0  0  0  0  0  0  0
    0.9770   -1.2352    0.0000 C   0  0  0  0  0  0  0  0  0  0  0  0
  2  1  1  0  0  0  0
  3  2  1  0  0  0  0
  4  3  1  0  0  0  0
  5  4  1  0  0  0  0
  1  5  2  0  0  0  0
M  END
> <ChemID>
100349

> <CAS>
142-29-0

> <Original_SMILES>
C1CCC=C1

> <preferred_name>
Cyclopentene

> <dsstox_substance_id>
DTXSID6029171

> <dsstox_compound_id>
DTXCID609171

> <qc_level>
DSSTox_Low

> <Canonical_QSARr>
C1CCC=C1

> <InChI_Code_QSARr>
InChI=1S/C5H8/c1-2-4-5-3-1/h1-2H,3-5H2

> <InChI Key_QSARr>
LPIQUOYDBNQMRZ-UHFFFAOYSA-N

> <Salt_Solvent>


> <Salt_Solvent_ID>
0

> <MPID>
98902

> <OH Reference>
KWOK,ESC & ATKINSON,R (1994)

> <OH>
6.7E-11

> <OH Temperature>
25.0

> <LogOH>
-10.17392519729918

> <Tr_1_Tst_0>
1

$$$$
100350
  Mrv171c012241912032D          

  6  6  0  0  0  0            999 V2000
    1.4289    0.8250    0.0000 C   0  0  0  0  0  0  0  0  0  0  0  0
    0.7145    1.2375    0.0000 C   0  0  0  0  0  0  0  0  0  0  0  0
   -0.0000    0.8250    0.0000 C   0  0  0  0  0  0  0  0  0  0  0  0
   -0.0000    0.0000    0.0000 O   0  0  0  0  0  0  0  0  0  0  0  0
    0.7145   -0.4125    0.0000 C   0  0  0  0  0  0  0  0  0  0  0  0
    1.4289   -0.0000    0.0000 C   0  0  0  0  0  0  0  0  0  0  0  0
  2  1  1  0  0  0  0
  3  2  1  0  0  0  0
  4  3  1  0  0  0  0
  5  4  1  0  0  0  0
  6  5  1  0  0  0  0
  1  6  1  0  0  0  0
M  END
> <ChemID>
100350

> <CAS>
142-68-7

> <Original_SMILES>
C1CCCCO1

> <preferred_name>
Tetrahydropyran

> <dsstox_substance_id>
DTXSID3059719

> <dsstox_compound_id>
DTXCID3034612

> <qc_level>
Public_High

> <Canonical_QSARr>
C1CCCCO1

> <InChI_Code_QSARr>
InChI=1S/C5H10O/c1-2-4-6-5-3-1/h1-5H2

> <InChI Key_QSARr>
DHXVGJBLRPWPCS-UHFFFAOYSA-N

> <Salt_Solvent>


> <Salt_Solvent_ID>
0

> <MPID>
98903

> <OH Reference>
ATKINSON,R (1989)

> <OH>
1.38E-11

> <OH Temperature>
25.0

> <LogOH>
-10.860120913598767

> <Tr_1_Tst_0>
0

$$$$
100351
  Mrv171c012241912032D          

  7  6  0  0  0  0            999 V2000
    0.7182   -0.4688    0.0000 C   0  0  0  0  0  0  0  0  0  0  0  0
    0.0038   -0.0563    0.0000 C   0  0  0  0  0  0  0  0  0  0  0  0
    1.4327   -0.0563    0.0000 C   0  0  0  0  0  0  0  0  0  0  0  0
    2.1472   -0.4688    0.0000 C   0  0  0  0  0  0  0  0  0  0  0  0
    2.8617   -0.0563    0.0000 C   0  0  0  0  0  0  0  0  0  0  0  0
    3.5761   -0.4688    0.0000 C   0  0  0  0  0  0  0  0  0  0  0  0
    4.2906   -0.0563    0.0000 C   0  0  0  0  0  0  0  0  0  0  0  0
  1  2  1  0  0  0  0
  1  3  1  0  0  0  0
  3  4  1  0  0  0  0
  4  5  1  0  0  0  0
  5  6  1  0  0  0  0
  6  7  1  0  0  0  0
M  END
> <ChemID>
100351

> <CAS>
142-82-5

> <Original_SMILES>
CCCCCCC

> <preferred_name>
Heptane

> <dsstox_substance_id>
DTXSID6024127

> <dsstox_compound_id>
DTXCID004127

> <qc_level>
DSSTox_Low

> <Canonical_QSARr>
CCCCCCC

> <InChI_Code_QSARr>
InChI=1S/C7H16/c1-3-5-7-6-4-2/h3-7H2,1-2H3

> <InChI Key_QSARr>
IMNFDUFMRHMDMM-UHFFFAOYSA-N

> <Salt_Solvent>


> <Salt_Solvent_ID>
0

> <MPID>
98904

> <OH Reference>
ATKINSON,R (1989)

> <OH>
7.149999999999998E-12

> <OH Temperature>
25.0

> <LogOH>
-11.145693958198905

> <Tr_1_Tst_0>
1

$$$$
100352
  Mrv171c012241912032D          

  9  8  0  0  0  0            999 V2000
    0.0017   -0.0454    0.0000 C   0  0  0  0  0  0  0  0  0  0  0  0
    0.7161   -0.4579    0.0000 C   0  0  0  0  0  0  0  0  0  0  0  0
    1.4306   -0.0454    0.0000 C   0  0  0  0  0  0  0  0  0  0  0  0
    2.1451   -0.4579    0.0000 C   0  0  0  0  0  0  0  0  0  0  0  0
    2.8595   -0.0454    0.0000 O   0  0  0  0  0  0  0  0  0  0  0  0
    3.5740   -0.4579    0.0000 C   0  0  0  0  0  0  0  0  0  0  0  0
    4.2885   -0.0454    0.0000 C   0  0  0  0  0  0  0  0  0  0  0  0
    5.0030   -0.4579    0.0000 C   0  0  0  0  0  0  0  0  0  0  0  0
    5.7174   -0.0454    0.0000 C   0  0  0  0  0  0  0  0  0  0  0  0
  1  2  1  0  0  0  0
  2  3  1  0  0  0  0
  3  4  1  0  0  0  0
  4  5  1  0  0  0  0
  5  6  1  0  0  0  0
  6  7  1  0  0  0  0
  7  8  1  0  0  0  0
  8  9  1  0  0  0  0
M  END
> <ChemID>
100352

> <CAS>
142-96-1

> <Original_SMILES>
CCCCOCCCC

> <preferred_name>
Butyl ether

> <dsstox_substance_id>
DTXSID1022007

> <dsstox_compound_id>
DTXCID002007

> <qc_level>
DSSTox_Low

> <Canonical_QSARr>
CCCCOCCCC

> <InChI_Code_QSARr>
InChI=1S/C8H18O/c1-3-5-7-9-8-6-4-2/h3-8H2,1-2H3

> <InChI Key_QSARr>
DURPTKYDGMDSBL-UHFFFAOYSA-N

> <Salt_Solvent>


> <Salt_Solvent_ID>
0

> <MPID>
98905

> <OH Reference>
KWOK,ESC & ATKINSON,R (1994)

> <OH>
2.879999999999999E-11

> <OH Temperature>
25.0

> <LogOH>
-10.540607512240747

> <Tr_1_Tst_0>
1

$$$$
100353
  Mrv171c012241912032D          

  7  6  0  0  0  0            999 V2000
    1.4184   -1.3304    0.0000 C   0  0  0  0  0  0  0  0  0  0  0  0
    2.2434   -1.3304    0.0000 O   0  0  0  0  0  0  0  0  0  0  0  0
    2.6559   -2.0448    0.0000 C   0  0  0  0  0  0  0  0  0  0  0  0
    1.0059   -0.6159    0.0000 O   0  0  0  0  0  0  0  0  0  0  0  0
    0.1809   -0.6159    0.0000 C   0  0  0  0  0  0  0  0  0  0  0  0
    1.0059   -2.0448    0.0000 O   0  0  0  0  0  0  0  0  0  0  0  0
    0.1809   -2.0448    0.0000 C   0  0  0  0  0  0  0  0  0  0  0  0
  1  2  1  0  0  0  0
  2  3  1  0  0  0  0
  1  4  1  0  0  0  0
  4  5  1  0  0  0  0
  1  6  1  0  0  0  0
  6  7  1  0  0  0  0
M  END
> <ChemID>
100353

> <CAS>
149-73-5

> <Original_SMILES>
COC(OC)OC

> <preferred_name>
Trimethoxymethane

> <dsstox_substance_id>
DTXSID7027122

> <dsstox_compound_id>
DTXCID307122

> <qc_level>
DSSTox_Low

> <Canonical_QSARr>
COC(OC)OC

> <InChI_Code_QSARr>
InChI=1S/C4H10O3/c1-5-4(6-2)7-3/h4H,1-3H3

> <InChI Key_QSARr>
PYOKUURKVVELLB-UHFFFAOYSA-N

> <Salt_Solvent>


> <Salt_Solvent_ID>
0

> <MPID>
98906

> <OH Reference>
PLATZ,J ET AL. (1999)

> <OH>
6.000000000000001E-12

> <OH Temperature>
23.0

> <LogOH>
-11.221848749616358

> <Tr_1_Tst_0>
1

$$$$
100356
  Mrv171c012241912032D          

  3  3  0  0  0  0            999 V2000
    0.8250   -0.7145    0.0000 C   0  0  0  0  0  0  0  0  0  0  0  0
    0.4125   -0.0000    0.0000 N   0  0  0  0  0  0  0  0  0  0  0  0
   -0.0000   -0.7145    0.0000 C   0  0  0  0  0  0  0  0  0  0  0  0
  2  1  1  0  0  0  0
  3  2  1  0  0  0  0
  1  3  1  0  0  0  0
M  END
> <ChemID>
100356

> <CAS>
151-56-4

> <Original_SMILES>
C1CN1

> <preferred_name>
Ethyleneimine

> <dsstox_substance_id>
DTXSID8020599

> <dsstox_compound_id>
DTXCID00599

> <qc_level>
DSSTox_Low

> <Canonical_QSARr>
C1CN1

> <InChI_Code_QSARr>
InChI=1S/C2H5N/c1-2-3-1/h3H,1-2H2

> <InChI Key_QSARr>
NOWKCMXCCJGMRR-UHFFFAOYSA-N

> <Salt_Solvent>


> <Salt_Solvent_ID>
0

> <MPID>
98907

> <OH Reference>
ATKINSON,R (1989)

> <OH>
6.1E-12

> <OH Temperature>
25.0

> <LogOH>
-11.21467016498924

> <Tr_1_Tst_0>
1

$$$$
100357
  Mrv171c012241912032D          

  7  6  0  0  0  0            999 V2000
    0.8250   -2.0625    0.0000 F   0  0  0  0  0  0  0  0  0  0  0  0
    0.8250   -1.2375    0.0000 C   0  0  0  0  0  0  0  0  0  0  0  0
    0.8250   -0.4125    0.0000 C   0  0  0  0  0  0  0  0  0  0  0  0
    0.1105    0.0000    0.0000 Br  0  0  0  0  0  0  0  0  0  0  0  0
    1.5395   -0.0000    0.0000 Cl  0  0  0  0  0  0  0  0  0  0  0  0
    1.6500   -1.2375    0.0000 F   0  0  0  0  0  0  0  0  0  0  0  0
    0.0000   -1.2375    0.0000 F   0  0  0  0  0  0  0  0  0  0  0  0
  1  2  1  0  0  0  0
  2  3  1  0  0  0  0
  3  4  1  0  0  0  0
  3  5  1  0  0  0  0
  2  6  1  0  0  0  0
  2  7  1  0  0  0  0
M  END
> <ChemID>
100357

> <CAS>
151-67-7

> <Original_SMILES>
FC(F)(F)C(Cl)Br

> <preferred_name>
Halothane

> <dsstox_substance_id>
DTXSID4025371

> <dsstox_compound_id>
DTXCID605371

> <qc_level>
DSSTox_Low

> <Canonical_QSARr>
FC(F)(F)C(Cl)Br

> <InChI_Code_QSARr>
InChI=1S/C2HBrClF3/c3-1(4)2(5,6)7/h1H

> <InChI Key_QSARr>
BCQZXOMGPXTTIC-UHFFFAOYSA-N

> <Salt_Solvent>


> <Salt_Solvent_ID>
0

> <MPID>
98908

> <OH Reference>
ORKIN,VL & KHAMAGANOV,VG (1993)

> <OH>
4.499999999999999E-14

> <OH Temperature>
25.0

> <LogOH>
-13.34678748622467

> <Tr_1_Tst_0>
1

$$$$
100358
  Mrv171c012241912032D          

  8  7  0  0  0  0            999 V2000
    3.6462    0.6252    0.0000 S   0  0  0  0  0  0  0  0  0  0  0  0
    3.2337   -0.0893    0.0000 P   0  0  0  0  0  0  0  0  0  0  0  0
    2.5192    0.3232    0.0000 O   0  0  0  0  0  0  0  0  0  0  0  0
    1.8047   -0.0893    0.0000 C   0  0  0  0  0  0  0  0  0  0  0  0
    3.9482   -0.5018    0.0000 O   0  0  0  0  0  0  0  0  0  0  0  0
    4.6626   -0.0893    0.0000 C   0  0  0  0  0  0  0  0  0  0  0  0
    2.8212   -0.8038    0.0000 O   0  0  0  0  0  0  0  0  0  0  0  0
    1.9962   -0.8038    0.0000 C   0  0  0  0  0  0  0  0  0  0  0  0
  1  2  2  0  0  0  0
  2  3  1  0  0  0  0
  3  4  1  0  0  0  0
  2  5  1  0  0  0  0
  5  6  1  0  0  0  0
  2  7  1  0  0  0  0
  7  8  1  0  0  0  0
M  END
> <ChemID>
100358

> <CAS>
152-18-1

> <Original_SMILES>
COP(=S)(OC)OC

> <preferred_name>
O,O,O-Trimethyl phosphorothioate

> <dsstox_substance_id>
DTXSID30164927

> <dsstox_compound_id>
DTXCID8087418

> <qc_level>
Public_Medium

> <Canonical_QSARr>
COP(=S)(OC)OC

> <InChI_Code_QSARr>
InChI=1S/C3H9O3PS/c1-4-7(8,5-2)6-3/h1-3H3

> <InChI Key_QSARr>
XWSLYQXUTWUIKM-UHFFFAOYSA-N

> <Salt_Solvent>


> <Salt_Solvent_ID>
0

> <MPID>
98909

> <OH Reference>
ATKINSON,R (1989)

> <OH>
6.97E-11

> <OH Temperature>
25.0

> <LogOH>
-10.156767221902001

> <Tr_1_Tst_0>
0

$$$$
100359
  Mrv171c012241912032D          

  8  7  0  0  0  0            999 V2000
    3.9482   -0.5018    0.0000 S   0  0  0  0  0  0  0  0  0  0  0  0
    4.6626   -0.0893    0.0000 C   0  0  0  0  0  0  0  0  0  0  0  0
    3.2337   -0.0893    0.0000 P   0  0  0  0  0  0  0  0  0  0  0  0
    3.6462    0.6252    0.0000 O   0  0  0  0  0  0  0  0  0  0  0  0
    2.5192    0.3232    0.0000 O   0  0  0  0  0  0  0  0  0  0  0  0
    1.8047   -0.0893    0.0000 C   0  0  0  0  0  0  0  0  0  0  0  0
    2.8212   -0.8038    0.0000 O   0  0  0  0  0  0  0  0  0  0  0  0
    1.9962   -0.8038    0.0000 C   0  0  0  0  0  0  0  0  0  0  0  0
  1  2  1  0  0  0  0
  1  3  1  0  0  0  0
  3  4  2  0  0  0  0
  3  5  1  0  0  0  0
  5  6  1  0  0  0  0
  3  7  1  0  0  0  0
  7  8  1  0  0  0  0
M  END
> <ChemID>
100359

> <CAS>
152-20-5

> <Original_SMILES>
CSP(=O)(OC)OC

> <preferred_name>
O,O,S-Trimethyl phosphorothioate

> <dsstox_substance_id>
DTXSID90164928

> <dsstox_compound_id>
DTXCID3087419

> <qc_level>
Public_Medium

> <Canonical_QSARr>
CSP(=O)(OC)OC

> <InChI_Code_QSARr>
InChI=1S/C3H9O3PS/c1-5-7(4,6-2)8-3/h1-3H3

> <InChI Key_QSARr>
WTUNGUOZHBRADH-UHFFFAOYSA-N

> <Salt_Solvent>


> <Salt_Solvent_ID>
0

> <MPID>
98910

> <OH Reference>
KWOK,ESC & ATKINSON,R (1994)

> <OH>
9.289999999999998E-12

> <OH Temperature>
25.0

> <LogOH>
-11.031984286006358

> <Tr_1_Tst_0>
1

$$$$
100360
  Mrv171c012241912032D          

  4  3  0  0  0  0            999 V2000
    1.2375    0.7145    0.0000 Cl  0  0  0  0  0  0  0  0  0  0  0  0
    0.8250    0.0000    0.0000 C   0  0  0  0  0  0  0  0  0  0  0  0
    0.0000    0.0000    0.0000 C   0  0  0  0  0  0  0  0  0  0  0  0
   -0.4125   -0.7145    0.0000 Cl  0  0  0  0  0  0  0  0  0  0  0  0
  2  1  1  4  0  0  0
  2  3  2  0  0  0  0
  3  4  1  0  0  0  0
M  END
> <ChemID>
100360

> <CAS>
156-59-2|156-60-5

> <Original_SMILES>
Cl/C=C\Cl

> <preferred_name>
(Z)-1,2-Dichloroethylene|(E)-1,2-Dichloroethylene

> <dsstox_substance_id>
DTXSID2024030|DTXSID7024031

> <dsstox_compound_id>
DTXCID304030|DTXCID704031

> <qc_level>
DSSTox_Low

> <Canonical_QSARr>
ClC=CCl

> <InChI_Code_QSARr>
InChI=1S/C2H2Cl2/c3-1-2-4/h1-2H

> <InChI Key_QSARr>
KFUSEUYYWQURPO-UHFFFAOYSA-N

> <Salt_Solvent>


> <Salt_Solvent_ID>
0

> <MPID>
98911|98912

> <OH Reference>
KWOK,ESC & ATKINSON,R (1994)

> <OH>
2.479999999999999E-12

> <OH Temperature>
25.0

> <LogOH>
-11.605548319173801

> <Tr_1_Tst_0>
1

$$$$
100362
  Mrv171c012241912032D          

 16 19  0  0  0  0            999 V2000
    1.7518   -1.4991    0.0000 C   0  0  0  0  0  0  0  0  0  0  0  0
    2.0068   -2.2837    0.0000 C   0  0  0  0  0  0  0  0  0  0  0  0
    2.8318   -2.2837    0.0000 C   0  0  0  0  0  0  0  0  0  0  0  0
    3.0867   -1.4991    0.0000 C   0  0  0  0  0  0  0  0  0  0  0  0
    2.4193   -1.0142    0.0000 C   0  0  0  0  0  0  0  0  0  0  0  0
    2.3330   -0.1937    0.0000 C   0  0  0  0  0  0  0  0  0  0  0  0
    1.5794    0.1419    0.0000 C   0  0  0  0  0  0  0  0  0  0  0  0
    0.9119   -0.3430    0.0000 C   0  0  0  0  0  0  0  0  0  0  0  0
    0.9449   -1.3276    0.0000 C   0  0  0  0  0  0  0  0  0  0  0  0
    0.3928   -1.9407    0.0000 C   0  0  0  0  0  0  0  0  0  0  0  0
    0.6478   -2.7253    0.0000 C   0  0  0  0  0  0  0  0  0  0  0  0
    1.4547   -2.8968    0.0000 C   0  0  0  0  0  0  0  0  0  0  0  0
    3.8937   -1.3276    0.0000 C   0  0  0  0  0  0  0  0  0  0  0  0
    4.4457   -1.9407    0.0000 C   0  0  0  0  0  0  0  0  0  0  0  0
    4.1908   -2.7253    0.0000 C   0  0  0  0  0  0  0  0  0  0  0  0
    3.3838   -2.8968    0.0000 C   0  0  0  0  0  0  0  0  0  0  0  0
  2  1  1  0  0  0  0
  2  3  1  0  0  0  0
  4  3  2  0  0  0  0
  4  5  1  0  0  0  0
  5  1  2  0  0  0  0
  5  6  1  0  0  0  0
  6  7  2  0  0  0  0
  7  8  1  0  0  0  0
  8  9  2  0  0  0  0
  1  9  1  0  0  0  0
  9 10  1  0  0  0  0
 10 11  2  0  0  0  0
 11 12  1  0  0  0  0
 12  2  2  0  0  0  0
 13  4  1  0  0  0  0
 14 13  2  0  0  0  0
 15 14  1  0  0  0  0
 16 15  2  0  0  0  0
  3 16  1  0  0  0  0
M  END
> <ChemID>
100362

> <CAS>
206-44-0

> <Original_SMILES>
c1ccc2c3c(cccc31)-c1ccccc1-2

> <preferred_name>
Fluoranthene

> <dsstox_substance_id>
DTXSID3024104

> <dsstox_compound_id>
DTXCID204104

> <qc_level>
DSSTox_Low

> <Canonical_QSARr>
C1=CC=C2C3=C(C=CC=C31)C1C=CC=CC=12

> <InChI_Code_QSARr>
InChI=1S/C16H10/c1-2-8-13-12(7-1)14-9-3-5-11-6-4-10-15(13)16(11)14/h1-10H

> <InChI Key_QSARr>
GVEPBJHOBDJJJI-UHFFFAOYSA-N

> <Salt_Solvent>


> <Salt_Solvent_ID>
0

> <MPID>
98913

> <OH Reference>
ATKINSON,R ET AL. (1990B)

> <OH>
5.000000000000002E-11

> <OH Temperature>
25.0

> <LogOH>
-10.30102999566398

> <Tr_1_Tst_0>
1

$$$$
100363
  Mrv171c012241912032D          

 12 14  0  0  0  0            999 V2000
    1.0219   -0.0469    0.0000 C   0  0  0  0  0  0  0  0  0  0  0  0
    0.7670   -0.8315    0.0000 C   0  0  0  0  0  0  0  0  0  0  0  0
    1.4344   -1.3165    0.0000 C   0  0  0  0  0  0  0  0  0  0  0  0
    1.3482   -2.1369    0.0000 C   0  0  0  0  0  0  0  0  0  0  0  0
    0.5945   -2.4725    0.0000 C   0  0  0  0  0  0  0  0  0  0  0  0
   -0.0729   -1.9876    0.0000 C   0  0  0  0  0  0  0  0  0  0  0  0
    0.0133   -1.1671    0.0000 C   0  0  0  0  0  0  0  0  0  0  0  0
    2.2743   -2.4725    0.0000 C   0  0  0  0  0  0  0  0  0  0  0  0
    2.9418   -1.9876    0.0000 C   0  0  0  0  0  0  0  0  0  0  0  0
    2.8555   -1.1671    0.0000 C   0  0  0  0  0  0  0  0  0  0  0  0
    2.1019   -0.8315    0.0000 C   0  0  0  0  0  0  0  0  0  0  0  0
    1.8469   -0.0469    0.0000 C   0  0  0  0  0  0  0  0  0  0  0  0
  2  1  1  0  0  0  0
  2  3  2  0  0  0  0
  3  4  1  0  0  0  0
  4  5  2  0  0  0  0
  5  6  1  0  0  0  0
  6  7  2  0  0  0  0
  7  2  1  0  0  0  0
  4  8  1  0  0  0  0
  8  9  2  0  0  0  0
  9 10  1  0  0  0  0
 10 11  2  0  0  0  0
 11  3  1  0  0  0  0
 12 11  1  0  0  0  0
  1 12  2  0  0  0  0
M  END
> <ChemID>
100363

> <CAS>
208-96-8

> <Original_SMILES>
c1ccc2C=Cc3cccc1c32

> <preferred_name>
Acenaphthylene

> <dsstox_substance_id>
DTXSID3023845

> <dsstox_compound_id>
DTXCID103845

> <qc_level>
DSSTox_Low

> <Canonical_QSARr>
C1=CC=C2C=CC=C3C=CC1=C32

> <InChI_Code_QSARr>
InChI=1S/C12H8/c1-3-9-4-2-6-11-8-7-10(5-1)12(9)11/h1-8H

> <InChI Key_QSARr>
HXGDTGSAIMULJN-UHFFFAOYSA-N

> <Salt_Solvent>


> <Salt_Solvent_ID>
0

> <MPID>
98914

> <OH Reference>
ATKINSON,R (1989)

> <OH>
1.1E-10

> <OH Temperature>
25.0

> <LogOH>
-9.95860731484176

> <Tr_1_Tst_0>
0

$$$$
100364
  Mrv171c012241912032D          

 14 16  0  0  0  0            999 V2000
    2.1414    0.0005    0.0000 O   0  0  0  0  0  0  0  0  0  0  0  0
    2.8559   -0.4120    0.0000 C   0  0  0  0  0  0  0  0  0  0  0  0
    3.5704    0.0005    0.0000 C   0  0  0  0  0  0  0  0  0  0  0  0
    4.2849   -0.4120    0.0000 C   0  0  0  0  0  0  0  0  0  0  0  0
    4.2849   -1.2370    0.0000 C   0  0  0  0  0  0  0  0  0  0  0  0
    3.5704   -1.6495    0.0000 C   0  0  0  0  0  0  0  0  0  0  0  0
    2.8559   -1.2370    0.0000 C   0  0  0  0  0  0  0  0  0  0  0  0
    2.1414   -1.6495    0.0000 O   0  0  0  0  0  0  0  0  0  0  0  0
    1.4270   -1.2370    0.0000 C   0  0  0  0  0  0  0  0  0  0  0  0
    0.7125   -1.6495    0.0000 C   0  0  0  0  0  0  0  0  0  0  0  0
   -0.0020   -1.2370    0.0000 C   0  0  0  0  0  0  0  0  0  0  0  0
   -0.0020   -0.4120    0.0000 C   0  0  0  0  0  0  0  0  0  0  0  0
    0.7125    0.0005    0.0000 C   0  0  0  0  0  0  0  0  0  0  0  0
    1.4270   -0.4120    0.0000 C   0  0  0  0  0  0  0  0  0  0  0  0
  2  1  1  0  0  0  0
  2  3  2  0  0  0  0
  3  4  1  0  0  0  0
  4  5  2  0  0  0  0
  5  6  1  0  0  0  0
  6  7  2  0  0  0  0
  7  2  1  0  0  0  0
  8  7  1  0  0  0  0
  9  8  1  0  0  0  0
  9 10  1  0  0  0  0
 10 11  2  0  0  0  0
 11 12  1  0  0  0  0
 12 13  2  0  0  0  0
 13 14  1  0  0  0  0
  1 14  1  0  0  0  0
 14  9  2  0  0  0  0
M  END
> <ChemID>
100364

> <CAS>
262-12-4

> <Original_SMILES>
c1cccc2Oc3ccccc3Oc21

> <preferred_name>
Dibenzo-p-dioxin

> <dsstox_substance_id>
DTXSID8020410

> <dsstox_compound_id>
DTXCID60410

> <qc_level>
DSSTox_Low

> <Canonical_QSARr>
C1=CC=CC2OC3=CC=CC=C3OC=21

> <InChI_Code_QSARr>
InChI=1S/C12H8O2/c1-2-6-10-9(5-1)13-11-7-3-4-8-12(11)14-10/h1-8H

> <InChI Key_QSARr>
NFBOHOGPQUYFRF-UHFFFAOYSA-N

> <Salt_Solvent>


> <Salt_Solvent_ID>
0

> <MPID>
98915

> <OH Reference>
BRUBAKER,WWJR & HITES,RA (1998)

> <OH>
1.2E-11

> <OH Temperature>
25.0

> <LogOH>
-10.920818753952396

> <Tr_1_Tst_0>
1

$$$$
100365
  Mrv171c012241912032D          

  9 10  0  0  0  0            999 V2000
    0.4843   -0.1560    0.0000 C   0  0  0  0  0  0  0  0  0  0  0  0
    1.2689   -0.4109    0.0000 C   0  0  0  0  0  0  0  0  0  0  0  0
    1.9834    0.0016    0.0000 C   0  0  0  0  0  0  0  0  0  0  0  0
    2.6979   -0.4109    0.0000 C   0  0  0  0  0  0  0  0  0  0  0  0
    2.6979   -1.2359    0.0000 C   0  0  0  0  0  0  0  0  0  0  0  0
    1.9834   -1.6484    0.0000 C   0  0  0  0  0  0  0  0  0  0  0  0
    1.2689   -1.2359    0.0000 C   0  0  0  0  0  0  0  0  0  0  0  0
    0.4843   -1.4909    0.0000 O   0  0  0  0  0  0  0  0  0  0  0  0
   -0.0006   -0.8234    0.0000 C   0  0  0  0  0  0  0  0  0  0  0  0
  2  1  1  0  0  0  0
  2  3  1  0  0  0  0
  3  4  2  0  0  0  0
  4  5  1  0  0  0  0
  5  6  2  0  0  0  0
  6  7  1  0  0  0  0
  7  2  2  0  0  0  0
  8  7  1  0  0  0  0
  9  8  1  0  0  0  0
  1  9  2  0  0  0  0
M  END
> <ChemID>
100365

> <CAS>
271-89-6

> <Original_SMILES>
c1cccc2occc21

> <preferred_name>
2,3-Benzofuran

> <dsstox_substance_id>
DTXSID6020141

> <dsstox_compound_id>
DTXCID20141

> <qc_level>
DSSTox_Low

> <Canonical_QSARr>
C1=CC=CC2OC=CC=21

> <InChI_Code_QSARr>
InChI=1S/C8H6O/c1-2-4-8-7(3-1)5-6-9-8/h1-6H

> <InChI Key_QSARr>
IANQTJSKSUMEQM-UHFFFAOYSA-N

> <Salt_Solvent>


> <Salt_Solvent_ID>
0

> <MPID>
98916

> <OH Reference>
ATKINSON,R (1989)

> <OH>
3.73E-11

> <OH Temperature>
25.0

> <LogOH>
-10.42829116819132

> <Tr_1_Tst_0>
1

$$$$
100366
  Mrv171c012241912032D          

  7 10  0  0  0  0            999 V2000
    2.5327    0.4994    0.0000 C   0  0  0  0  0  0  0  0  0  0  0  0
    3.4713    0.4994    0.0000 C   0  0  0  0  0  0  0  0  0  0  0  0
    3.9088   -0.3760    0.0000 C   0  0  0  0  0  0  0  0  0  0  0  0
    3.3269   -0.1935    0.0000 C   0  0  0  0  0  0  0  0  0  0  0  0
    2.6771   -0.1935    0.0000 C   0  0  0  0  0  0  0  0  0  0  0  0
    2.0953   -0.3760    0.0000 C   0  0  0  0  0  0  0  0  0  0  0  0
    3.0020   -0.7809    0.0000 C   0  0  0  0  0  0  0  0  0  0  0  0
  2  1  1  0  0  0  0
  2  3  1  0  0  0  0
  3  4  1  0  0  0  0
  4  2  1  0  0  0  0
  4  5  1  0  0  0  0
  5  1  1  0  0  0  0
  5  6  1  0  0  0  0
  1  6  1  0  0  0  0
  6  7  1  0  0  0  0
  7  3  1  0  0  0  0
M  END
> <ChemID>
100366

> <CAS>
278-06-8

> <Original_SMILES>
C1C2C3C4C1C4C32

> <preferred_name>
Quadricyclane

> <dsstox_substance_id>
DTXSID30182121

> <dsstox_compound_id>
DTXCID40104612

> <qc_level>
Public_Medium

> <Canonical_QSARr>
C1C2C3C4C1C4C32

> <InChI_Code_QSARr>
InChI=1S/C7H8/c1-2-4-5(2)7-3(1)6(4)7/h2-7H,1H2

> <InChI Key_QSARr>
DGZUEIPKRRSMGK-UHFFFAOYSA-N

> <Salt_Solvent>


> <Salt_Solvent_ID>
0

> <MPID>
98917

> <OH Reference>
ATKINSON,R (1994)

> <OH>
1.83E-12

> <OH Temperature>
25.0

> <LogOH>
-11.737548910269561

> <Tr_1_Tst_0>
1

$$$$
100367
  Mrv171c012241912032D          

  7  8  0  0  0  0            999 V2000
    1.0644   -2.2062    0.0000 C   0  0  0  0  0  0  0  0  0  0  0  0
    0.3500   -1.7937    0.0000 C   0  0  0  0  0  0  0  0  0  0  0  0
    0.3500   -0.9687    0.0000 C   0  0  0  0  0  0  0  0  0  0  0  0
    1.0644   -0.5562    0.0000 C   0  0  0  0  0  0  0  0  0  0  0  0
    1.7789   -0.9687    0.0000 C   0  0  0  0  0  0  0  0  0  0  0  0
    1.7789   -1.7937    0.0000 C   0  0  0  0  0  0  0  0  0  0  0  0
    0.8582   -1.3812    0.0000 C   0  0  0  0  0  0  0  0  0  0  0  0
  2  1  1  0  0  0  0
  3  2  1  0  0  0  0
  4  3  1  0  0  0  0
  4  5  1  0  0  0  0
  5  6  1  0  0  0  0
  6  1  1  0  0  0  0
  7  4  1  0  0  0  0
  1  7  1  0  0  0  0
M  END
> <ChemID>
100367

> <CAS>
279-23-2

> <Original_SMILES>
C1C2CCC1CC2

> <preferred_name>
Bicyclo[2.2.1]heptane

> <dsstox_substance_id>
DTXSID4075376

> <dsstox_compound_id>
DTXCID9037745

> <qc_level>
Public_High

> <Canonical_QSARr>
C1C2CCC1CC2

> <InChI_Code_QSARr>
InChI=1S/C7H12/c1-2-7-4-3-6(1)5-7/h6-7H,1-5H2

> <InChI Key_QSARr>
UMRZSTCPUPJPOJ-UHFFFAOYSA-N

> <Salt_Solvent>


> <Salt_Solvent_ID>
0

> <MPID>
98918

> <OH Reference>
ATKINSON,R (1989)

> <OH>
5.49E-12

> <OH Temperature>
25.0

> <LogOH>
-11.260427655549904

> <Tr_1_Tst_0>
0

$$$$
100368
  Mrv171c012241912032D          

  8  9  0  0  0  0            999 V2000
    1.7499   -0.9212    0.0000 C   0  0  0  0  0  0  0  0  0  0  0  0
    1.0354   -0.5087    0.0000 C   0  0  0  0  0  0  0  0  0  0  0  0
    1.0354    0.3163    0.0000 C   0  0  0  0  0  0  0  0  0  0  0  0
    1.7499    0.7288    0.0000 C   0  0  0  0  0  0  0  0  0  0  0  0
    2.4644    0.3163    0.0000 C   0  0  0  0  0  0  0  0  0  0  0  0
    2.4644   -0.5087    0.0000 C   0  0  0  0  0  0  0  0  0  0  0  0
    1.6124    0.1788    0.0000 C   0  0  0  0  0  0  0  0  0  0  0  0
    1.6124   -0.3712    0.0000 C   0  0  0  0  0  0  0  0  0  0  0  0
  2  1  1  0  0  0  0
  3  2  1  0  0  0  0
  4  3  1  0  0  0  0
  4  5  1  0  0  0  0
  5  6  1  0  0  0  0
  6  1  1  0  0  0  0
  7  4  1  0  0  0  0
  8  7  1  0  0  0  0
  1  8  1  0  0  0  0
M  END
> <ChemID>
100368

> <CAS>
280-33-1

> <Original_SMILES>
C1CC2CCC1CC2

> <preferred_name>
Bicyclo(2.2.2)octane

> <dsstox_substance_id>
DTXSID40182278

> <dsstox_compound_id>
DTXCID50104769

> <qc_level>
Public_Medium

> <Canonical_QSARr>
C1CC2CCC1CC2

> <InChI_Code_QSARr>
InChI=1S/C8H14/c1-2-8-5-3-7(1)4-6-8/h7-8H,1-6H2

> <InChI Key_QSARr>
GPRLTFBKWDERLU-UHFFFAOYSA-N

> <Salt_Solvent>


> <Salt_Solvent_ID>
0

> <MPID>
98919

> <OH Reference>
ATKINSON,R (1989)

> <OH>
1.47E-11

> <OH Temperature>
25.0

> <LogOH>
-10.832682665251841

> <Tr_1_Tst_0>
1

$$$$
100369
  Mrv171c012241912032D          

  8  9  0  0  0  0            999 V2000
    0.8332   -1.6510    0.0000 N   0  0  0  0  0  0  0  0  0  0  0  0
    0.1187   -1.2385    0.0000 C   0  0  0  0  0  0  0  0  0  0  0  0
    0.1187   -0.4135    0.0000 C   0  0  0  0  0  0  0  0  0  0  0  0
    0.8332   -0.0010    0.0000 N   0  0  0  0  0  0  0  0  0  0  0  0
    1.5476   -0.4135    0.0000 C   0  0  0  0  0  0  0  0  0  0  0  0
    1.5476   -1.2385    0.0000 C   0  0  0  0  0  0  0  0  0  0  0  0
    0.6957   -0.5510    0.0000 C   0  0  0  0  0  0  0  0  0  0  0  0
    0.6957   -1.1010    0.0000 C   0  0  0  0  0  0  0  0  0  0  0  0
  2  1  1  0  0  0  0
  3  2  1  0  0  0  0
  4  3  1  0  0  0  0
  4  5  1  0  0  0  0
  5  6  1  0  0  0  0
  6  1  1  0  0  0  0
  7  4  1  0  0  0  0
  8  7  1  0  0  0  0
  1  8  1  0  0  0  0
M  END
> <ChemID>
100369

> <CAS>
280-57-9

> <Original_SMILES>
C1CN2CCN1CC2

> <preferred_name>
1,4-Diazabicyclo[2.2.2]octane

> <dsstox_substance_id>
DTXSID0022016

> <dsstox_compound_id>
DTXCID902016

> <qc_level>
DSSTox_Low

> <Canonical_QSARr>
C1CN2CCN1CC2

> <InChI_Code_QSARr>
InChI=1S/C6H12N2/c1-2-8-5-3-7(1)4-6-8/h1-6H2

> <InChI Key_QSARr>
IMNIMPAHZVJRPE-UHFFFAOYSA-N

> <Salt_Solvent>


> <Salt_Solvent_ID>
0

> <MPID>
98920

> <OH Reference>
KOCH,R ET AL. (1996)

> <OH>
2.2E-11

> <OH Temperature>
25.0

> <LogOH>
-10.65757731917778

> <Tr_1_Tst_0>
1

$$$$
100370
  Mrv171c012241912032D          

 10 12  0  0  0  0            999 V2000
    0.6599   -1.5902    0.0000 C   0  0  0  0  0  0  0  0  0  0  0  0
   -0.0755   -1.9639    0.0000 C   0  0  0  0  0  0  0  0  0  0  0  0
    0.3739   -1.1736    0.0000 C   0  0  0  0  0  0  0  0  0  0  0  0
    0.3739   -0.4262    0.0000 C   0  0  0  0  0  0  0  0  0  0  0  0
    1.1094   -0.0525    0.0000 C   0  0  0  0  0  0  0  0  0  0  0  0
    1.8450   -0.4262    0.0000 C   0  0  0  0  0  0  0  0  0  0  0  0
    1.8450   -1.1736    0.0000 C   0  0  0  0  0  0  0  0  0  0  0  0
    1.1094   -1.5473    0.0000 C   0  0  0  0  0  0  0  0  0  0  0  0
    1.3955   -1.9639    0.0000 C   0  0  0  0  0  0  0  0  0  0  0  0
    0.6599   -0.8428    0.0000 C   0  0  0  0  0  0  0  0  0  0  0  0
  2  1  1  0  0  0  0
  3  2  1  0  0  0  0
 10  5  1  0  0  0  0
  4  5  1  0  0  0  0
  5  6  1  0  0  0  0
  9  1  1  0  0  0  0
  7  8  1  0  0  0  0
  8  3  1  0  0  0  0
  7  9  1  0  0  0  0
  6  7  1  0  0  0  0
  3  4  1  0  0  0  0
  1 10  1  0  0  0  0
M  END
> <ChemID>
100370

> <CAS>
281-23-2

> <Original_SMILES>
C1C2CC3CC1CC(C2)C3

> <preferred_name>
Adamantane

> <dsstox_substance_id>
DTXSID5022017

> <dsstox_compound_id>
DTXCID302017

> <qc_level>
DSSTox_Low

> <Canonical_QSARr>
C1C2CC3CC1CC(C2)C3

> <InChI_Code_QSARr>
InChI=1S/C10H16/c1-7-2-9-4-8(1)5-10(3-7)6-9/h7-10H,1-6H2

> <InChI Key_QSARr>
ORILYTVJVMAKLC-UHFFFAOYSA-N

> <Salt_Solvent>


> <Salt_Solvent_ID>
0

> <MPID>
98921

> <OH Reference>
ATKINSON,R (1989)

> <OH>
2.26E-11

> <OH Temperature>
25.0

> <LogOH>
-10.645891560852593

> <Tr_1_Tst_0>
1

$$$$
100371
  Mrv171c012241912032D          

  4  4  0  0  0  0            999 V2000
    0.9958    0.4125    0.0000 C   0  0  0  0  0  0  0  0  0  0  0  0
    0.4125    0.9958    0.0000 C   0  0  0  0  0  0  0  0  0  0  0  0
   -0.1709    0.4125    0.0000 C   0  0  0  0  0  0  0  0  0  0  0  0
    0.4125   -0.1709    0.0000 C   0  0  0  0  0  0  0  0  0  0  0  0
  2  1  1  0  0  0  0
  3  2  1  0  0  0  0
  4  3  1  0  0  0  0
  1  4  1  0  0  0  0
M  END
> <ChemID>
100371

> <CAS>
287-23-0

> <Original_SMILES>
C1CCC1

> <preferred_name>
Cyclobutane

> <dsstox_substance_id>
DTXSID2059772

> <dsstox_compound_id>
DTXCID6037853

> <qc_level>
Public_High

> <Canonical_QSARr>
C1CCC1

> <InChI_Code_QSARr>
InChI=1S/C4H8/c1-2-4-3-1/h1-4H2

> <InChI Key_QSARr>
PMPVIKIVABFJJI-UHFFFAOYSA-N

> <Salt_Solvent>


> <Salt_Solvent_ID>
0

> <MPID>
98922

> <OH Reference>
KWOK,ESC & ATKINSON,R (1994)

> <OH>
1.5E-12

> <OH Temperature>
25.0

> <LogOH>
-11.823908740944326

> <Tr_1_Tst_0>
0

$$$$
100372
  Mrv171c012241912032D          

  5  5  0  0  0  0            999 V2000
    1.3349   -0.3510    0.0000 C   0  0  0  0  0  0  0  0  0  0  0  0
    0.6675    0.1339    0.0000 C   0  0  0  0  0  0  0  0  0  0  0  0
    0.0000   -0.3510    0.0000 C   0  0  0  0  0  0  0  0  0  0  0  0
    0.2550   -1.1356    0.0000 C   0  0  0  0  0  0  0  0  0  0  0  0
    1.0800   -1.1356    0.0000 C   0  0  0  0  0  0  0  0  0  0  0  0
  2  1  1  0  0  0  0
  3  2  1  0  0  0  0
  4  3  1  0  0  0  0
  5  4  1  0  0  0  0
  1  5  1  0  0  0  0
M  END
> <ChemID>
100372

> <CAS>
287-92-3

> <Original_SMILES>
C1CCCC1

> <preferred_name>
Cyclopentane

> <dsstox_substance_id>
DTXSID6024886

> <dsstox_compound_id>
DTXCID804886

> <qc_level>
DSSTox_Low

> <Canonical_QSARr>
C1CCCC1

> <InChI_Code_QSARr>
InChI=1S/C5H10/c1-2-4-5-3-1/h1-5H2

> <InChI Key_QSARr>
RGSFGYAAUTVSQA-UHFFFAOYSA-N

> <Salt_Solvent>


> <Salt_Solvent_ID>
0

> <MPID>
98923

> <OH Reference>
ATKINSON,R (1989)

> <OH>
5.16E-12

> <OH Temperature>
25.0

> <LogOH>
-11.287350298372797

> <Tr_1_Tst_0>
1

$$$$
100373
  Mrv171c012241912032D          

  5  5  0  0  0  0            999 V2000
    1.2329   -0.4538    0.0000 N   0  0  0  0  0  0  0  0  0  0  0  0
    0.5654    0.0311    0.0000 C   0  0  0  0  0  0  0  0  0  0  0  0
   -0.1020   -0.4538    0.0000 C   0  0  0  0  0  0  0  0  0  0  0  0
    0.1529   -1.2384    0.0000 N   0  0  0  0  0  0  0  0  0  0  0  0
    0.9779   -1.2384    0.0000 C   0  0  0  0  0  0  0  0  0  0  0  0
  2  1  1  0  0  0  0
  3  2  2  0  0  0  0
  4  3  1  0  0  0  0
  5  4  1  0  0  0  0
  1  5  2  0  0  0  0
M  END
> <ChemID>
100373

> <CAS>
288-32-4

> <Original_SMILES>
c1[nH]cc[n]1

> <preferred_name>
Imidazole

> <dsstox_substance_id>
DTXSID2029616

> <dsstox_compound_id>
DTXCID809616

> <qc_level>
DSSTox_Low

> <Canonical_QSARr>
C1NC=CN=1

> <InChI_Code_QSARr>
InChI=1S/C3H4N2/c1-2-5-3-4-1/h1-3H,(H,4,5)

> <InChI Key_QSARr>
RAXXELZNTBOGNW-UHFFFAOYSA-N

> <Salt_Solvent>


> <Salt_Solvent_ID>
0

> <MPID>
98924

> <OH Reference>
ATKINSON,R (1989)

> <OH>
3.59E-11

> <OH Temperature>
24.0

> <LogOH>
-10.444905551421673

> <Tr_1_Tst_0>
1

$$$$
100374
  Mrv171c012241912032D          

  5  5  0  0  0  0            999 V2000
    2.9851    0.2839    0.0000 O   0  0  0  0  0  0  0  0  0  0  0  0
    2.3176    0.7688    0.0000 C   0  0  0  0  0  0  0  0  0  0  0  0
    1.6502    0.2839    0.0000 N   0  0  0  0  0  0  0  0  0  0  0  0
    1.9051   -0.5007    0.0000 C   0  0  0  0  0  0  0  0  0  0  0  0
    2.7301   -0.5007    0.0000 C   0  0  0  0  0  0  0  0  0  0  0  0
  2  1  1  0  0  0  0
  3  2  2  0  0  0  0
  4  3  1  0  0  0  0
  5  4  2  0  0  0  0
  1  5  1  0  0  0  0
M  END
> <ChemID>
100374

> <CAS>
288-42-6

> <Original_SMILES>
c1[n]cco1

> <preferred_name>
Oxazole

> <dsstox_substance_id>
DTXSID70182983

> <dsstox_compound_id>
DTXCID10105474

> <qc_level>
Public_Medium

> <Canonical_QSARr>
C1=NC=CO1

> <InChI_Code_QSARr>
InChI=1S/C3H3NO/c1-2-5-3-4-1/h1-3H

> <InChI Key_QSARr>
ZCQWOFVYLHDMMC-UHFFFAOYSA-N

> <Salt_Solvent>


> <Salt_Solvent_ID>
0

> <MPID>
98925

> <OH Reference>
ATKINSON,R (1989)

> <OH>
9.100000000000001E-12

> <OH Temperature>
25.0

> <LogOH>
-11.040958607678887

> <Tr_1_Tst_0>
1

$$$$
100375
  Mrv171c012241912032D          

  5  5  0  0  0  0            999 V2000
    1.2352    0.6294    0.0000 C   0  0  0  0  0  0  0  0  0  0  0  0
    0.5678    1.1143    0.0000 N   0  0  0  0  0  0  0  0  0  0  0  0
   -0.0996    0.6294    0.0000 C   0  0  0  0  0  0  0  0  0  0  0  0
    0.1553   -0.1552    0.0000 S   0  0  0  0  0  0  0  0  0  0  0  0
    0.9803   -0.1552    0.0000 C   0  0  0  0  0  0  0  0  0  0  0  0
  2  1  1  0  0  0  0
  3  2  2  0  0  0  0
  4  3  1  0  0  0  0
  5  4  1  0  0  0  0
  1  5  2  0  0  0  0
M  END
> <ChemID>
100375

> <CAS>
288-47-1

> <Original_SMILES>
c1[n]cc[s]1

> <preferred_name>
Thiazole

> <dsstox_substance_id>
DTXSID2059776

> <dsstox_compound_id>
DTXCID4037875

> <qc_level>
Public_High

> <Canonical_QSARr>
C1=NC=CS1

> <InChI_Code_QSARr>
InChI=1S/C3H3NS/c1-2-5-3-4-1/h1-3H

> <InChI Key_QSARr>
FZWLAAWBMGSTSO-UHFFFAOYSA-N

> <Salt_Solvent>


> <Salt_Solvent_ID>
0

> <MPID>
98926

> <OH Reference>
ATKINSON,R (1989)

> <OH>
1.41E-12

> <OH Temperature>
24.0

> <LogOH>
-11.850780887344632

> <Tr_1_Tst_0>
0

$$$$
100376
  Mrv171c012241912032D          

  6  6  0  0  0  0            999 V2000
    1.5428   -0.3025    0.0000 C   0  0  0  0  0  0  0  0  0  0  0  0
    0.8283    0.1100    0.0000 N   0  0  0  0  0  0  0  0  0  0  0  0
    0.1139   -0.3025    0.0000 C   0  0  0  0  0  0  0  0  0  0  0  0
    0.1139   -1.1275    0.0000 N   0  0  0  0  0  0  0  0  0  0  0  0
    0.8283   -1.5400    0.0000 C   0  0  0  0  0  0  0  0  0  0  0  0
    1.5428   -1.1275    0.0000 N   0  0  0  0  0  0  0  0  0  0  0  0
  2  1  2  0  0  0  0
  3  2  1  0  0  0  0
  4  3  2  0  0  0  0
  5  4  1  0  0  0  0
  6  5  2  0  0  0  0
  1  6  1  0  0  0  0
M  END
> <ChemID>
100376

> <CAS>
290-87-9

> <Original_SMILES>
c1[n]c[n]c[n]1

> <preferred_name>
1,3,5-Triazine

> <dsstox_substance_id>
DTXSID7052785

> <dsstox_compound_id>
DTXCID3031361

> <qc_level>
DSSTox_Low

> <Canonical_QSARr>
C1N=CN=CN=1

> <InChI_Code_QSARr>
InChI=1S/C3H3N3/c1-4-2-6-3-5-1/h1-3H

> <InChI Key_QSARr>
JIHQDMXYYFUGFV-UHFFFAOYSA-N

> <Salt_Solvent>


> <Salt_Solvent_ID>
0

> <MPID>
98927

> <OH Reference>
ATKINSON,R (1989)

> <OH>
1.45E-13

> <OH Temperature>
23.0

> <LogOH>
-12.838631997765019

> <Tr_1_Tst_0>
1

$$$$
100377
  Mrv171c012241912032D          

  7  7  0  0  0  0            999 V2000
    1.5999    1.0052    0.0000 C   0  0  0  0  0  0  0  0  0  0  0  0
    0.8566    1.3632    0.0000 C   0  0  0  0  0  0  0  0  0  0  0  0
    0.1133    1.0052    0.0000 C   0  0  0  0  0  0  0  0  0  0  0  0
   -0.0703    0.2009    0.0000 C   0  0  0  0  0  0  0  0  0  0  0  0
    0.4441   -0.4441    0.0000 C   0  0  0  0  0  0  0  0  0  0  0  0
    1.2691   -0.4441    0.0000 C   0  0  0  0  0  0  0  0  0  0  0  0
    1.7835    0.2009    0.0000 C   0  0  0  0  0  0  0  0  0  0  0  0
  2  1  1  0  0  0  0
  3  2  1  0  0  0  0
  4  3  1  0  0  0  0
  5  4  1  0  0  0  0
  6  5  1  0  0  0  0
  7  6  1  0  0  0  0
  1  7  1  0  0  0  0
M  END
> <ChemID>
100377

> <CAS>
291-64-5

> <Original_SMILES>
C1CCCCCC1

> <preferred_name>
Cycloheptane

> <dsstox_substance_id>
DTXSID0074269

> <dsstox_compound_id>
DTXCID1037931

> <qc_level>
Public_High

> <Canonical_QSARr>
C1CCCCCC1

> <InChI_Code_QSARr>
InChI=1S/C7H14/c1-2-4-6-7-5-3-1/h1-7H2

> <InChI Key_QSARr>
DMEGYFMYUHOHGS-UHFFFAOYSA-N

> <Salt_Solvent>


> <Salt_Solvent_ID>
0

> <MPID>
98928

> <OH Reference>
ATKINSON,R (1989)

> <OH>
1.25E-11

> <OH Temperature>
25.0

> <LogOH>
-10.903089986991946

> <Tr_1_Tst_0>
1

$$$$
100378
  Mrv171c012241912032D          

  8  8  0  0  0  0            999 V2000
    1.7581    1.1747    0.0000 C   0  0  0  0  0  0  0  0  0  0  0  0
    0.9959    1.4904    0.0000 C   0  0  0  0  0  0  0  0  0  0  0  0
    0.2337    1.1747    0.0000 C   0  0  0  0  0  0  0  0  0  0  0  0
   -0.0820    0.4125    0.0000 C   0  0  0  0  0  0  0  0  0  0  0  0
    0.2337   -0.3497    0.0000 C   0  0  0  0  0  0  0  0  0  0  0  0
    0.9959   -0.6654    0.0000 C   0  0  0  0  0  0  0  0  0  0  0  0
    1.7581   -0.3497    0.0000 C   0  0  0  0  0  0  0  0  0  0  0  0
    2.0738    0.4125    0.0000 C   0  0  0  0  0  0  0  0  0  0  0  0
  2  1  1  0  0  0  0
  3  2  1  0  0  0  0
  4  3  1  0  0  0  0
  5  4  1  0  0  0  0
  6  5  1  0  0  0  0
  7  6  1  0  0  0  0
  8  7  1  0  0  0  0
  1  8  1  0  0  0  0
M  END
> <ChemID>
100378

> <CAS>
292-64-8

> <Original_SMILES>
C1CCCCCCC1

> <preferred_name>
Cyclooctane

> <dsstox_substance_id>
DTXSID9075377

> <dsstox_compound_id>
DTXCID4037952

> <qc_level>
Public_High

> <Canonical_QSARr>
C1CCCCCCC1

> <InChI_Code_QSARr>
InChI=1S/C8H16/c1-2-4-6-8-7-5-3-1/h1-8H2

> <InChI Key_QSARr>
WJTCGQSWYFHTAC-UHFFFAOYSA-N

> <Salt_Solvent>


> <Salt_Solvent_ID>
0

> <MPID>
98929

> <OH Reference>
ATKINSON,R (1989)

> <OH>
1.37E-11

> <OH Temperature>
25.0

> <LogOH>
-10.863279432843605

> <Tr_1_Tst_0>
1

$$$$
100379
  Mrv171c012241912032D          

  7  6  0  0  0  0            999 V2000
    1.3509   -0.5202    0.0000 C   0  0  0  0  0  0  0  0  0  0  0  0
    1.7634    0.1943    0.0000 F   0  0  0  0  0  0  0  0  0  0  0  0
    0.6364   -0.1077    0.0000 F   0  0  0  0  0  0  0  0  0  0  0  0
    2.0654   -0.9327    0.0000 F   0  0  0  0  0  0  0  0  0  0  0  0
    0.9384   -1.2347    0.0000 C   0  0  0  0  0  0  0  0  0  0  0  0
    1.3509   -1.9492    0.0000 Cl  0  0  0  0  0  0  0  0  0  0  0  0
    0.1134   -1.2347    0.0000 Cl  0  0  0  0  0  0  0  0  0  0  0  0
  1  2  1  0  0  0  0
  1  3  1  0  0  0  0
  1  4  1  0  0  0  0
  1  5  1  0  0  0  0
  5  6  1  0  0  0  0
  5  7  1  0  0  0  0
M  END
> <ChemID>
100379

> <CAS>
306-83-2

> <Original_SMILES>
FC(F)(F)C(Cl)Cl

> <preferred_name>
2,2-Dichloro-1,1,1-trifluoroethane

> <dsstox_substance_id>
DTXSID7020712

> <dsstox_compound_id>
DTXCID50712

> <qc_level>
DSSTox_Low

> <Canonical_QSARr>
FC(F)(F)C(Cl)Cl

> <InChI_Code_QSARr>
InChI=1S/C2HCl2F3/c3-1(4)2(5,6)7/h1H

> <InChI Key_QSARr>
OHMHBGPWCHTMQE-UHFFFAOYSA-N

> <Salt_Solvent>


> <Salt_Solvent_ID>
0

> <MPID>
98930

> <OH Reference>
KWOK,ESC & ATKINSON,R (1994)

> <OH>
3.640000000000001E-14

> <OH Temperature>
25.0

> <LogOH>
-13.438898616350947

> <Tr_1_Tst_0>
0

$$$$
100380
  Mrv171c012241912032D          

 40 39  0  0  0  0            999 V2000
    5.6639   -4.2806    0.0000 C   0  0  0  0  0  0  0  0  0  0  0  0
    6.0764   -4.9950    0.0000 F   0  0  0  0  0  0  0  0  0  0  0  0
    5.2514   -3.5661    0.0000 F   0  0  0  0  0  0  0  0  0  0  0  0
    4.9494   -4.6931    0.0000 N   0  0  0  0  0  0  0  0  0  0  0  0
    4.9494   -5.5181    0.0000 C   0  0  0  0  0  0  0  0  0  0  0  0
    5.7744   -5.5181    0.0000 F   0  0  0  0  0  0  0  0  0  0  0  0
    4.1244   -5.5181    0.0000 F   0  0  0  0  0  0  0  0  0  0  0  0
    4.9494   -6.3431    0.0000 C   0  0  0  0  0  0  0  0  0  0  0  0
    5.7744   -6.3431    0.0000 F   0  0  0  0  0  0  0  0  0  0  0  0
    4.1244   -6.3431    0.0000 F   0  0  0  0  0  0  0  0  0  0  0  0
    4.9494   -7.1681    0.0000 C   0  0  0  0  0  0  0  0  0  0  0  0
    5.7744   -7.1681    0.0000 F   0  0  0  0  0  0  0  0  0  0  0  0
    4.1244   -7.1681    0.0000 F   0  0  0  0  0  0  0  0  0  0  0  0
    4.9494   -7.9931    0.0000 C   0  0  0  0  0  0  0  0  0  0  0  0
    4.9494   -8.8181    0.0000 F   0  0  0  0  0  0  0  0  0  0  0  0
    5.7744   -7.9931    0.0000 F   0  0  0  0  0  0  0  0  0  0  0  0
    4.1244   -7.9931    0.0000 F   0  0  0  0  0  0  0  0  0  0  0  0
    4.2349   -4.2806    0.0000 C   0  0  0  0  0  0  0  0  0  0  0  0
    4.6474   -3.5661    0.0000 F   0  0  0  0  0  0  0  0  0  0  0  0
    3.8224   -4.9950    0.0000 F   0  0  0  0  0  0  0  0  0  0  0  0
    3.5205   -3.8681    0.0000 C   0  0  0  0  0  0  0  0  0  0  0  0
    3.9330   -3.1536    0.0000 F   0  0  0  0  0  0  0  0  0  0  0  0
    3.1080   -4.5825    0.0000 F   0  0  0  0  0  0  0  0  0  0  0  0
    2.8060   -3.4556    0.0000 C   0  0  0  0  0  0  0  0  0  0  0  0
    3.2185   -2.7411    0.0000 F   0  0  0  0  0  0  0  0  0  0  0  0
    2.3935   -4.1700    0.0000 F   0  0  0  0  0  0  0  0  0  0  0  0
    2.0915   -3.0431    0.0000 C   0  0  0  0  0  0  0  0  0  0  0  0
    1.3771   -2.6306    0.0000 F   0  0  0  0  0  0  0  0  0  0  0  0
    2.5040   -2.3286    0.0000 F   0  0  0  0  0  0  0  0  0  0  0  0
    1.6790   -3.7575    0.0000 F   0  0  0  0  0  0  0  0  0  0  0  0
    6.3784   -3.8681    0.0000 C   0  0  0  0  0  0  0  0  0  0  0  0
    5.9659   -3.1536    0.0000 F   0  0  0  0  0  0  0  0  0  0  0  0
    6.7909   -4.5825    0.0000 F   0  0  0  0  0  0  0  0  0  0  0  0
    7.0928   -3.4556    0.0000 C   0  0  0  0  0  0  0  0  0  0  0  0
    7.5053   -4.1700    0.0000 F   0  0  0  0  0  0  0  0  0  0  0  0
    6.6803   -2.7411    0.0000 F   0  0  0  0  0  0  0  0  0  0  0  0
    7.8073   -3.0431    0.0000 C   0  0  0  0  0  0  0  0  0  0  0  0
    8.2198   -3.7575    0.0000 F   0  0  0  0  0  0  0  0  0  0  0  0
    7.3948   -2.3286    0.0000 F   0  0  0  0  0  0  0  0  0  0  0  0
    8.5218   -2.6306    0.0000 F   0  0  0  0  0  0  0  0  0  0  0  0
  1  2  1  0  0  0  0
  1  3  1  0  0  0  0
  1  4  1  0  0  0  0
  4  5  1  0  0  0  0
  5  6  1  0  0  0  0
  5  7  1  0  0  0  0
  5  8  1  0  0  0  0
  8  9  1  0  0  0  0
  8 10  1  0  0  0  0
  8 11  1  0  0  0  0
 11 12  1  0  0  0  0
 11 13  1  0  0  0  0
 11 14  1  0  0  0  0
 14 15  1  0  0  0  0
 14 16  1  0  0  0  0
 14 17  1  0  0  0  0
  4 18  1  0  0  0  0
 18 19  1  0  0  0  0
 18 20  1  0  0  0  0
 18 21  1  0  0  0  0
 21 22  1  0  0  0  0
 21 23  1  0  0  0  0
 21 24  1  0  0  0  0
 24 25  1  0  0  0  0
 24 26  1  0  0  0  0
 24 27  1  0  0  0  0
 27 28  1  0  0  0  0
 27 29  1  0  0  0  0
 27 30  1  0  0  0  0
  1 31  1  0  0  0  0
 31 32  1  0  0  0  0
 31 33  1  0  0  0  0
 31 34  1  0  0  0  0
 34 35  1  0  0  0  0
 34 36  1  0  0  0  0
 34 37  1  0  0  0  0
 37 38  1  0  0  0  0
 37 39  1  0  0  0  0
 37 40  1  0  0  0  0
M  END
> <ChemID>
100380

> <CAS>
311-89-7

> <Original_SMILES>
FC(F)(F)C(F)(F)C(F)(F)C(F)(F)N(C(F)(F)C(F)(F)C(F)(F)C(F)(F)F)C(F)(F)C(F)(F)C(F)(F)C(F)(F)F

> <preferred_name>
Perfluorotributylamine

> <dsstox_substance_id>
DTXSID0027141

> <dsstox_compound_id>
DTXCID507141

> <qc_level>
DSSTox_Low

> <Canonical_QSARr>
FC(F)(F)C(F)(F)C(F)(F)C(F)(F)N(C(F)(F)C(F)(F)C(F)(F)C(F)(F)F)C(F)(F)C(F)(F)C(F)(F)C(F)(F)F

> <InChI_Code_QSARr>
InChI=1S/C12F27N/c13-1(14,7(25,26)27)4(19,20)10(34,35)40(11(36,37)5(21,22)2(15,16)8(28,29)30)12(38,39)6(23,24)3(17,18)9(31,32)33

> <InChI Key_QSARr>
RVZRBWKZFJCCIB-UHFFFAOYSA-N

> <Salt_Solvent>


> <Salt_Solvent_ID>
0

> <MPID>
98931

> <OH Reference>
priv. communication;<6E-17

> <OH>
6.000000000000001E-17

> <OH Temperature>
25.0

> <LogOH>
-16.221848749616345

> <Tr_1_Tst_0>
1

$$$$
100382
  Mrv171c012241912032D          

 11 10  0  0  0  0            999 V2000
    2.8628   -2.7773    0.0000 F   0  0  0  0  0  0  0  0  0  0  0  0
    2.8628   -1.9523    0.0000 C   0  0  0  0  0  0  0  0  0  0  0  0
    2.8628   -1.1273    0.0000 C   0  0  0  0  0  0  0  0  0  0  0  0
    2.1483   -0.7148    0.0000 O   0  0  0  0  0  0  0  0  0  0  0  0
    2.1483    0.1102    0.0000 C   0  0  0  0  0  0  0  0  0  0  0  0
    1.4339    0.5227    0.0000 C   0  0  0  0  0  0  0  0  0  0  0  0
    0.7194    0.9352    0.0000 F   0  0  0  0  0  0  0  0  0  0  0  0
    1.8464    1.2372    0.0000 F   0  0  0  0  0  0  0  0  0  0  0  0
    1.0214   -0.1918    0.0000 F   0  0  0  0  0  0  0  0  0  0  0  0
    3.6878   -1.9523    0.0000 F   0  0  0  0  0  0  0  0  0  0  0  0
    2.0378   -1.9523    0.0000 F   0  0  0  0  0  0  0  0  0  0  0  0
  1  2  1  0  0  0  0
  2  3  1  0  0  0  0
  3  4  1  0  0  0  0
  4  5  1  0  0  0  0
  5  6  1  0  0  0  0
  6  7  1  0  0  0  0
  6  8  1  0  0  0  0
  6  9  1  0  0  0  0
  2 10  1  0  0  0  0
  2 11  1  0  0  0  0
M  END
> <ChemID>
100382

> <CAS>
333-36-8

> <Original_SMILES>
FC(F)(F)COCC(F)(F)F

> <preferred_name>
Flurothyl

> <dsstox_substance_id>
DTXSID5046516

> <dsstox_compound_id>
DTXCID3026516

> <qc_level>
DSSTox_Low

> <Canonical_QSARr>
FC(F)(F)COCC(F)(F)F

> <InChI_Code_QSARr>
InChI=1S/C4H4F6O/c5-3(6,7)1-11-2-4(8,9)10/h1-2H2

> <InChI Key_QSARr>
KGPPDNUWZNWPSI-UHFFFAOYSA-N

> <Salt_Solvent>


> <Salt_Solvent_ID>
0

> <MPID>
98933

> <OH Reference>
ORKIN,VL ET AL. (1999)

> <OH>
1.63E-13

> <OH Temperature>
25.0

> <LogOH>
-12.787812395596031

> <Tr_1_Tst_0>
1

$$$$
100384
  Mrv171c012241912032D          

  5  4  0  0  0  0            999 V2000
    0.9403    0.3553    0.0000 C   0  0  0  0  0  0  0  0  0  0  0  0
    1.3528   -0.3592    0.0000 S   0  0  0  0  0  0  0  0  0  0  0  0
    2.1778   -0.3592    0.0000 C   0  0  0  0  0  0  0  0  0  0  0  0
    2.5903   -1.0737    0.0000 C   0  0  0  0  0  0  0  0  0  0  0  0
    0.1153    0.3553    0.0000 C   0  0  0  0  0  0  0  0  0  0  0  0
  1  2  1  0  0  0  0
  2  3  1  0  0  0  0
  3  4  1  0  0  0  0
  1  5  1  0  0  0  0
M  END
> <ChemID>
100384

> <CAS>
352-93-2

> <Original_SMILES>
CCSCC

> <preferred_name>
Diethyl sulfide

> <dsstox_substance_id>
DTXSID5027146

> <dsstox_compound_id>
DTXCID507146

> <qc_level>
DSSTox_Low

> <Canonical_QSARr>
CCSCC

> <InChI_Code_QSARr>
InChI=1S/C4H10S/c1-3-5-4-2/h3-4H2,1-2H3

> <InChI Key_QSARr>
LJSQFQKUNVCTIA-UHFFFAOYSA-N

> <Salt_Solvent>


> <Salt_Solvent_ID>
0

> <MPID>
98934

> <OH Reference>
ATKINSON,R (1989)

> <OH>
1.5E-11

> <OH Temperature>
25.0

> <LogOH>
-10.8239087409443

> <Tr_1_Tst_0>
0

$$$$
100385
  Mrv171c012241912032D          

  3  2  0  0  0  0            999 V2000
    1.9519   -1.1270    0.0000 C   0  0  0  0  0  0  0  0  0  0  0  0
    1.2375   -0.7145    0.0000 F   0  0  0  0  0  0  0  0  0  0  0  0
    2.6664   -0.7145    0.0000 C   0  0  0  0  0  0  0  0  0  0  0  0
  1  2  1  0  0  0  0
  1  3  1  0  0  0  0
M  END
> <ChemID>
100385

> <CAS>
353-36-6

> <Original_SMILES>
CCF

> <preferred_name>
HFC-161

> <dsstox_substance_id>
DTXSID2059857

> <dsstox_compound_id>
DTXCID3038981

> <qc_level>
Public_High

> <Canonical_QSARr>
CCF

> <InChI_Code_QSARr>
InChI=1S/C2H5F/c1-2-3/h2H2,1H3

> <InChI Key_QSARr>
UHCBBWUQDAVSMS-UHFFFAOYSA-N

> <Salt_Solvent>


> <Salt_Solvent_ID>
0

> <MPID>
98935

> <OH Reference>
ATKINSON,R (1989)

> <OH>
2.32E-13

> <OH Temperature>
25.0

> <LogOH>
-12.63451201510911

> <Tr_1_Tst_0>
1

$$$$
100386
  Mrv171c012241912032D          

  5  4  0  0  0  0            999 V2000
    0.8250   -0.8250    0.0000 F   0  0  0  0  0  0  0  0  0  0  0  0
    0.8250    0.0000    0.0000 C   0  0  0  0  0  0  0  0  0  0  0  0
    0.8250    0.8250    0.0000 Br  0  0  0  0  0  0  0  0  0  0  0  0
    1.6500   -0.0000    0.0000 Br  0  0  0  0  0  0  0  0  0  0  0  0
    0.0000    0.0000    0.0000 Br  0  0  0  0  0  0  0  0  0  0  0  0
  1  2  1  0  0  0  0
  2  3  1  0  0  0  0
  2  4  1  0  0  0  0
  2  5  1  0  0  0  0
M  END
> <ChemID>
100386

> <CAS>
353-54-8

> <Original_SMILES>
FC(Br)(Br)Br

> <preferred_name>
Methane, tribromofluoro-

> <dsstox_substance_id>
DTXSID2059859

> <dsstox_compound_id>
DTXCID8038984

> <qc_level>
Public_High

> <Canonical_QSARr>
FC(Br)(Br)Br

> <InChI_Code_QSARr>
InChI=1S/CBr3F/c2-1(3,4)5

> <InChI Key_QSARr>
IHZAEIHJPNTART-UHFFFAOYSA-N

> <Salt_Solvent>


> <Salt_Solvent_ID>
0

> <MPID>
98936

> <OH Reference>
ATKINSON,R (1994);<1.0E-15

> <OH>
1.0E-15

> <OH Temperature>
25.0

> <LogOH>
-15.000000000000004

> <Tr_1_Tst_0>
1

$$$$
100387
  Mrv171c012241912032D          

  5  4  0  0  0  0            999 V2000
    0.8250   -0.8250    0.0000 C   0  0  0  0  0  0  0  0  0  0  0  0
    0.8250   -1.6500    0.0000 F   0  0  0  0  0  0  0  0  0  0  0  0
    0.8250    0.0000    0.0000 F   0  0  0  0  0  0  0  0  0  0  0  0
    1.6500   -0.8250    0.0000 Cl  0  0  0  0  0  0  0  0  0  0  0  0
    0.0000   -0.8250    0.0000 Br  0  0  0  0  0  0  0  0  0  0  0  0
  1  2  1  0  0  0  0
  1  3  1  0  0  0  0
  1  4  1  0  0  0  0
  1  5  1  0  0  0  0
M  END
> <ChemID>
100387

> <CAS>
353-59-3

> <Original_SMILES>
FC(F)(Cl)Br

> <preferred_name>
Methane, bromochlorodifluoro-

> <dsstox_substance_id>
DTXSID0027147

> <dsstox_compound_id>
DTXCID907147

> <qc_level>
DSSTox_Low

> <Canonical_QSARr>
FC(F)(Cl)Br

> <InChI_Code_QSARr>
InChI=1S/CBrClF2/c2-1(3,4)5

> <InChI Key_QSARr>
MEXUFEQDCXZEON-UHFFFAOYSA-N

> <Salt_Solvent>


> <Salt_Solvent_ID>
0

> <MPID>
98937

> <OH Reference>
ATKINSON,R (1989);<1E-15

> <OH>
1.0E-15

> <OH Temperature>
25.0

> <LogOH>
-15.000000000000004

> <Tr_1_Tst_0>
1

$$$$
100389
  Mrv171c012241912032D          

  7  6  0  0  0  0            999 V2000
    1.1992   -0.8134    0.0000 C   0  0  0  0  0  0  0  0  0  0  0  0
    1.6117   -0.0990    0.0000 Cl  0  0  0  0  0  0  0  0  0  0  0  0
    0.4847   -0.4009    0.0000 F   0  0  0  0  0  0  0  0  0  0  0  0
    1.9137   -1.2259    0.0000 F   0  0  0  0  0  0  0  0  0  0  0  0
    0.7867   -1.5279    0.0000 C   0  0  0  0  0  0  0  0  0  0  0  0
    1.1992   -2.2424    0.0000 Cl  0  0  0  0  0  0  0  0  0  0  0  0
   -0.0383   -1.5279    0.0000 Cl  0  0  0  0  0  0  0  0  0  0  0  0
  1  2  1  0  0  0  0
  1  3  1  0  0  0  0
  1  4  1  0  0  0  0
  1  5  1  0  0  0  0
  5  6  1  0  0  0  0
  5  7  1  0  0  0  0
M  END
> <ChemID>
100389

> <CAS>
354-21-2

> <Original_SMILES>
FC(F)(Cl)C(Cl)Cl

> <preferred_name>


> <dsstox_substance_id>
DTXSID00861890

> <dsstox_compound_id>
DTXCID20810744

> <qc_level>


> <Canonical_QSARr>
FC(F)(Cl)C(Cl)Cl

> <InChI_Code_QSARr>
InChI=1S/C2HCl3F2/c3-1(4)2(5,6)7/h1H

> <InChI Key_QSARr>
FQAMAOOEZDRHHB-UHFFFAOYSA-N

> <Salt_Solvent>


> <Salt_Solvent_ID>
0

> <MPID>
98938

> <OH Reference>
ORKIN,VL & KHAMAGANOV,VG (1993B)

> <OH>
5.300000000000001E-14

> <OH Temperature>
25.0

> <LogOH>
-13.275724130399226

> <Tr_1_Tst_0>
0

$$$$
100390
  Mrv171c012241912032D          

  7  6  0  0  0  0            999 V2000
    1.3525   -0.5203    0.0000 C   0  0  0  0  0  0  0  0  0  0  0  0
    1.7650    0.1942    0.0000 Cl  0  0  0  0  0  0  0  0  0  0  0  0
    0.6380   -0.1078    0.0000 F   0  0  0  0  0  0  0  0  0  0  0  0
    2.0669   -0.9328    0.0000 F   0  0  0  0  0  0  0  0  0  0  0  0
    0.9400   -1.2348    0.0000 C   0  0  0  0  0  0  0  0  0  0  0  0
    1.3525   -1.9492    0.0000 Cl  0  0  0  0  0  0  0  0  0  0  0  0
    0.1150   -1.2348    0.0000 F   0  0  0  0  0  0  0  0  0  0  0  0
  1  2  1  0  0  0  0
  1  3  1  0  0  0  0
  1  4  1  0  0  0  0
  1  5  1  0  0  0  0
  5  6  1  0  0  0  0
  5  7  1  0  0  0  0
M  END
> <ChemID>
100390

> <CAS>
354-23-4

> <Original_SMILES>
FC(Cl)C(F)(F)Cl

> <preferred_name>
1,2-dichloro-1,1,2-trifluoroethane

> <dsstox_substance_id>
DTXSID1042021

> <dsstox_compound_id>
DTXCID9022021

> <qc_level>
DSSTox_Low

> <Canonical_QSARr>
FC(Cl)C(F)(F)Cl

> <InChI_Code_QSARr>
InChI=1S/C2HCl2F3/c3-1(5)2(4,6)7/h1H

> <InChI Key_QSARr>
YMRMDGSNYHCUCL-UHFFFAOYSA-N

> <Salt_Solvent>


> <Salt_Solvent_ID>
0

> <MPID>
98939

> <OH Reference>
ORKIN,VL & KHAMAGANOV,VG (1993B)

> <OH>
1.23E-14

> <OH Temperature>
25.0

> <LogOH>
-13.910094888560593

> <Tr_1_Tst_0>
1

$$$$
100391
  Mrv171c012241912032D          

  7  6  0  0  0  0            999 V2000
    0.8864   -2.0053    0.0000 F   0  0  0  0  0  0  0  0  0  0  0  0
    0.8864   -1.1803    0.0000 C   0  0  0  0  0  0  0  0  0  0  0  0
    0.8864   -0.3553    0.0000 C   0  0  0  0  0  0  0  0  0  0  0  0
    0.1719    0.0572    0.0000 F   0  0  0  0  0  0  0  0  0  0  0  0
    1.6008    0.0572    0.0000 F   0  0  0  0  0  0  0  0  0  0  0  0
    1.7114   -1.1803    0.0000 F   0  0  0  0  0  0  0  0  0  0  0  0
    0.0614   -1.1803    0.0000 F   0  0  0  0  0  0  0  0  0  0  0  0
  1  2  1  0  0  0  0
  2  3  1  0  0  0  0
  3  4  1  0  0  0  0
  3  5  1  0  0  0  0
  2  6  1  0  0  0  0
  2  7  1  0  0  0  0
M  END
> <ChemID>
100391

> <CAS>
354-33-6

> <Original_SMILES>
FC(F)C(F)(F)F

> <preferred_name>
Pentafluoroethane

> <dsstox_substance_id>
DTXSID1024251

> <dsstox_compound_id>
DTXCID704251

> <qc_level>
DSSTox_Low

> <Canonical_QSARr>
FC(F)C(F)(F)F

> <InChI_Code_QSARr>
InChI=1S/C2HF5/c3-1(4)2(5,6)7/h1H

> <InChI Key_QSARr>
GTLACDSXYULKMZ-UHFFFAOYSA-N

> <Salt_Solvent>


> <Salt_Solvent_ID>
0

> <MPID>
98940

> <OH Reference>
ATKINSON,R (1989)

> <OH>
2.5E-15

> <OH Temperature>
25.0

> <LogOH>
-14.602059991327948

> <Tr_1_Tst_0>
1

$$$$
100393
  Mrv171c012241912032D          

  6  5  0  0  0  0            999 V2000
    1.0350   -0.3610    0.0000 C   0  0  0  0  0  0  0  0  0  0  0  0
    0.6225    0.3535    0.0000 F   0  0  0  0  0  0  0  0  0  0  0  0
    1.8600   -0.3610    0.0000 F   0  0  0  0  0  0  0  0  0  0  0  0
    0.6225   -1.0754    0.0000 C   0  0  0  0  0  0  0  0  0  0  0  0
    1.0350   -1.7899    0.0000 F   0  0  0  0  0  0  0  0  0  0  0  0
   -0.2025   -1.0754    0.0000 F   0  0  0  0  0  0  0  0  0  0  0  0
  1  2  1  0  0  0  0
  1  3  1  0  0  0  0
  1  4  1  0  0  0  0
  4  5  1  0  0  0  0
  4  6  1  0  0  0  0
M  END
> <ChemID>
100393

> <CAS>
9002-84-0

> <Original_SMILES>
FC(F)C(F)F

> <preferred_name>
Poly(tetrafluoroethylene)

> <dsstox_substance_id>
DTXSID7047724

> <dsstox_compound_id>
DTXCID6027713

> <qc_level>
DSSTox_Low

> <Canonical_QSARr>
FC(F)C(F)F

> <InChI_Code_QSARr>
InChI=1S/C2H2F4/c3-1(4)2(5)6/h1-2H

> <InChI Key_QSARr>
WXGNWUVNYMJENI-UHFFFAOYSA-N

> <Salt_Solvent>


> <Salt_Solvent_ID>
0

> <MPID>
98941

> <OH Reference>
DEMORE,WB (1996)

> <OH>
5.8E-15

> <OH Temperature>
25.0

> <LogOH>
-14.236572006437056

> <Tr_1_Tst_0>
0

$$$$
100394
  Mrv171c012241912032D          

 22 21  0  0  0  0            999 V2000
    4.6182    1.2927    0.0000 F   0  0  0  0  0  0  0  0  0  0  0  0
    3.7932    1.2927    0.0000 C   0  0  0  0  0  0  0  0  0  0  0  0
    3.7932    2.1177    0.0000 C   0  0  0  0  0  0  0  0  0  0  0  0
    3.7932    2.9427    0.0000 F   0  0  0  0  0  0  0  0  0  0  0  0
    2.9682    2.1177    0.0000 F   0  0  0  0  0  0  0  0  0  0  0  0
    4.6182    2.1177    0.0000 F   0  0  0  0  0  0  0  0  0  0  0  0
    3.7932    0.4677    0.0000 N   0  0  0  0  0  0  0  0  0  0  0  0
    4.5077    0.0552    0.0000 C   0  0  0  0  0  0  0  0  0  0  0  0
    5.2222   -0.3573    0.0000 C   0  0  0  0  0  0  0  0  0  0  0  0
    5.9367   -0.7698    0.0000 F   0  0  0  0  0  0  0  0  0  0  0  0
    4.8097   -1.0717    0.0000 F   0  0  0  0  0  0  0  0  0  0  0  0
    5.6347    0.3572    0.0000 F   0  0  0  0  0  0  0  0  0  0  0  0
    4.0952   -0.6592    0.0000 F   0  0  0  0  0  0  0  0  0  0  0  0
    4.9202    0.7697    0.0000 F   0  0  0  0  0  0  0  0  0  0  0  0
    3.0788    0.0552    0.0000 C   0  0  0  0  0  0  0  0  0  0  0  0
    2.3643   -0.3573    0.0000 C   0  0  0  0  0  0  0  0  0  0  0  0
    1.6498   -0.7698    0.0000 F   0  0  0  0  0  0  0  0  0  0  0  0
    1.9518    0.3572    0.0000 F   0  0  0  0  0  0  0  0  0  0  0  0
    2.7768   -1.0717    0.0000 F   0  0  0  0  0  0  0  0  0  0  0  0
    3.4913   -0.6592    0.0000 F   0  0  0  0  0  0  0  0  0  0  0  0
    2.6663    0.7697    0.0000 F   0  0  0  0  0  0  0  0  0  0  0  0
    2.9682    1.2927    0.0000 F   0  0  0  0  0  0  0  0  0  0  0  0
  1  2  1  0  0  0  0
  2  3  1  0  0  0  0
  3  4  1  0  0  0  0
  3  5  1  0  0  0  0
  3  6  1  0  0  0  0
  2  7  1  0  0  0  0
  7  8  1  0  0  0  0
  8  9  1  0  0  0  0
  9 10  1  0  0  0  0
  9 11  1  0  0  0  0
  9 12  1  0  0  0  0
  8 13  1  0  0  0  0
  8 14  1  0  0  0  0
  7 15  1  0  0  0  0
 15 16  1  0  0  0  0
 16 17  1  0  0  0  0
 16 18  1  0  0  0  0
 16 19  1  0  0  0  0
 15 20  1  0  0  0  0
 15 21  1  0  0  0  0
  2 22  1  0  0  0  0
M  END
> <ChemID>
100394

> <CAS>
359-70-6

> <Original_SMILES>
FC(F)(F)C(F)(F)N(C(F)(F)C(F)(F)F)C(F)(F)C(F)(F)F

> <preferred_name>
Perfluorotriethylamine

> <dsstox_substance_id>
DTXSID40189464

> <dsstox_compound_id>
DTXCID70111955

> <qc_level>
Public_Medium

> <Canonical_QSARr>
FC(F)(F)C(F)(F)N(C(F)(F)C(F)(F)F)C(F)(F)C(F)(F)F

> <InChI_Code_QSARr>
InChI=1S/C6F15N/c7-1(8,9)4(16,17)22(5(18,19)2(10,11)12)6(20,21)3(13,14)15

> <InChI Key_QSARr>
CBEFDCMSEZEGCX-UHFFFAOYSA-N

> <Salt_Solvent>


> <Salt_Solvent_ID>
0

> <MPID>
98942

> <OH Reference>
INOUE,G (1998); <6E-16

> <OH>
6.000000000000001E-16

> <OH Temperature>
25.0

> <LogOH>
-15.221848749616365

> <Tr_1_Tst_0>
1

$$$$
100396
  Mrv171c012241912032D          

 12 11  0  0  0  0            999 V2000
    0.9030   -0.2910    0.0000 C   0  0  0  0  0  0  0  0  0  0  0  0
    1.6174    0.1215    0.0000 F   0  0  0  0  0  0  0  0  0  0  0  0
    0.1885   -0.7035    0.0000 F   0  0  0  0  0  0  0  0  0  0  0  0
    1.3155   -1.0054    0.0000 C   0  0  0  0  0  0  0  0  0  0  0  0
    1.7280   -1.7199    0.0000 F   0  0  0  0  0  0  0  0  0  0  0  0
    2.0299   -0.5929    0.0000 F   0  0  0  0  0  0  0  0  0  0  0  0
    0.6010   -1.4179    0.0000 F   0  0  0  0  0  0  0  0  0  0  0  0
    0.4905    0.4235    0.0000 C   0  0  0  0  0  0  0  0  0  0  0  0
    1.2049    0.8360    0.0000 F   0  0  0  0  0  0  0  0  0  0  0  0
   -0.2240    0.0110    0.0000 F   0  0  0  0  0  0  0  0  0  0  0  0
    0.0780    1.1380    0.0000 C   0  0  0  0  0  0  0  0  0  0  0  0
   -0.7470    1.1380    0.0000 O   0  0  0  0  0  0  0  0  0  0  0  0
  1  2  1  0  0  0  0
  1  3  1  0  0  0  0
  1  4  1  0  0  0  0
  4  5  1  0  0  0  0
  4  6  1  0  0  0  0
  4  7  1  0  0  0  0
  1  8  1  0  0  0  0
  8  9  1  0  0  0  0
  8 10  1  0  0  0  0
  8 11  1  0  0  0  0
 11 12  1  0  0  0  0
M  END
> <ChemID>
100396

> <CAS>
375-01-9

> <Original_SMILES>
OCC(F)(F)C(F)(F)C(F)(F)F

> <preferred_name>
1-Butanol, 2,2,3,3,4,4,4-heptafluoro-

> <dsstox_substance_id>
DTXSID4059914

> <dsstox_compound_id>
DTXCID6039340

> <qc_level>
Public_High

> <Canonical_QSARr>
OCC(F)(F)C(F)(F)C(F)(F)F

> <InChI_Code_QSARr>
InChI=1S/C4H3F7O/c5-2(6,1-12)3(7,8)4(9,10)11/h12H,1H2

> <InChI Key_QSARr>
WXJFKAZDSQLPBX-UHFFFAOYSA-N

> <Salt_Solvent>


> <Salt_Solvent_ID>
0

> <MPID>
98943

> <OH Reference>
INOUE,G (1998)

> <OH>
1.12E-13

> <OH Temperature>
25.0

> <LogOH>
-12.950781977329822

> <Tr_1_Tst_0>
1

$$$$
100397
  Mrv171c012241912032D          

 12 11  0  0  0  0            999 V2000
    1.2375   -0.7145    0.0000 F   0  0  0  0  0  0  0  0  0  0  0  0
    0.8250   -0.0000    0.0000 C   0  0  0  0  0  0  0  0  0  0  0  0
    1.2375    0.7144    0.0000 C   0  0  0  0  0  0  0  0  0  0  0  0
    1.6500    1.4289    0.0000 C   0  0  0  0  0  0  0  0  0  0  0  0
    2.0625    2.1434    0.0000 C   0  0  0  0  0  0  0  0  0  0  0  0
    1.6500    2.8579    0.0000 F   0  0  0  0  0  0  0  0  0  0  0  0
    2.8875    2.1434    0.0000 F   0  0  0  0  0  0  0  0  0  0  0  0
    2.3645    1.0164    0.0000 F   0  0  0  0  0  0  0  0  0  0  0  0
    0.9355    1.8414    0.0000 F   0  0  0  0  0  0  0  0  0  0  0  0
    1.9520    0.3019    0.0000 F   0  0  0  0  0  0  0  0  0  0  0  0
    0.5230    1.1269    0.0000 F   0  0  0  0  0  0  0  0  0  0  0  0
   -0.0000   -0.0000    0.0000 F   0  0  0  0  0  0  0  0  0  0  0  0
  1  2  1  0  0  0  0
  2  3  1  0  0  0  0
  3  4  1  0  0  0  0
  4  5  1  0  0  0  0
  5  6  1  0  0  0  0
  5  7  1  0  0  0  0
  4  8  1  0  0  0  0
  4  9  1  0  0  0  0
  3 10  1  0  0  0  0
  3 11  1  0  0  0  0
  2 12  1  0  0  0  0
M  END
> <ChemID>
100397

> <CAS>
377-36-6

> <Original_SMILES>
FC(F)(C(F)F)C(F)(F)C(F)F

> <preferred_name>
Butane, 1,1,2,2,3,3,4,4-octafluoro-

> <dsstox_substance_id>
DTXSID0073900

> <dsstox_compound_id>
DTXCID1039391

> <qc_level>
Public_High

> <Canonical_QSARr>
FC(F)(C(F)F)C(F)(F)C(F)F

> <InChI_Code_QSARr>
InChI=1S/C4H2F8/c5-1(6)3(9,10)4(11,12)2(7)8/h1-2H

> <InChI Key_QSARr>
LKLFXAVIFCLZQS-UHFFFAOYSA-N

> <Salt_Solvent>


> <Salt_Solvent_ID>
0

> <MPID>
98944

> <OH Reference>
KWOK,ESC & ATKINSON,R (1995)

> <OH>
4.6E-15

> <OH Temperature>
25.0

> <LogOH>
-14.33724216831841

> <Tr_1_Tst_0>
0

$$$$
100398
  Mrv171c012241912032D          

 12 12  0  0  0  0            999 V2000
    2.1409   -1.2347    0.0000 C   0  0  0  0  0  0  0  0  0  0  0  0
    2.8554   -0.8222    0.0000 F   0  0  0  0  0  0  0  0  0  0  0  0
    1.4265   -0.8222    0.0000 C   0  0  0  0  0  0  0  0  0  0  0  0
    1.4265    0.0028    0.0000 F   0  0  0  0  0  0  0  0  0  0  0  0
    0.7120   -1.2347    0.0000 C   0  0  0  0  0  0  0  0  0  0  0  0
   -0.0025   -0.8222    0.0000 F   0  0  0  0  0  0  0  0  0  0  0  0
    0.7120   -2.0597    0.0000 C   0  0  0  0  0  0  0  0  0  0  0  0
   -0.0025   -2.4722    0.0000 F   0  0  0  0  0  0  0  0  0  0  0  0
    1.4265   -2.4722    0.0000 C   0  0  0  0  0  0  0  0  0  0  0  0
    1.4265   -3.2972    0.0000 F   0  0  0  0  0  0  0  0  0  0  0  0
    2.1409   -2.0597    0.0000 C   0  0  0  0  0  0  0  0  0  0  0  0
    2.8554   -2.4722    0.0000 F   0  0  0  0  0  0  0  0  0  0  0  0
  1  2  1  0  0  0  0
  3  1  2  0  0  0  0
  3  4  1  0  0  0  0
  5  3  1  0  0  0  0
  5  6  1  0  0  0  0
  7  5  2  0  0  0  0
  7  8  1  0  0  0  0
  9  7  1  0  0  0  0
  9 10  1  0  0  0  0
 11  9  2  0  0  0  0
  1 11  1  0  0  0  0
 11 12  1  0  0  0  0
M  END
> <ChemID>
100398

> <CAS>
392-56-3

> <Original_SMILES>
Fc1c(F)c(F)c(F)c(F)c1F

> <preferred_name>
Hexafluorobenzene

> <dsstox_substance_id>
DTXSID5043924

> <dsstox_compound_id>
DTXCID3023924

> <qc_level>
DSSTox_Low

> <Canonical_QSARr>
FC1C(F)=C(F)C(F)=C(F)C=1F

> <InChI_Code_QSARr>
InChI=1S/C6F6/c7-1-2(8)4(10)6(12)5(11)3(1)9

> <InChI Key_QSARr>
ZQBFAOFFOQMSGJ-UHFFFAOYSA-N

> <Salt_Solvent>


> <Salt_Solvent_ID>
0

> <MPID>
98945

> <OH Reference>
KWOK,ESC & ATKINSON,R (1994)

> <OH>
1.71E-13

> <OH Temperature>
25.0

> <LogOH>
-12.767003889607834

> <Tr_1_Tst_0>
1

$$$$
100399
  Mrv171c012241912032D          

  9  8  0  0  0  0            999 V2000
   -0.6039   -0.4583    0.0000 F   0  0  0  0  0  0  0  0  0  0  0  0
    0.1105   -0.0458    0.0000 C   0  0  0  0  0  0  0  0  0  0  0  0
    0.5230   -0.7603    0.0000 F   0  0  0  0  0  0  0  0  0  0  0  0
   -0.3020    0.6686    0.0000 F   0  0  0  0  0  0  0  0  0  0  0  0
    0.8250    0.3667    0.0000 C   0  0  0  0  0  0  0  0  0  0  0  0
    0.8250    1.1917    0.0000 C   0  0  0  0  0  0  0  0  0  0  0  0
    0.8250    2.0167    0.0000 C   0  0  0  0  0  0  0  0  0  0  0  0
    1.6500    1.1917    0.0000 F   0  0  0  0  0  0  0  0  0  0  0  0
   -0.0000    1.1917    0.0000 F   0  0  0  0  0  0  0  0  0  0  0  0
  1  2  1  0  0  0  0
  2  3  1  0  0  0  0
  2  4  1  0  0  0  0
  2  5  1  0  0  0  0
  5  6  1  0  0  0  0
  6  7  1  0  0  0  0
  6  8  1  0  0  0  0
  6  9  1  0  0  0  0
M  END
> <ChemID>
100399

> <CAS>
406-58-6

> <Original_SMILES>
CC(F)(F)CC(F)(F)F

> <preferred_name>
HFC-365mfc

> <dsstox_substance_id>
DTXSID5073901

> <dsstox_compound_id>
DTXCID9039787

> <qc_level>
Public_High

> <Canonical_QSARr>
CC(F)(F)CC(F)(F)F

> <InChI_Code_QSARr>
InChI=1S/C4H5F5/c1-3(5,6)2-4(7,8)9/h2H2,1H3

> <InChI Key_QSARr>
WZLFPVPRZGTCKP-UHFFFAOYSA-N

> <Salt_Solvent>


> <Salt_Solvent_ID>
0

> <MPID>
98946

> <OH Reference>
MELLOUKI,A ET AL. (1995)

> <OH>
8.69E-15

> <OH Temperature>
25.0

> <LogOH>
-14.06098022355134

> <Tr_1_Tst_0>
1

$$$$
100400
  Mrv171c012241912032D          

 12 11  0  0  0  0            999 V2000
    1.0540   -0.0613    0.0000 C   0  0  0  0  0  0  0  0  0  0  0  0
    0.3395    0.3512    0.0000 F   0  0  0  0  0  0  0  0  0  0  0  0
    1.7684   -0.4738    0.0000 F   0  0  0  0  0  0  0  0  0  0  0  0
    1.4665    0.6531    0.0000 O   0  0  0  0  0  0  0  0  0  0  0  0
    1.0540    1.3676    0.0000 C   0  0  0  0  0  0  0  0  0  0  0  0
    1.4665    2.0821    0.0000 C   0  0  0  0  0  0  0  0  0  0  0  0
    1.8790    2.7966    0.0000 F   0  0  0  0  0  0  0  0  0  0  0  0
    0.7520    2.4946    0.0000 F   0  0  0  0  0  0  0  0  0  0  0  0
    2.1809    1.6696    0.0000 F   0  0  0  0  0  0  0  0  0  0  0  0
    0.6415   -0.7758    0.0000 C   0  0  0  0  0  0  0  0  0  0  0  0
    1.0540   -1.4903    0.0000 F   0  0  0  0  0  0  0  0  0  0  0  0
   -0.1835   -0.7758    0.0000 F   0  0  0  0  0  0  0  0  0  0  0  0
  1  2  1  0  0  0  0
  1  3  1  0  0  0  0
  1  4  1  0  0  0  0
  4  5  1  0  0  0  0
  5  6  1  0  0  0  0
  6  7  1  0  0  0  0
  6  8  1  0  0  0  0
  6  9  1  0  0  0  0
  1 10  1  0  0  0  0
 10 11  1  0  0  0  0
 10 12  1  0  0  0  0
M  END
> <ChemID>
100400

> <CAS>
406-78-0

> <Original_SMILES>
FC(F)(F)COC(F)(F)C(F)F

> <preferred_name>
HFE-347pcf2

> <dsstox_substance_id>
DTXSID8074786

> <dsstox_compound_id>
DTXCID4039788

> <qc_level>
Public_High

> <Canonical_QSARr>
FC(F)(F)COC(F)(F)C(F)F

> <InChI_Code_QSARr>
InChI=1S/C4H3F7O/c5-2(6)4(10,11)12-1-3(7,8)9/h2H,1H2

> <InChI Key_QSARr>
CWIFAKBLLXGZIC-UHFFFAOYSA-N

> <Salt_Solvent>


> <Salt_Solvent_ID>
0

> <MPID>
98947

> <OH Reference>
HEATHFIELD,AE ET AL. (1998)

> <OH>
9.4E-14

> <OH Temperature>
25.0

> <LogOH>
-13.026872146400308

> <Tr_1_Tst_0>
1

$$$$
100401
  Mrv171c012241912032D          

 10  9  0  0  0  0            999 V2000
    0.8250    0.0000    0.0000 C   0  0  0  0  0  0  0  0  0  0  0  0
    0.8250   -0.8250    0.0000 C   0  0  0  0  0  0  0  0  0  0  0  0
    0.1105   -1.2375    0.0000 C   0  0  0  0  0  0  0  0  0  0  0  0
    0.1105   -2.0625    0.0000 C   0  0  0  0  0  0  0  0  0  0  0  0
    0.1105   -2.8875    0.0000 F   0  0  0  0  0  0  0  0  0  0  0  0
    0.9355   -2.0625    0.0000 F   0  0  0  0  0  0  0  0  0  0  0  0
   -0.7145   -2.0625    0.0000 F   0  0  0  0  0  0  0  0  0  0  0  0
    0.8250    0.8250    0.0000 F   0  0  0  0  0  0  0  0  0  0  0  0
    1.6500   -0.0000    0.0000 F   0  0  0  0  0  0  0  0  0  0  0  0
   -0.0000    0.0000    0.0000 F   0  0  0  0  0  0  0  0  0  0  0  0
  1  2  1  0  0  0  0
  2  3  1  0  0  0  0
  3  4  1  0  0  0  0
  4  5  1  0  0  0  0
  4  6  1  0  0  0  0
  4  7  1  0  0  0  0
  1  8  1  0  0  0  0
  1  9  1  0  0  0  0
  1 10  1  0  0  0  0
M  END
> <ChemID>
100401

> <CAS>
407-59-0

> <Original_SMILES>
FC(F)(F)CCC(F)(F)F

> <preferred_name>
Butane, 1,1,1,4,4,4-hexafluoro-

> <dsstox_substance_id>
DTXSID8074942

> <dsstox_compound_id>
DTXCID0039801

> <qc_level>
Public_High

> <Canonical_QSARr>
FC(F)(F)CCC(F)(F)F

> <InChI_Code_QSARr>
InChI=1S/C4H4F6/c5-3(6,7)1-2-4(8,9)10/h1-2H2

> <InChI Key_QSARr>
CXIGIYYQHHRBJC-UHFFFAOYSA-N

> <Salt_Solvent>


> <Salt_Solvent_ID>
0

> <MPID>
98948

> <OH Reference>
ZHANG,Z ET AL. (1994)

> <OH>
8.75E-15

> <OH Temperature>
25.0

> <LogOH>
-14.057991946977703

> <Tr_1_Tst_0>
0

$$$$
100402
  Mrv171c012241912032D          

  5  4  0  0  0  0            999 V2000
    0.8250   -0.8250    0.0000 C   0  0  0  0  0  0  0  0  0  0  0  0
    0.8250   -1.6500    0.0000 F   0  0  0  0  0  0  0  0  0  0  0  0
    0.8250    0.0000    0.0000 F   0  0  0  0  0  0  0  0  0  0  0  0
    1.6500   -0.8250    0.0000 F   0  0  0  0  0  0  0  0  0  0  0  0
    0.0000   -0.8250    0.0000 C   0  0  0  0  0  0  0  0  0  0  0  0
  1  2  1  0  0  0  0
  1  3  1  0  0  0  0
  1  4  1  0  0  0  0
  1  5  1  0  0  0  0
M  END
> <ChemID>
100402

> <CAS>
420-46-2

> <Original_SMILES>
CC(F)(F)F

> <preferred_name>
1,1,1-trifluoroethane

> <dsstox_substance_id>
DTXSID9042047

> <dsstox_compound_id>
DTXCID7022047

> <qc_level>
DSSTox_Low

> <Canonical_QSARr>
CC(F)(F)F

> <InChI_Code_QSARr>
InChI=1S/C2H3F3/c1-2(3,4)5/h1H3

> <InChI Key_QSARr>
UJPMYEOUBPIPHQ-UHFFFAOYSA-N

> <Salt_Solvent>


> <Salt_Solvent_ID>
0

> <MPID>
98949

> <OH Reference>
ATKINSON,R (1989)

> <OH>
1.7E-15

> <OH Temperature>
25.0

> <LogOH>
-14.769551078621719

> <Tr_1_Tst_0>
1

$$$$
100403
  Mrv171c012241912032D          

  6  5  0  0  0  0            999 V2000
    0.9122   -0.3253    0.0000 C   0  0  0  0  0  0  0  0  0  0  0  0
    1.3247   -1.0398    0.0000 F   0  0  0  0  0  0  0  0  0  0  0  0
    1.6266    0.0872    0.0000 F   0  0  0  0  0  0  0  0  0  0  0  0
    0.1977   -0.7378    0.0000 F   0  0  0  0  0  0  0  0  0  0  0  0
    0.4997    0.3891    0.0000 C   0  0  0  0  0  0  0  0  0  0  0  0
   -0.3253    0.3891    0.0000 Br  0  0  0  0  0  0  0  0  0  0  0  0
  1  2  1  0  0  0  0
  1  3  1  0  0  0  0
  1  4  1  0  0  0  0
  1  5  1  0  0  0  0
  5  6  1  0  0  0  0
M  END
> <ChemID>
100403

> <CAS>
421-06-7

> <Original_SMILES>
FC(F)(F)CBr

> <preferred_name>
Bromotrifluoroethane

> <dsstox_substance_id>
DTXSID2074324

> <dsstox_compound_id>
DTXCID6038162

> <qc_level>
Public_High

> <Canonical_QSARr>
FC(F)(F)CBr

> <InChI_Code_QSARr>
InChI=1S/C2H2BrF3/c3-1-2(4,5)6/h1H2

> <InChI Key_QSARr>
TZNJHEHAYZJBHR-UHFFFAOYSA-N

> <Salt_Solvent>


> <Salt_Solvent_ID>
0

> <MPID>
98950

> <OH Reference>
ORKIN,VL & KHAMAGANOV,VG (1993)

> <OH>
2.05E-14

> <OH Temperature>
25.0

> <LogOH>
-13.688246138944235

> <Tr_1_Tst_0>
1

$$$$
100404
  Mrv171c012241912032D          

  6  5  0  0  0  0            999 V2000
    1.1503   -0.3891    0.0000 C   0  0  0  0  0  0  0  0  0  0  0  0
    1.1503   -1.2141    0.0000 O   0  0  0  0  0  0  0  0  0  0  0  0
    0.4358   -1.6266    0.0000 C   0  0  0  0  0  0  0  0  0  0  0  0
    1.1503    0.4359    0.0000 F   0  0  0  0  0  0  0  0  0  0  0  0
    1.9753   -0.3891    0.0000 F   0  0  0  0  0  0  0  0  0  0  0  0
    0.3253   -0.3891    0.0000 F   0  0  0  0  0  0  0  0  0  0  0  0
  1  2  1  0  0  0  0
  2  3  1  0  0  0  0
  1  4  1  0  0  0  0
  1  5  1  0  0  0  0
  1  6  1  0  0  0  0
M  END
> <ChemID>
100404

> <CAS>
421-14-7

> <Original_SMILES>
COC(F)(F)F

> <preferred_name>
Methane, trifluoromethoxy-

> <dsstox_substance_id>
DTXSID5073903

> <dsstox_compound_id>
DTXCID7040029

> <qc_level>
Public_High

> <Canonical_QSARr>
COC(F)(F)F

> <InChI_Code_QSARr>
InChI=1S/C2H3F3O/c1-6-2(3,4)5/h1H3

> <InChI Key_QSARr>
JRHMNRMPVRXNOS-UHFFFAOYSA-N

> <Salt_Solvent>


> <Salt_Solvent_ID>
0

> <MPID>
98951

> <OH Reference>
KWOK,ESC & ATKINSON,R (1994)

> <OH>
2.14E-14

> <OH Temperature>
25.0

> <LogOH>
-13.669586226650816

> <Tr_1_Tst_0>
1

$$$$
100405
  Mrv171c012241912032D          

  7  6  0  0  0  0            999 V2000
    1.0018   -0.0474    0.0000 C   0  0  0  0  0  0  0  0  0  0  0  0
    1.4143    0.6671    0.0000 F   0  0  0  0  0  0  0  0  0  0  0  0
    0.2873    0.3651    0.0000 F   0  0  0  0  0  0  0  0  0  0  0  0
    1.7163   -0.4599    0.0000 F   0  0  0  0  0  0  0  0  0  0  0  0
    0.5893   -0.7618    0.0000 C   0  0  0  0  0  0  0  0  0  0  0  0
    1.0018   -1.4763    0.0000 O   0  0  0  0  0  0  0  0  0  0  0  0
   -0.2357   -0.7618    0.0000 C   0  0  0  0  0  0  0  0  0  0  0  0
  1  2  1  0  0  0  0
  1  3  1  0  0  0  0
  1  4  1  0  0  0  0
  1  5  1  0  0  0  0
  5  6  2  0  0  0  0
  5  7  1  0  0  0  0
M  END
> <ChemID>
100405

> <CAS>
421-50-1

> <Original_SMILES>
CC(=O)C(F)(F)F

> <preferred_name>
2-Propanone, 1,1,1-trifluoro-

> <dsstox_substance_id>
DTXSID9059963

> <dsstox_compound_id>
DTXCID6040032

> <qc_level>
Public_High

> <Canonical_QSARr>
CC(=O)C(F)(F)F

> <InChI_Code_QSARr>
InChI=1S/C3H3F3O/c1-2(7)3(4,5)6/h1H3

> <InChI Key_QSARr>
FHUDAMLDXFJHJE-UHFFFAOYSA-N

> <Salt_Solvent>


> <Salt_Solvent_ID>
0

> <MPID>
98952

> <OH Reference>
ATKINSON,R (1989)

> <OH>
1.509999999999999E-14

> <OH Temperature>
25.0

> <LogOH>
-13.821023052706826

> <Tr_1_Tst_0>
0

$$$$
100406
  Mrv171c012241912032D          

  9  8  0  0  0  0            999 V2000
    0.8250   -0.4583    0.0000 C   0  0  0  0  0  0  0  0  0  0  0  0
    1.6500   -0.4583    0.0000 F   0  0  0  0  0  0  0  0  0  0  0  0
   -0.0000   -0.4583    0.0000 F   0  0  0  0  0  0  0  0  0  0  0  0
    0.8250   -1.2833    0.0000 C   0  0  0  0  0  0  0  0  0  0  0  0
    0.1105   -1.6958    0.0000 O   0  0  0  0  0  0  0  0  0  0  0  0
    0.8250    0.3667    0.0000 C   0  0  0  0  0  0  0  0  0  0  0  0
    0.8250    1.1917    0.0000 F   0  0  0  0  0  0  0  0  0  0  0  0
    1.6500    0.3667    0.0000 F   0  0  0  0  0  0  0  0  0  0  0  0
   -0.0000    0.3667    0.0000 F   0  0  0  0  0  0  0  0  0  0  0  0
  1  2  1  0  0  0  0
  1  3  1  0  0  0  0
  1  4  1  0  0  0  0
  4  5  1  0  0  0  0
  1  6  1  0  0  0  0
  6  7  1  0  0  0  0
  6  8  1  0  0  0  0
  6  9  1  0  0  0  0
M  END
> <ChemID>
100406

> <CAS>
422-05-9

> <Original_SMILES>
OCC(F)(F)C(F)(F)F

> <preferred_name>
1-Propanol, 2,2,3,3,3-pentafluoro-

> <dsstox_substance_id>
DTXSID4059966

> <dsstox_compound_id>
DTXCID4040050

> <qc_level>
Public_High

> <Canonical_QSARr>
OCC(F)(F)C(F)(F)F

> <InChI_Code_QSARr>
InChI=1S/C3H3F5O/c4-2(5,1-9)3(6,7)8/h9H,1H2

> <InChI Key_QSARr>
PSQZJKGXDGNDFP-UHFFFAOYSA-N

> <Salt_Solvent>


> <Salt_Solvent_ID>
0

> <MPID>
98953

> <OH Reference>
INOUE,G (1998)

> <OH>
9.289999999999998E-14

> <OH Temperature>
25.0

> <LogOH>
-13.03198428600636

> <Tr_1_Tst_0>
1

$$$$
100407
  Mrv171c012241912032D          

 10  9  0  0  0  0            999 V2000
    1.9405   -0.1817    0.0000 C   0  0  0  0  0  0  0  0  0  0  0  0
    2.3530    0.5328    0.0000 F   0  0  0  0  0  0  0  0  0  0  0  0
    1.2260    0.2308    0.0000 F   0  0  0  0  0  0  0  0  0  0  0  0
    2.6550   -0.5942    0.0000 F   0  0  0  0  0  0  0  0  0  0  0  0
    1.5280   -0.8962    0.0000 C   0  0  0  0  0  0  0  0  0  0  0  0
    0.8135   -0.4837    0.0000 F   0  0  0  0  0  0  0  0  0  0  0  0
    2.2425   -1.3087    0.0000 F   0  0  0  0  0  0  0  0  0  0  0  0
    1.1155   -1.6106    0.0000 C   0  0  0  0  0  0  0  0  0  0  0  0
    1.5280   -2.3251    0.0000 Cl  0  0  0  0  0  0  0  0  0  0  0  0
    0.2905   -1.6106    0.0000 Cl  0  0  0  0  0  0  0  0  0  0  0  0
  1  2  1  0  0  0  0
  1  3  1  0  0  0  0
  1  4  1  0  0  0  0
  1  5  1  0  0  0  0
  5  6  1  0  0  0  0
  5  7  1  0  0  0  0
  5  8  1  0  0  0  0
  8  9  1  0  0  0  0
  8 10  1  0  0  0  0
M  END
> <ChemID>
100407

> <CAS>
422-56-0

> <Original_SMILES>
FC(F)(F)C(F)(F)C(Cl)Cl

> <preferred_name>
3,3-dichloro-1,1,1,2,2-pentafluoropropane

> <dsstox_substance_id>
DTXSID1042027

> <dsstox_compound_id>
DTXCID9022027

> <qc_level>
DSSTox_Low

> <Canonical_QSARr>
FC(F)(F)C(F)(F)C(Cl)Cl

> <InChI_Code_QSARr>
InChI=1S/C3HCl2F5/c4-1(5)2(6,7)3(8,9)10/h1H

> <InChI Key_QSARr>
COAUHYBSXMIJDK-UHFFFAOYSA-N

> <Salt_Solvent>


> <Salt_Solvent_ID>
0

> <MPID>
98954

> <OH Reference>
ATKINSON,R (1994)

> <OH>
2.5E-14

> <OH Temperature>
25.0

> <LogOH>
-13.602059991327968

> <Tr_1_Tst_0>
1

$$$$
100408
  Mrv171c012241912032D          

 10 10  0  0  0  0            999 V2000
    0.7385    0.6939    0.0000 C   0  0  0  0  0  0  0  0  0  0  0  0
    1.3219    1.2772    0.0000 F   0  0  0  0  0  0  0  0  0  0  0  0
    1.3219    0.1105    0.0000 F   0  0  0  0  0  0  0  0  0  0  0  0
    0.1551    1.2772    0.0000 C   0  0  0  0  0  0  0  0  0  0  0  0
    0.7385    1.8606    0.0000 F   0  0  0  0  0  0  0  0  0  0  0  0
   -0.4282    1.8606    0.0000 F   0  0  0  0  0  0  0  0  0  0  0  0
   -0.4282    0.6939    0.0000 O   0  0  0  0  0  0  0  0  0  0  0  0
    0.1551    0.1105    0.0000 C   0  0  0  0  0  0  0  0  0  0  0  0
   -0.2759   -0.5929    0.0000 F   0  0  0  0  0  0  0  0  0  0  0  0
    0.5862   -0.5929    0.0000 F   0  0  0  0  0  0  0  0  0  0  0  0
  1  2  1  0  0  0  0
  1  3  1  0  0  0  0
  4  1  1  0  0  0  0
  4  5  1  0  0  0  0
  4  6  1  0  0  0  0
  7  4  1  0  0  0  0
  8  7  1  0  0  0  0
  1  8  1  0  0  0  0
  8  9  1  0  0  0  0
  8 10  1  0  0  0  0
M  END
> <ChemID>
100408

> <CAS>
425-82-1

> <Original_SMILES>
FC1(F)C(F)(F)OC1(F)F

> <preferred_name>
Oxetane, hexafluoro-

> <dsstox_substance_id>
DTXSID5073907

> <dsstox_compound_id>
DTXCID5040124

> <qc_level>
Public_High

> <Canonical_QSARr>
FC1(F)C(F)(F)OC1(F)F

> <InChI_Code_QSARr>
InChI=1S/C3F6O/c4-1(5)2(6,7)10-3(1,8)9

> <InChI Key_QSARr>
ILIKFPWSIPNAPS-UHFFFAOYSA-N

> <Salt_Solvent>


> <Salt_Solvent_ID>
0

> <MPID>
98955

> <OH Reference>
AOP Database ; <2E-16

> <OH>
2.0E-16

> <OH Temperature>
25.0

> <LogOH>
-15.698970004336024

> <Tr_1_Tst_0>
1

$$$$
100410
  Mrv171c012241912032D          

  8  7  0  0  0  0            999 V2000
    3.9040   -0.2615    0.0000 F   0  0  0  0  0  0  0  0  0  0  0  0
    3.0790   -0.2615    0.0000 C   0  0  0  0  0  0  0  0  0  0  0  0
    3.0790    0.5635    0.0000 C   0  0  0  0  0  0  0  0  0  0  0  0
    2.3645    0.9760    0.0000 F   0  0  0  0  0  0  0  0  0  0  0  0
    3.7934    0.9760    0.0000 F   0  0  0  0  0  0  0  0  0  0  0  0
    3.0790   -1.0865    0.0000 O   0  0  0  0  0  0  0  0  0  0  0  0
    3.7934   -1.4990    0.0000 C   0  0  0  0  0  0  0  0  0  0  0  0
    2.2540   -0.2615    0.0000 F   0  0  0  0  0  0  0  0  0  0  0  0
  1  2  1  0  0  0  0
  2  3  1  0  0  0  0
  3  4  1  0  0  0  0
  3  5  1  0  0  0  0
  2  6  1  0  0  0  0
  6  7  1  0  0  0  0
  2  8  1  0  0  0  0
M  END
> <ChemID>
100410

> <CAS>
425-88-7

> <Original_SMILES>
COC(F)(F)C(F)F

> <preferred_name>
1,1,2,2-Tetrafluoro-1-methoxyethane

> <dsstox_substance_id>
DTXSID40195282

> <dsstox_compound_id>
DTXCID50117773

> <qc_level>
Public_Medium

> <Canonical_QSARr>
COC(F)(F)C(F)F

> <InChI_Code_QSARr>
InChI=1S/C3H4F4O/c1-8-3(6,7)2(4)5/h2H,1H3

> <InChI Key_QSARr>
YQQHEHMVPLLOKE-UHFFFAOYSA-N

> <Salt_Solvent>


> <Salt_Solvent_ID>
0

> <MPID>
98956

> <OH Reference>
HEATHFIELD,AE ET AL. (1998)

> <OH>
2.0E-13

> <OH Temperature>
25.0

> <LogOH>
-12.698970004335997

> <Tr_1_Tst_0>
0

$$$$
100411
  Mrv171c012241912032D          

  5  4  0  0  0  0            999 V2000
    1.0725    0.1429    0.0000 C   0  0  0  0  0  0  0  0  0  0  0  0
    1.8975    0.1429    0.0000 F   0  0  0  0  0  0  0  0  0  0  0  0
    0.6600   -0.5716    0.0000 F   0  0  0  0  0  0  0  0  0  0  0  0
    0.6600    0.8574    0.0000 C   0  0  0  0  0  0  0  0  0  0  0  0
   -0.1650    0.8574    0.0000 F   0  0  0  0  0  0  0  0  0  0  0  0
  1  2  1  0  0  0  0
  1  3  1  0  0  0  0
  1  4  1  0  0  0  0
  4  5  1  0  0  0  0
M  END
> <ChemID>
100411

> <CAS>
430-66-0

> <Original_SMILES>
FCC(F)F

> <preferred_name>
HFC-143

> <dsstox_substance_id>
DTXSID8073182

> <dsstox_compound_id>
DTXCID5040205

> <qc_level>
Public_High

> <Canonical_QSARr>
FCC(F)F

> <InChI_Code_QSARr>
InChI=1S/C2H3F3/c3-1-2(4)5/h2H,1H2

> <InChI Key_QSARr>
WGZYQOSEVSXDNI-UHFFFAOYSA-N

> <Salt_Solvent>


> <Salt_Solvent_ID>
0

> <MPID>
98957

> <OH Reference>
KWOK,ESC & ATKINSON,R (1994)

> <OH>
1.83E-14

> <OH Temperature>
25.0

> <LogOH>
-13.737548910269565

> <Tr_1_Tst_0>
1

$$$$
100412
  Mrv171c012241912032D          

  5  4  0  0  0  0            999 V2000
    0.7050   -0.5160    0.0000 C   0  0  0  0  0  0  0  0  0  0  0  0
    1.1175   -1.2305    0.0000 C   0  0  0  0  0  0  0  0  0  0  0  0
    1.9425   -1.2305    0.0000 F   0  0  0  0  0  0  0  0  0  0  0  0
    0.7050   -1.9449    0.0000 F   0  0  0  0  0  0  0  0  0  0  0  0
   -0.1200   -0.5160    0.0000 O   0  0  0  0  0  0  0  0  0  0  0  0
  1  2  1  0  0  0  0
  2  3  1  0  0  0  0
  2  4  1  0  0  0  0
  1  5  2  0  0  0  0
M  END
> <ChemID>
100412

> <CAS>
430-69-3

> <Original_SMILES>
O=CC(F)F

> <preferred_name>


> <dsstox_substance_id>
DTXSID80878683

> <dsstox_compound_id>
DTXCID001016725

> <qc_level>


> <Canonical_QSARr>
O=CC(F)F

> <InChI_Code_QSARr>
InChI=1S/C2H2F2O/c3-2(4)1-5/h1-2H

> <InChI Key_QSARr>
DKNMRIXYSHIIGC-UHFFFAOYSA-N

> <Salt_Solvent>


> <Salt_Solvent_ID>
0

> <MPID>
98958

> <OH Reference>
SCOLLARD,DJ ET AL. (1993)

> <OH>
1.55E-12

> <OH Temperature>
25.0

> <LogOH>
-11.80966830182971

> <Tr_1_Tst_0>
1

$$$$
100413
  Mrv171c012241912032D          

  6  5  0  0  0  0            999 V2000
    0.8260   -0.0013    0.0000 C   0  0  0  0  0  0  0  0  0  0  0  0
    1.2385   -0.7158    0.0000 C   0  0  0  0  0  0  0  0  0  0  0  0
    2.0635   -0.7158    0.0000 O   0  0  0  0  0  0  0  0  0  0  0  0
    0.8260   -1.4303    0.0000 C   0  0  0  0  0  0  0  0  0  0  0  0
    1.2385   -2.1448    0.0000 O   0  0  0  0  0  0  0  0  0  0  0  0
    0.0010   -1.4303    0.0000 C   0  0  0  0  0  0  0  0  0  0  0  0
  1  2  1  0  0  0  0
  2  3  2  0  0  0  0
  2  4  1  0  0  0  0
  4  5  2  0  0  0  0
  4  6  1  0  0  0  0
M  END
> <ChemID>
100413

> <CAS>
431-03-8

> <Original_SMILES>
CC(=O)C(C)=O

> <preferred_name>
2,3-Butanedione

> <dsstox_substance_id>
DTXSID6021583

> <dsstox_compound_id>
DTXCID701583

> <qc_level>
DSSTox_Low

> <Canonical_QSARr>
CC(=O)C(C)=O

> <InChI_Code_QSARr>
InChI=1S/C4H6O2/c1-3(5)4(2)6/h1-2H3

> <InChI Key_QSARr>
QSJXEFYPDANLFS-UHFFFAOYSA-N

> <Salt_Solvent>


> <Salt_Solvent_ID>
0

> <MPID>
98959

> <OH Reference>
ATKINSON,R (1989)

> <OH>
2.38E-13

> <OH Temperature>
25.0

> <LogOH>
-12.623423042943482

> <Tr_1_Tst_0>
1

$$$$
100414
  Mrv171c012241912032D          

  8  7  0  0  0  0            999 V2000
    1.3029   -0.6565    0.0000 C   0  0  0  0  0  0  0  0  0  0  0  0
    2.1279   -0.6565    0.0000 F   0  0  0  0  0  0  0  0  0  0  0  0
    1.3029    0.1685    0.0000 F   0  0  0  0  0  0  0  0  0  0  0  0
    1.3029   -1.4815    0.0000 F   0  0  0  0  0  0  0  0  0  0  0  0
    0.4779   -0.6565    0.0000 C   0  0  0  0  0  0  0  0  0  0  0  0
    0.0654   -1.3710    0.0000 O   0  0  0  0  0  0  0  0  0  0  0  0
    0.0654    0.0580    0.0000 O   0  0  0  0  0  0  0  0  0  0  0  0
   -0.7596    0.0580    0.0000 C   0  0  0  0  0  0  0  0  0  0  0  0
  1  2  1  0  0  0  0
  1  3  1  0  0  0  0
  1  4  1  0  0  0  0
  1  5  1  0  0  0  0
  5  6  2  0  0  0  0
  5  7  1  0  0  0  0
  7  8  1  0  0  0  0
M  END
> <ChemID>
100414

> <CAS>
431-47-0

> <Original_SMILES>
COC(=O)C(F)(F)F

> <preferred_name>
Acetic acid, trifluoro-, methyl ester

> <dsstox_substance_id>
DTXSID2059988

> <dsstox_compound_id>
DTXCID3040225

> <qc_level>
Public_High

> <Canonical_QSARr>
COC(=O)C(F)(F)F

> <InChI_Code_QSARr>
InChI=1S/C3H3F3O2/c1-8-2(7)3(4,5)6/h1H3

> <InChI Key_QSARr>
VMVNZNXAVJHNDJ-UHFFFAOYSA-N

> <Salt_Solvent>


> <Salt_Solvent_ID>
0

> <MPID>
98960

> <OH Reference>
KWOK,ESC & ATKINSON,R (1994)

> <OH>
5.2E-14

> <OH Temperature>
25.0

> <LogOH>
-13.283996656365218

> <Tr_1_Tst_0>
0

$$$$
100416
  Mrv171c012241912032D          

 10  9  0  0  0  0            999 V2000
    1.0003   -1.3751    0.0000 C   0  0  0  0  0  0  0  0  0  0  0  0
    0.2859   -1.7876    0.0000 F   0  0  0  0  0  0  0  0  0  0  0  0
    1.4128   -2.0896    0.0000 F   0  0  0  0  0  0  0  0  0  0  0  0
    0.5878   -0.6606    0.0000 F   0  0  0  0  0  0  0  0  0  0  0  0
    1.7148   -0.9626    0.0000 C   0  0  0  0  0  0  0  0  0  0  0  0
    2.4293   -1.3751    0.0000 F   0  0  0  0  0  0  0  0  0  0  0  0
    1.7148   -0.1376    0.0000 C   0  0  0  0  0  0  0  0  0  0  0  0
    1.7148    0.6874    0.0000 F   0  0  0  0  0  0  0  0  0  0  0  0
    2.5398   -0.1376    0.0000 F   0  0  0  0  0  0  0  0  0  0  0  0
    0.8898   -0.1376    0.0000 F   0  0  0  0  0  0  0  0  0  0  0  0
  1  2  1  0  0  0  0
  1  3  1  0  0  0  0
  1  4  1  0  0  0  0
  1  5  1  0  0  0  0
  5  6  1  0  0  0  0
  5  7  1  0  0  0  0
  7  8  1  0  0  0  0
  7  9  1  0  0  0  0
  7 10  1  0  0  0  0
M  END
> <ChemID>
100416

> <CAS>
431-89-0

> <Original_SMILES>
FC(C(F)(F)F)C(F)(F)F

> <preferred_name>
1,1,1,2,3,3,3-heptafluoropropane

> <dsstox_substance_id>
DTXSID4042048

> <dsstox_compound_id>
DTXCID2022048

> <qc_level>
DSSTox_Low

> <Canonical_QSARr>
FC(C(F)(F)F)C(F)(F)F

> <InChI_Code_QSARr>
InChI=1S/C3HF7/c4-1(2(5,6)7)3(8,9)10/h1H

> <InChI Key_QSARr>
YFMFNYKEUDLDTL-UHFFFAOYSA-N

> <Salt_Solvent>


> <Salt_Solvent_ID>
0

> <MPID>
98961

> <OH Reference>
ZHANG,Z ET AL. (1994)

> <OH>
1.62E-15

> <OH Temperature>
25.0

> <LogOH>
-14.790484985457372

> <Tr_1_Tst_0>
1

$$$$
100417
  Mrv171c012241912032D          

  9  9  0  0  0  0            999 V2000
    2.5410   -1.6499    0.0000 O   0  0  0  0  0  0  0  0  0  0  0  0
    1.8265   -1.2374    0.0000 C   0  0  0  0  0  0  0  0  0  0  0  0
    1.8265   -0.4124    0.0000 C   0  0  0  0  0  0  0  0  0  0  0  0
    1.1121    0.0001    0.0000 C   0  0  0  0  0  0  0  0  0  0  0  0
    1.1121    0.8251    0.0000 C   0  0  0  0  0  0  0  0  0  0  0  0
    0.3976   -0.4124    0.0000 C   0  0  0  0  0  0  0  0  0  0  0  0
    0.3976   -1.2374    0.0000 C   0  0  0  0  0  0  0  0  0  0  0  0
    1.1121   -1.6499    0.0000 C   0  0  0  0  0  0  0  0  0  0  0  0
    1.1121   -2.4749    0.0000 O   0  0  0  0  0  0  0  0  0  0  0  0
  1  2  1  0  0  0  0
  3  2  1  0  0  0  0
  4  3  2  0  0  0  0
  4  5  1  0  0  0  0
  6  4  1  0  0  0  0
  7  6  2  0  0  0  0
  8  7  1  0  0  0  0
  2  8  2  0  0  0  0
  8  9  1  0  0  0  0
M  END
> <ChemID>
100417

> <CAS>
452-86-8

> <Original_SMILES>
Cc1cc(O)c(O)cc1

> <preferred_name>
4-Methylcatechol

> <dsstox_substance_id>
DTXSID5020861

> <dsstox_compound_id>
DTXCID30861

> <qc_level>
DSSTox_Low

> <Canonical_QSARr>
CC1=CC(O)=C(O)C=C1

> <InChI_Code_QSARr>
InChI=1S/C7H8O2/c1-5-2-3-6(8)7(9)4-5/h2-4,8-9H,1H3

> <InChI Key_QSARr>
ZBCATMYQYDCTIZ-UHFFFAOYSA-N

> <Salt_Solvent>


> <Salt_Solvent_ID>
0

> <MPID>
98962

> <OH Reference>
OLARIU,RI ET AL. (2000)

> <OH>
1.56E-10

> <OH Temperature>
27.0

> <LogOH>
-9.806875401645533

> <Tr_1_Tst_0>
1

$$$$
100418
  Mrv171c012241912032D          

  4  3  0  0  0  0            999 V2000
    0.8250    0.0000    0.0000 C   0  0  0  0  0  0  0  0  0  0  0  0
    1.6500    0.0000    0.0000 C   0  0  0  0  0  0  0  0  0  0  0  0
    2.4750   -0.0000    0.0000 C   0  0  0  0  0  0  0  0  0  0  0  0
    0.0000    0.0000    0.0000 C   0  0  0  0  0  0  0  0  0  0  0  0
  1  2  1  0  0  0  0
  2  3  3  0  0  0  0
  1  4  3  0  0  0  0
M  END
> <ChemID>
100418

> <CAS>
460-12-8

> <Original_SMILES>
C#CC#C

> <preferred_name>
1,3-Butadiyne

> <dsstox_substance_id>
DTXSID8060036

> <dsstox_compound_id>
DTXCID0040462

> <qc_level>
Public_High

> <Canonical_QSARr>
C#CC#C

> <InChI_Code_QSARr>
InChI=1S/C4H2/c1-3-4-2/h1-2H

> <InChI Key_QSARr>
LLCSWKVOHICRDD-UHFFFAOYSA-N

> <Salt_Solvent>


> <Salt_Solvent_ID>
0

> <MPID>
98963

> <OH Reference>
ATKINSON,R (1989)

> <OH>
1.89E-11

> <OH Temperature>
25.0

> <LogOH>
-10.723538195826775

> <Tr_1_Tst_0>
1

$$$$
100419
  Mrv171c012241912032D          

  7  6  0  0  0  0            999 V2000
    1.7952   -0.0389    0.0000 C   0  0  0  0  0  0  0  0  0  0  0  0
    1.7952   -0.8639    0.0000 C   0  0  0  0  0  0  0  0  0  0  0  0
    1.0807   -1.2764    0.0000 O   0  0  0  0  0  0  0  0  0  0  0  0
    1.0807   -2.1014    0.0000 C   0  0  0  0  0  0  0  0  0  0  0  0
    1.7952    0.7861    0.0000 F   0  0  0  0  0  0  0  0  0  0  0  0
    2.6202   -0.0389    0.0000 F   0  0  0  0  0  0  0  0  0  0  0  0
    0.9702   -0.0389    0.0000 F   0  0  0  0  0  0  0  0  0  0  0  0
  1  2  1  0  0  0  0
  2  3  1  0  0  0  0
  3  4  1  0  0  0  0
  1  5  1  0  0  0  0
  1  6  1  0  0  0  0
  1  7  1  0  0  0  0
M  END
> <ChemID>
100419

> <CAS>
460-43-5

> <Original_SMILES>
COCC(F)(F)F

> <preferred_name>
Ethane, 1,1,1-trifluoro-2-methoxy-

> <dsstox_substance_id>
DTXSID9074569

> <dsstox_compound_id>
DTXCID0040466

> <qc_level>
Public_High

> <Canonical_QSARr>
COCC(F)(F)F

> <InChI_Code_QSARr>
InChI=1S/C3H5F3O/c1-7-2-3(4,5)6/h2H2,1H3

> <InChI Key_QSARr>
OHLVGBXMHDWRRX-UHFFFAOYSA-N

> <Salt_Solvent>


> <Salt_Solvent_ID>
0

> <MPID>
98964

> <OH Reference>
KWOK,ESC & ATKINSON,R (1994)

> <OH>
6.24E-13

> <OH Temperature>
25.0

> <LogOH>
-12.204815410317593

> <Tr_1_Tst_0>
0

$$$$
100420
  Mrv171c012241912032D          

  8  7  0  0  0  0            999 V2000
    1.1645   -1.4964    0.0000 C   0  0  0  0  0  0  0  0  0  0  0  0
    1.1645   -2.3214    0.0000 F   0  0  0  0  0  0  0  0  0  0  0  0
    0.4501   -1.0839    0.0000 F   0  0  0  0  0  0  0  0  0  0  0  0
    1.8790   -1.0839    0.0000 C   0  0  0  0  0  0  0  0  0  0  0  0
    1.8790   -0.2589    0.0000 C   0  0  0  0  0  0  0  0  0  0  0  0
    1.8790    0.5661    0.0000 F   0  0  0  0  0  0  0  0  0  0  0  0
    2.7040   -0.2589    0.0000 F   0  0  0  0  0  0  0  0  0  0  0  0
    1.0540   -0.2589    0.0000 F   0  0  0  0  0  0  0  0  0  0  0  0
  1  2  1  0  0  0  0
  1  3  1  0  0  0  0
  1  4  1  0  0  0  0
  4  5  1  0  0  0  0
  5  6  1  0  0  0  0
  5  7  1  0  0  0  0
  5  8  1  0  0  0  0
M  END
> <ChemID>
100420

> <CAS>
460-73-1

> <Original_SMILES>
FC(F)CC(F)(F)F

> <preferred_name>
1,1,1,3,3-Pentafluoropropane

> <dsstox_substance_id>
DTXSID6052110

> <dsstox_compound_id>
DTXCID4030679

> <qc_level>
DSSTox_Low

> <Canonical_QSARr>
FC(F)CC(F)(F)F

> <InChI_Code_QSARr>
InChI=1S/C3H3F5/c4-2(5)1-3(6,7)8/h2H,1H2

> <InChI Key_QSARr>
MSSNHSVIGIHOJA-UHFFFAOYSA-N

> <Salt_Solvent>


> <Salt_Solvent_ID>
0

> <MPID>
98965

> <OH Reference>
ORKIN,VL ET AL. (1996)

> <OH>
7.280000000000002E-15

> <OH Temperature>
25.0

> <LogOH>
-14.137868620686964

> <Tr_1_Tst_0>
1

$$$$
100421
  Mrv171c012241912032D          

  7  7  0  0  0  0            999 V2000
    1.4153    0.7000    0.0000 F   0  0  0  0  0  0  0  0  0  0  0  0
    1.4153   -0.1250    0.0000 C   0  0  0  0  0  0  0  0  0  0  0  0
    0.7009   -0.5375    0.0000 C   0  0  0  0  0  0  0  0  0  0  0  0
    0.7009   -1.3625    0.0000 C   0  0  0  0  0  0  0  0  0  0  0  0
    1.4153   -1.7750    0.0000 C   0  0  0  0  0  0  0  0  0  0  0  0
    2.1298   -1.3625    0.0000 C   0  0  0  0  0  0  0  0  0  0  0  0
    2.1298   -0.5375    0.0000 C   0  0  0  0  0  0  0  0  0  0  0  0
  1  2  1  0  0  0  0
  3  2  1  0  0  0  0
  4  3  2  0  0  0  0
  5  4  1  0  0  0  0
  6  5  2  0  0  0  0
  7  6  1  0  0  0  0
  2  7  2  0  0  0  0
M  END
> <ChemID>
100421

> <CAS>
462-06-6

> <Original_SMILES>
Fc1ccccc1

> <preferred_name>
Fluorobenzene

> <dsstox_substance_id>
DTXSID4025329

> <dsstox_compound_id>
DTXCID305329

> <qc_level>
DSSTox_Low

> <Canonical_QSARr>
FC1C=CC=CC=1

> <InChI_Code_QSARr>
InChI=1S/C6H5F/c7-6-4-2-1-3-5-6/h1-5H

> <InChI Key_QSARr>
PYLWMHQQBFSUBP-UHFFFAOYSA-N

> <Salt_Solvent>


> <Salt_Solvent_ID>
0

> <MPID>
98966

> <OH Reference>
ATKINSON,R (1989)

> <OH>
6.900000000000002E-13

> <OH Temperature>
25.0

> <LogOH>
-12.161150909262753

> <Tr_1_Tst_0>
1

$$$$
100422
  Mrv171c012241912032D          

  7  6  0  0  0  0            999 V2000
    0.0042    0.0020    0.0000 C   0  0  0  0  0  0  0  0  0  0  0  0
    0.7186   -0.4105    0.0000 C   0  0  0  0  0  0  0  0  0  0  0  0
    1.4331    0.0020    0.0000 O   0  0  0  0  0  0  0  0  0  0  0  0
    2.1476   -0.4105    0.0000 C   0  0  0  0  0  0  0  0  0  0  0  0
    2.8621    0.0020    0.0000 O   0  0  0  0  0  0  0  0  0  0  0  0
    3.5765   -0.4105    0.0000 C   0  0  0  0  0  0  0  0  0  0  0  0
    4.2910    0.0020    0.0000 C   0  0  0  0  0  0  0  0  0  0  0  0
  1  2  1  0  0  0  0
  2  3  1  0  0  0  0
  3  4  1  0  0  0  0
  4  5  1  0  0  0  0
  5  6  1  0  0  0  0
  6  7  1  0  0  0  0
M  END
> <ChemID>
100422

> <CAS>
462-95-3

> <Original_SMILES>
CCOCOCC

> <preferred_name>
Diethoxymethane

> <dsstox_substance_id>
DTXSID6052112

> <dsstox_compound_id>
DTXCID8030681

> <qc_level>
DSSTox_Low

> <Canonical_QSARr>
CCOCOCC

> <InChI_Code_QSARr>
InChI=1S/C5H12O2/c1-3-6-5-7-4-2/h3-5H2,1-2H3

> <InChI Key_QSARr>
KLKFAASOGCDTDT-UHFFFAOYSA-N

> <Salt_Solvent>


> <Salt_Solvent_ID>
0

> <MPID>
98967

> <OH Reference>
ATKINSON,R (1989)

> <OH>
1.68E-11

> <OH Temperature>
25.0

> <LogOH>
-10.77469071827412

> <Tr_1_Tst_0>
1

$$$$
100423
  Mrv171c012241912032D          

  3  2  0  0  0  0            999 V2000
   -0.1099   -0.1380    0.0000 C   0  0  0  0  0  0  0  0  0  0  0  0
    0.7151   -0.1380    0.0000 C   0  0  0  0  0  0  0  0  0  0  0  0
    1.5401   -0.1380    0.0000 C   0  0  0  0  0  0  0  0  0  0  0  0
  1  2  2  0  0  0  0
  2  3  2  0  0  0  0
M  END
> <ChemID>
100423

> <CAS>
463-49-0

> <Original_SMILES>
C=C=C

> <preferred_name>
1,2-Propadiene

> <dsstox_substance_id>
DTXSID1029178

> <dsstox_compound_id>
DTXCID409178

> <qc_level>
DSSTox_Low

> <Canonical_QSARr>
C=C=C

> <InChI_Code_QSARr>
InChI=1S/C3H4/c1-3-2/h1-2H2

> <InChI Key_QSARr>
IYABWNGZIDDRAK-UHFFFAOYSA-N

> <Salt_Solvent>


> <Salt_Solvent_ID>
0

> <MPID>
98968

> <OH Reference>
ATKINSON,R (1989)

> <OH>
9.840000000000002E-12

> <OH Temperature>
22.0

> <LogOH>
-11.007004901568664

> <Tr_1_Tst_0>
0

$$$$
100424
  Mrv171c012241912032D          

  3  2  0  0  0  0            999 V2000
    0.0000   -0.0000    0.0000 C   0  0  0  0  0  0  0  0  0  0  0  0
    0.8250   -0.0000    0.0000 C   0  0  0  0  0  0  0  0  0  0  0  0
    1.6500    0.0000    0.0000 O   0  0  0  0  0  0  0  0  0  0  0  0
  1  2  2  0  0  0  0
  2  3  2  0  0  0  0
M  END
> <ChemID>
100424

> <CAS>
463-51-4

> <Original_SMILES>
C=C=O

> <preferred_name>
Ketene

> <dsstox_substance_id>
DTXSID1052113

> <dsstox_compound_id>
DTXCID3030682

> <qc_level>
DSSTox_High

> <Canonical_QSARr>
C=C=O

> <InChI_Code_QSARr>
InChI=1S/C2H2O/c1-2-3/h1H2

> <InChI Key_QSARr>
CCGKOQOJPYTBIH-UHFFFAOYSA-N

> <Salt_Solvent>


> <Salt_Solvent_ID>
0

> <MPID>
98969

> <OH Reference>
ATKINSON,R (1989)

> <OH>
1.73E-11

> <OH Temperature>
25.0

> <LogOH>
-10.761953896871196

> <Tr_1_Tst_0>
1

$$$$
100425
  Mrv171c012241912032D          

  5  4  0  0  0  0            999 V2000
    0.7106   -1.5416    0.0000 C   0  0  0  0  0  0  0  0  0  0  0  0
    0.7106   -0.7166    0.0000 C   0  0  0  0  0  0  0  0  0  0  0  0
    0.7106    0.1084    0.0000 C   0  0  0  0  0  0  0  0  0  0  0  0
    1.5356   -0.7166    0.0000 C   0  0  0  0  0  0  0  0  0  0  0  0
   -0.1144   -0.7166    0.0000 C   0  0  0  0  0  0  0  0  0  0  0  0
  1  2  1  0  0  0  0
  2  3  1  0  0  0  0
  2  4  1  0  0  0  0
  2  5  1  0  0  0  0
M  END
> <ChemID>
100425

> <CAS>
463-82-1

> <Original_SMILES>
CC(C)(C)C

> <preferred_name>
Propane, 2,2-dimethyl-

> <dsstox_substance_id>
DTXSID6029179

> <dsstox_compound_id>
DTXCID809179

> <qc_level>
DSSTox_Low

> <Canonical_QSARr>
CC(C)(C)C

> <InChI_Code_QSARr>
InChI=1S/C5H12/c1-5(2,3)4/h1-4H3

> <InChI Key_QSARr>
CRSOQBOWXPBRES-UHFFFAOYSA-N

> <Salt_Solvent>


> <Salt_Solvent_ID>
0

> <MPID>
98970

> <OH Reference>
ATKINSON,R (1989)

> <OH>
8.490000000000001E-13

> <OH Temperature>
25.0

> <LogOH>
-12.07109230975603

> <Tr_1_Tst_0>
1

$$$$
100426
  Mrv171c012241912032D          

  7  6  0  0  0  0            999 V2000
    1.0018   -0.0474    0.0000 C   0  0  0  0  0  0  0  0  0  0  0  0
    1.4143    0.6671    0.0000 C   0  0  0  0  0  0  0  0  0  0  0  0
    0.2873    0.3651    0.0000 C   0  0  0  0  0  0  0  0  0  0  0  0
    1.7163   -0.4599    0.0000 C   0  0  0  0  0  0  0  0  0  0  0  0
    0.5893   -0.7618    0.0000 C   0  0  0  0  0  0  0  0  0  0  0  0
    1.0018   -1.4763    0.0000 C   0  0  0  0  0  0  0  0  0  0  0  0
   -0.2357   -0.7618    0.0000 C   0  0  0  0  0  0  0  0  0  0  0  0
  1  2  1  0  0  0  0
  1  3  1  0  0  0  0
  1  4  1  0  0  0  0
  1  5  1  0  0  0  0
  5  6  1  0  0  0  0
  5  7  1  0  0  0  0
M  END
> <ChemID>
100426

> <CAS>
464-06-2

> <Original_SMILES>
CC(C)C(C)(C)C

> <preferred_name>
2,2,3-Trimethylbutane

> <dsstox_substance_id>
DTXSID7060047

> <dsstox_compound_id>
DTXCID3040489

> <qc_level>
Public_High

> <Canonical_QSARr>
CC(C)C(C)(C)C

> <InChI_Code_QSARr>
InChI=1S/C7H16/c1-6(2)7(3,4)5/h6H,1-5H3

> <InChI Key_QSARr>
ZISSAWUMDACLOM-UHFFFAOYSA-N

> <Salt_Solvent>


> <Salt_Solvent_ID>
0

> <MPID>
98971

> <OH Reference>
ATKINSON,R (1989)

> <OH>
4.23E-12

> <OH Temperature>
25.0

> <LogOH>
-11.373659632624973

> <Tr_1_Tst_0>
1

$$$$
100427
  Mrv171c012241912032D          

 15 17  0  0  0  0            999 V2000
    1.3679   -0.8618    0.0000 C   0  0  0  0  0  0  0  0  0  0  0  0
    0.7720   -0.2569    0.0000 C   0  0  0  0  0  0  0  0  0  0  0  0
    0.9117    0.5562    0.0000 C   0  0  0  0  0  0  0  0  0  0  0  0
    0.0289   -0.6182    0.0000 C   0  0  0  0  0  0  0  0  0  0  0  0
    0.1432   -1.4445    0.0000 C   0  0  0  0  0  0  0  0  0  0  0  0
    0.9732   -1.6331    0.0000 C   0  0  0  0  0  0  0  0  0  0  0  0
    1.6297   -2.2411    0.0000 C   0  0  0  0  0  0  0  0  0  0  0  0
    0.9998   -2.7738    0.0000 C   0  0  0  0  0  0  0  0  0  0  0  0
    2.0820   -2.9310    0.0000 C   0  0  0  0  0  0  0  0  0  0  0  0
    2.4277   -1.8471    0.0000 C   0  0  0  0  0  0  0  0  0  0  0  0
    3.0074   -1.1795    0.0000 C   0  0  0  0  0  0  0  0  0  0  0  0
    3.8123   -1.3606    0.0000 C   0  0  0  0  0  0  0  0  0  0  0  0
    2.7738   -0.3438    0.0000 C   0  0  0  0  0  0  0  0  0  0  0  0
    1.9355   -0.2006    0.0000 C   0  0  0  0  0  0  0  0  0  0  0  0
    1.9543   -1.3446    0.0000 C   0  0  0  0  0  0  0  0  0  0  0  0
  2  1  1  0  0  0  0
  2  3  1  0  0  0  0
  4  2  1  0  0  0  0
  5  4  1  0  0  0  0
  6  5  1  0  0  0  0
  6  1  1  0  0  0  0
  7  6  1  0  0  0  0
  7  8  1  0  0  0  0
  7  9  1  0  0  0  0
 10  7  1  0  0  0  0
 10 11  1  0  0  0  0
 11 12  1  0  0  0  0
 11 13  2  0  0  0  0
 13 14  1  0  0  0  0
 14  1  1  0  0  0  0
 15 10  1  0  0  0  0
  1 15  1  0  0  0  0
M  END
> <ChemID>
100427

> <CAS>
469-61-4

> <Original_SMILES>
CC1(C)C2C[C@]3(CC=C2C)[C@H]1CC[C@H]3C

> <preferred_name>
alpha-Cedrene

> <dsstox_substance_id>
DTXSID0047032

> <dsstox_compound_id>
DTXCID801022504

> <qc_level>
DSSTox_Low

> <Canonical_QSARr>
CC1(C)C2CC3(CC=C2C)C1CCC3C

> <InChI_Code_QSARr>
InChI=1S/C15H24/c1-10-7-8-15-9-12(10)14(3,4)13(15)6-5-11(15)2/h7,11-13H,5-6,8-9H2,1-4H3

> <InChI Key_QSARr>
IRAQOCYXUMOFCW-UHFFFAOYSA-N

> <Salt_Solvent>


> <Salt_Solvent_ID>
0

> <MPID>
98972

> <OH Reference>
SHU,Y & ATKINSON,R (1995)

> <OH>
6.7E-11

> <OH Temperature>
23.0

> <LogOH>
-10.17392519729918

> <Tr_1_Tst_0>
0

$$$$
100428
  Mrv171c012241912032D          

 11 12  0  0  0  0            999 V2000
   -0.0790   -1.6646    0.0000 C   0  0  0  0  0  0  0  0  0  0  0  0
    0.6355   -2.0771    0.0000 C   0  0  0  0  0  0  0  0  0  0  0  0
    0.6355   -2.9021    0.0000 C   0  0  0  0  0  0  0  0  0  0  0  0
    0.7730   -1.5271    0.0000 C   0  0  0  0  0  0  0  0  0  0  0  0
    0.7730   -0.9771    0.0000 C   0  0  0  0  0  0  0  0  0  0  0  0
    0.6355   -0.4271    0.0000 C   0  0  0  0  0  0  0  0  0  0  0  0
    1.3500   -0.8396    0.0000 C   0  0  0  0  0  0  0  0  0  0  0  0
    1.6321   -0.0644    0.0000 C   0  0  0  0  0  0  0  0  0  0  0  0
    2.1624   -0.9829    0.0000 C   0  0  0  0  0  0  0  0  0  0  0  0
    1.3500   -1.6646    0.0000 O   0  0  0  0  0  0  0  0  0  0  0  0
   -0.0790   -0.8396    0.0000 C   0  0  0  0  0  0  0  0  0  0  0  0
  2  1  1  0  0  0  0
  2  3  1  0  0  0  0
  2  4  1  0  0  0  0
  4  5  1  0  0  0  0
  5  6  1  0  0  0  0
  6  7  1  0  0  0  0
  7  8  1  0  0  0  0
  7  9  1  0  0  0  0
  7 10  1  0  0  0  0
 10  2  1  0  0  0  0
 11  6  1  0  0  0  0
  1 11  1  0  0  0  0
M  END
> <ChemID>
100428

> <CAS>
470-82-6

> <Original_SMILES>
CC1(C)OC2(C)CCC1CC2

> <preferred_name>
1,8-Cineol

> <dsstox_substance_id>
DTXSID4020616

> <dsstox_compound_id>
DTXCID60616

> <qc_level>
DSSTox_Low

> <Canonical_QSARr>
CC1(C)OC2(C)CCC1CC2

> <InChI_Code_QSARr>
InChI=1S/C10H18O/c1-9(2)8-4-6-10(3,11-9)7-5-8/h8H,4-7H2,1-3H3

> <InChI Key_QSARr>
WEEGYLXZBRQIMU-UHFFFAOYSA-N

> <Salt_Solvent>


> <Salt_Solvent_ID>
0

> <MPID>
98973

> <OH Reference>
CORCHNOY,SB & ATKINSON,R (1990)

> <OH>
1.11E-11

> <OH Temperature>
25.0

> <LogOH>
-10.954677021213358

> <Tr_1_Tst_0>
1

$$$$
100429
  Mrv171c012241912032D          

 15 17  0  0  0  0            999 V2000
    1.4372   -2.2755    0.0000 C   0  0  0  0  0  0  0  0  0  0  0  0
    1.8424   -2.9941    0.0000 C   0  0  0  0  0  0  0  0  0  0  0  0
    0.6975   -2.0849    0.0000 C   0  0  0  0  0  0  0  0  0  0  0  0
    0.0963   -1.5249    0.0000 C   0  0  0  0  0  0  0  0  0  0  0  0
    0.4682   -0.7964    0.0000 C   0  0  0  0  0  0  0  0  0  0  0  0
    1.2459   -0.9685    0.0000 C   0  0  0  0  0  0  0  0  0  0  0  0
    1.5789   -1.8599    0.0000 C   0  0  0  0  0  0  0  0  0  0  0  0
    2.3072   -2.3738    0.0000 C   0  0  0  0  0  0  0  0  0  0  0  0
    2.1970   -3.1915    0.0000 C   0  0  0  0  0  0  0  0  0  0  0  0
    2.8135   -3.0252    0.0000 C   0  0  0  0  0  0  0  0  0  0  0  0
    3.0501   -1.9554    0.0000 C   0  0  0  0  0  0  0  0  0  0  0  0
    3.1785   -1.1306    0.0000 C   0  0  0  0  0  0  0  0  0  0  0  0
    2.4893   -0.6335    0.0000 C   0  0  0  0  0  0  0  0  0  0  0  0
    1.7582   -1.2067    0.0000 C   0  0  0  0  0  0  0  0  0  0  0  0
    1.0767   -0.7417    0.0000 C   0  0  0  0  0  0  0  0  0  0  0  0
  1  2  2  0  0  0  0
  3  1  1  0  0  0  0
  3  4  1  0  0  0  0
  4  5  1  0  0  0  0
  5  6  1  0  0  0  0
  6  7  1  0  0  0  0
  7  3  1  0  0  0  0
  7  8  1  0  0  0  0
  8  9  1  0  0  0  0
  8 10  1  0  0  0  0
  8 11  1  0  0  0  0
 11 12  1  0  0  0  0
 12 13  1  0  0  0  0
 13 14  1  0  0  0  0
  1 14  1  0  0  0  0
 14  6  1  0  0  0  0
 14 15  1  0  0  0  0
M  END
> <ChemID>
100429

> <CAS>
475-20-7

> <Original_SMILES>
CC1(C)CCC[C@@]2(C)[C@@H]3CC[C@@H]([C@H]13)C2=C

> <preferred_name>
Longifolene

> <dsstox_substance_id>
DTXSID9047045

> <dsstox_compound_id>
DTXCID7027045

> <qc_level>
DSSTox_Low

> <Canonical_QSARr>
CC1(C)CCCC2(C)C3CCC(C13)C2=C

> <InChI_Code_QSARr>
InChI=1S/C15H24/c1-10-11-6-7-12-13(11)14(2,3)8-5-9-15(10,12)4/h11-13H,1,5-9H2,2-4H3

> <InChI Key_QSARr>
PDSNLYSELAIEBU-UHFFFAOYSA-N

> <Salt_Solvent>


> <Salt_Solvent_ID>
0

> <MPID>
98974

> <OH Reference>
SHU,Y & ATKINSON,R (1995)

> <OH>
4.700000000000001E-11

> <OH Temperature>
23.0

> <LogOH>
-10.327902142064286

> <Tr_1_Tst_0>
1

$$$$
100430
  Mrv171c012241912032D          

  9  9  0  0  0  0            999 V2000
    1.1114    1.0083    0.0000 C   0  0  0  0  0  0  0  0  0  0  0  0
    1.8259    1.4208    0.0000 O   0  0  0  0  0  0  0  0  0  0  0  0
    0.3969    1.4208    0.0000 C   0  0  0  0  0  0  0  0  0  0  0  0
    0.3969    2.2458    0.0000 O   0  0  0  0  0  0  0  0  0  0  0  0
   -0.3175    1.0083    0.0000 C   0  0  0  0  0  0  0  0  0  0  0  0
   -0.3175    0.1833    0.0000 C   0  0  0  0  0  0  0  0  0  0  0  0
    0.3969   -0.2292    0.0000 C   0  0  0  0  0  0  0  0  0  0  0  0
    1.1114    0.1833    0.0000 C   0  0  0  0  0  0  0  0  0  0  0  0
    1.8259   -0.2292    0.0000 C   0  0  0  0  0  0  0  0  0  0  0  0
  1  2  1  0  0  0  0
  3  1  1  0  0  0  0
  3  4  1  0  0  0  0
  5  3  2  0  0  0  0
  6  5  1  0  0  0  0
  7  6  2  0  0  0  0
  8  7  1  0  0  0  0
  1  8  2  0  0  0  0
  8  9  1  0  0  0  0
M  END
> <ChemID>
100430

> <CAS>
488-17-5

> <Original_SMILES>
Cc1cccc(O)c1O

> <preferred_name>
1,2-Benzenediol, 3-methyl-

> <dsstox_substance_id>
DTXSID9060071

> <dsstox_compound_id>
DTXCID8040644

> <qc_level>
Public_High

> <Canonical_QSARr>
CC1C=CC=C(O)C=1O

> <InChI_Code_QSARr>
InChI=1S/C7H8O2/c1-5-3-2-4-6(8)7(5)9/h2-4,8-9H,1H3

> <InChI Key_QSARr>
PGSWEKYNAOWQDF-UHFFFAOYSA-N

> <Salt_Solvent>


> <Salt_Solvent_ID>
0

> <MPID>
98975

> <OH Reference>
OLARIU,RI ET AL. (2000)

> <OH>
2.05E-10

> <OH Temperature>
27.0

> <LogOH>
-9.688246138944228

> <Tr_1_Tst_0>
1

$$$$
100431
  Mrv171c012241912032D          

 10 11  0  0  0  0            999 V2000
    1.4297   -0.4125    0.0000 C   0  0  0  0  0  0  0  0  0  0  0  0
    0.7153    0.0000    0.0000 C   0  0  0  0  0  0  0  0  0  0  0  0
    0.0008   -0.4125    0.0000 C   0  0  0  0  0  0  0  0  0  0  0  0
    0.0008   -1.2375    0.0000 C   0  0  0  0  0  0  0  0  0  0  0  0
    0.7153   -1.6500    0.0000 C   0  0  0  0  0  0  0  0  0  0  0  0
    1.4297   -1.2375    0.0000 C   0  0  0  0  0  0  0  0  0  0  0  0
    2.1442   -1.6500    0.0000 C   0  0  0  0  0  0  0  0  0  0  0  0
    2.8587   -1.2375    0.0000 C   0  0  0  0  0  0  0  0  0  0  0  0
    2.8587   -0.4125    0.0000 C   0  0  0  0  0  0  0  0  0  0  0  0
    2.1442    0.0000    0.0000 C   0  0  0  0  0  0  0  0  0  0  0  0
  2  1  1  0  0  0  0
  3  2  1  0  0  0  0
  4  3  1  0  0  0  0
  5  4  1  0  0  0  0
  6  5  1  0  0  0  0
  6  1  1  0  0  0  0
  7  6  1  0  0  0  0
  8  7  1  0  0  0  0
  9  8  1  0  0  0  0
 10  9  1  0  0  0  0
  1 10  1  0  0  0  0
M  END
> <ChemID>
100431

> <CAS>
91-17-8

> <Original_SMILES>
C1CCCC2CCCCC21

> <preferred_name>
Decalin

> <dsstox_substance_id>
DTXSID1024912

> <dsstox_compound_id>
DTXCID304912

> <qc_level>
DSSTox_Low

> <Canonical_QSARr>
C1CCCC2CCCCC21

> <InChI_Code_QSARr>
InChI=1S/C10H18/c1-2-6-10-8-4-3-7-9(10)5-1/h9-10H,1-8H2

> <InChI Key_QSARr>
NNBZCPXTIHJBJL-UHFFFAOYSA-N

> <Salt_Solvent>


> <Salt_Solvent_ID>
0

> <MPID>
98976|98977

> <OH Reference>
ATKINSON,R (1989)

> <OH>
2.0150000000000003E-11

> <OH Temperature>
25.0

> <LogOH>
-10.695724949522889

> <Tr_1_Tst_0>
0

$$$$
100433
  Mrv171c012241912032D          

 10 11  0  0  0  0            999 V2000
    0.7145   -0.4125    0.0000 C   0  0  0  0  0  0  0  0  0  0  0  0
   -0.0000    0.0000    0.0000 O   0  0  0  0  0  0  0  0  0  0  0  0
   -0.7145   -0.4125    0.0000 C   0  0  0  0  0  0  0  0  0  0  0  0
   -0.7145   -1.2375    0.0000 C   0  0  0  0  0  0  0  0  0  0  0  0
   -0.0000   -1.6500    0.0000 O   0  0  0  0  0  0  0  0  0  0  0  0
    0.7145   -1.2375    0.0000 C   0  0  0  0  0  0  0  0  0  0  0  0
    1.4289   -1.6500    0.0000 C   0  0  0  0  0  0  0  0  0  0  0  0
    2.1434   -1.2375    0.0000 C   0  0  0  0  0  0  0  0  0  0  0  0
    2.1434   -0.4125    0.0000 C   0  0  0  0  0  0  0  0  0  0  0  0
    1.4289    0.0000    0.0000 C   0  0  0  0  0  0  0  0  0  0  0  0
  2  1  1  0  0  0  0
  3  2  1  0  0  0  0
  4  3  1  0  0  0  0
  5  4  1  0  0  0  0
  6  5  1  0  0  0  0
  6  1  2  0  0  0  0
  7  6  1  0  0  0  0
  8  7  2  0  0  0  0
  9  8  1  0  0  0  0
 10  9  2  0  0  0  0
  1 10  1  0  0  0  0
M  END
> <ChemID>
100433

> <CAS>
493-09-4

> <Original_SMILES>
C1COc2ccccc2O1

> <preferred_name>
1,4-Benzodioxin, 2,3-dihydro-

> <dsstox_substance_id>
DTXSID8075419

> <dsstox_compound_id>
DTXCID4040684

> <qc_level>
Public_High

> <Canonical_QSARr>
C1COC2C=CC=CC=2O1

> <InChI_Code_QSARr>
InChI=1S/C8H8O2/c1-2-4-8-7(3-1)9-5-6-10-8/h1-4H,5-6H2

> <InChI Key_QSARr>
BNBQRQQYDMDJAH-UHFFFAOYSA-N

> <Salt_Solvent>


> <Salt_Solvent_ID>
0

> <MPID>
98978

> <OH Reference>
ATKINSON,R ET AL. (1992A)

> <OH>
2.519999999999999E-11

> <OH Temperature>
23.0

> <LogOH>
-10.598599459218468

> <Tr_1_Tst_0>
1

$$$$
100434
  Mrv171c012241912032D          

  9 10  0  0  0  0            999 V2000
    1.1098   -0.4143    0.0000 C   0  0  0  0  0  0  0  0  0  0  0  0
    0.3252   -0.1594    0.0000 C   0  0  0  0  0  0  0  0  0  0  0  0
   -0.1597   -0.8268    0.0000 C   0  0  0  0  0  0  0  0  0  0  0  0
    0.3252   -1.4943    0.0000 C   0  0  0  0  0  0  0  0  0  0  0  0
    1.1098   -1.2393    0.0000 C   0  0  0  0  0  0  0  0  0  0  0  0
    1.8243   -1.6518    0.0000 C   0  0  0  0  0  0  0  0  0  0  0  0
    2.5388   -1.2393    0.0000 C   0  0  0  0  0  0  0  0  0  0  0  0
    2.5388   -0.4143    0.0000 C   0  0  0  0  0  0  0  0  0  0  0  0
    1.8243   -0.0018    0.0000 C   0  0  0  0  0  0  0  0  0  0  0  0
  2  1  1  0  0  0  0
  3  2  1  0  0  0  0
  4  3  1  0  0  0  0
  5  4  1  0  0  0  0
  5  1  1  0  0  0  0
  6  5  2  0  0  0  0
  7  6  1  0  0  0  0
  8  7  2  0  0  0  0
  9  8  1  0  0  0  0
  1  9  2  0  0  0  0
M  END
> <ChemID>
100434

> <CAS>
496-11-7

> <Original_SMILES>
C1CCc2ccccc21

> <preferred_name>
Indan

> <dsstox_substance_id>
DTXSID4052132

> <dsstox_compound_id>
DTXCID9030701

> <qc_level>
DSSTox_High

> <Canonical_QSARr>
C1CCC2=CC=CC=C21

> <InChI_Code_QSARr>
InChI=1S/C9H10/c1-2-5-9-7-3-6-8(9)4-1/h1-2,4-5H,3,6-7H2

> <InChI Key_QSARr>
PQNFLJBBNBOBRQ-UHFFFAOYSA-N

> <Salt_Solvent>


> <Salt_Solvent_ID>
0

> <MPID>
98979

> <OH Reference>
ATKINSON,R (1989)

> <OH>
9.2E-12

> <OH Temperature>
25.0

> <LogOH>
-11.036212172654464

> <Tr_1_Tst_0>
1

$$$$
100435
  Mrv171c012241912032D          

  9 10  0  0  0  0            999 V2000
    0.4836   -0.1556    0.0000 C   0  0  0  0  0  0  0  0  0  0  0  0
    1.2682   -0.4105    0.0000 C   0  0  0  0  0  0  0  0  0  0  0  0
    1.9827    0.0020    0.0000 C   0  0  0  0  0  0  0  0  0  0  0  0
    2.6971   -0.4105    0.0000 C   0  0  0  0  0  0  0  0  0  0  0  0
    2.6971   -1.2355    0.0000 C   0  0  0  0  0  0  0  0  0  0  0  0
    1.9827   -1.6480    0.0000 C   0  0  0  0  0  0  0  0  0  0  0  0
    1.2682   -1.2355    0.0000 C   0  0  0  0  0  0  0  0  0  0  0  0
    0.4836   -1.4904    0.0000 O   0  0  0  0  0  0  0  0  0  0  0  0
   -0.0014   -0.8230    0.0000 C   0  0  0  0  0  0  0  0  0  0  0  0
  2  1  1  0  0  0  0
  2  3  2  0  0  0  0
  3  4  1  0  0  0  0
  4  5  2  0  0  0  0
  5  6  1  0  0  0  0
  6  7  2  0  0  0  0
  7  2  1  0  0  0  0
  8  7  1  0  0  0  0
  9  8  1  0  0  0  0
  1  9  1  0  0  0  0
M  END
> <ChemID>
100435

> <CAS>
496-16-2

> <Original_SMILES>
C1COc2ccccc21

> <preferred_name>
2,3-Dihydrobenzofuran

> <dsstox_substance_id>
DTXSID2022040

> <dsstox_compound_id>
DTXCID402040

> <qc_level>
DSSTox_Low

> <Canonical_QSARr>
C1COC2=CC=CC=C21

> <InChI_Code_QSARr>
InChI=1S/C8H8O/c1-2-4-8-7(3-1)5-6-9-8/h1-4H,5-6H2

> <InChI Key_QSARr>
HBEDSQVIWPRPAY-UHFFFAOYSA-N

> <Salt_Solvent>


> <Salt_Solvent_ID>
0

> <MPID>
98980

> <OH Reference>
ATKINSON,R (1989)

> <OH>
3.66E-11

> <OH Temperature>
25.0

> <LogOH>
-10.436518914605577

> <Tr_1_Tst_0>
1

$$$$
100437
  Mrv171c012241912032D          

  6  6  0  0  0  0            999 V2000
    0.5678    1.1143    0.0000 C   0  0  0  0  0  0  0  0  0  0  0  0
    0.5678    1.9393    0.0000 C   0  0  0  0  0  0  0  0  0  0  0  0
   -0.0997    0.6294    0.0000 O   0  0  0  0  0  0  0  0  0  0  0  0
    0.1553   -0.1553    0.0000 C   0  0  0  0  0  0  0  0  0  0  0  0
    0.9803   -0.1553    0.0000 C   0  0  0  0  0  0  0  0  0  0  0  0
    1.2352    0.6294    0.0000 O   0  0  0  0  0  0  0  0  0  0  0  0
  1  2  1  0  0  0  0
  3  1  1  0  0  0  0
  4  3  1  0  0  0  0
  5  4  1  0  0  0  0
  6  5  1  0  0  0  0
  1  6  1  0  0  0  0
M  END
> <ChemID>
100437

> <CAS>
497-26-7

> <Original_SMILES>
CC1OCCO1

> <preferred_name>
2-Methyl-1,3-dioxolane

> <dsstox_substance_id>
DTXSID7060095

> <dsstox_compound_id>
DTXCID3040720

> <qc_level>
Public_High

> <Canonical_QSARr>
CC1OCCO1

> <InChI_Code_QSARr>
InChI=1S/C4H8O2/c1-4-5-2-3-6-4/h4H,2-3H2,1H3

> <InChI Key_QSARr>
HTWIZMNMTWYQRN-UHFFFAOYSA-N

> <Salt_Solvent>


> <Salt_Solvent_ID>
0

> <MPID>
98981

> <OH Reference>
STEMMLER,K ET AL. (1996)

> <OH>
9.400000000000001E-12

> <OH Temperature>
25.0

> <LogOH>
-11.026872146400306

> <Tr_1_Tst_0>
1

$$$$
100438
  Mrv171c012241912032D          

  7  7  0  0  0  0            999 V2000
    2.3807   -1.2227    0.0000 O   0  0  0  0  0  0  0  0  0  0  0  0
    3.2057   -1.2227    0.0000 C   0  0  0  0  0  0  0  0  0  0  0  0
    3.4606   -0.4380    0.0000 C   0  0  0  0  0  0  0  0  0  0  0  0
    2.7932    0.0469    0.0000 C   0  0  0  0  0  0  0  0  0  0  0  0
    2.7932    0.8719    0.0000 C   0  0  0  0  0  0  0  0  0  0  0  0
    2.0787    1.2844    0.0000 O   0  0  0  0  0  0  0  0  0  0  0  0
    2.1258   -0.4380    0.0000 C   0  0  0  0  0  0  0  0  0  0  0  0
  2  1  1  0  0  0  0
  3  2  2  0  0  0  0
  4  3  1  0  0  0  0
  4  5  1  0  0  0  0
  5  6  2  0  0  0  0
  7  4  2  0  0  0  0
  1  7  1  0  0  0  0
M  END
> <ChemID>
100438

> <CAS>
498-60-2

> <Original_SMILES>
O=Cc1cocc1

> <preferred_name>
3-Furaldehyde

> <dsstox_substance_id>
DTXSID40198076

> <dsstox_compound_id>
DTXCID70120567

> <qc_level>
Public_Medium

> <Canonical_QSARr>
O=CC1=COC=C1

> <InChI_Code_QSARr>
InChI=1S/C5H4O2/c6-3-5-1-2-7-4-5/h1-4H

> <InChI Key_QSARr>
AZVSIHIBYRHSLB-UHFFFAOYSA-N

> <Salt_Solvent>


> <Salt_Solvent_ID>
0

> <MPID>
98982

> <OH Reference>
BIERBACH,A ET AL. (1995)

> <OH>
4.850000000000001E-11

> <OH Temperature>
27.0

> <LogOH>
-10.31425826139773

> <Tr_1_Tst_0>
1

$$$$
100439
  Mrv171c012241912032D          

  7  8  0  0  0  0            999 V2000
    0.8958   -1.7751    0.0000 C   0  0  0  0  0  0  0  0  0  0  0  0
    0.1813   -1.3626    0.0000 C   0  0  0  0  0  0  0  0  0  0  0  0
    0.1813   -0.5376    0.0000 C   0  0  0  0  0  0  0  0  0  0  0  0
    0.8958   -0.1251    0.0000 C   0  0  0  0  0  0  0  0  0  0  0  0
    1.1020   -0.9501    0.0000 C   0  0  0  0  0  0  0  0  0  0  0  0
    1.6103   -0.5376    0.0000 C   0  0  0  0  0  0  0  0  0  0  0  0
    1.6103   -1.3626    0.0000 C   0  0  0  0  0  0  0  0  0  0  0  0
  2  1  1  0  0  0  0
  3  2  2  0  0  0  0
  4  3  1  0  0  0  0
  4  5  1  0  0  0  0
  5  1  1  0  0  0  0
  6  4  1  0  0  0  0
  7  6  1  0  0  0  0
  1  7  1  0  0  0  0
M  END
> <ChemID>
100439

> <CAS>
498-66-8

> <Original_SMILES>
C1C2CCC1C=C2

> <preferred_name>
Norbornylene

> <dsstox_substance_id>
DTXSID2022042

> <dsstox_compound_id>
DTXCID202042

> <qc_level>
DSSTox_Low

> <Canonical_QSARr>
C1C2CCC1C=C2

> <InChI_Code_QSARr>
InChI=1S/C7H10/c1-2-7-4-3-6(1)5-7/h1-2,6-7H,3-5H2

> <InChI Key_QSARr>
JFNLZVQOOSMTJK-UHFFFAOYSA-N

> <Salt_Solvent>


> <Salt_Solvent_ID>
0

> <MPID>
98983

> <OH Reference>
ATKINSON,R (1989)

> <OH>
4.930000000000001E-11

> <OH Temperature>
25.0

> <LogOH>
-10.307153080722768

> <Tr_1_Tst_0>
1

$$$$
100440
  Mrv171c012241912032D          

 10 10  0  0  0  0            999 V2000
    2.3644   -0.2062    0.0000 C   0  0  0  0  0  0  0  0  0  0  0  0
    3.0789    0.2063    0.0000 C   0  0  0  0  0  0  0  0  0  0  0  0
    3.0789    1.0313    0.0000 C   0  0  0  0  0  0  0  0  0  0  0  0
    2.3644    1.4438    0.0000 C   0  0  0  0  0  0  0  0  0  0  0  0
    2.3644    2.2688    0.0000 C   0  0  0  0  0  0  0  0  0  0  0  0
    1.6499    1.0313    0.0000 C   0  0  0  0  0  0  0  0  0  0  0  0
    1.6499    0.2063    0.0000 C   0  0  0  0  0  0  0  0  0  0  0  0
    2.3644   -1.0312    0.0000 C   0  0  0  0  0  0  0  0  0  0  0  0
    3.0789   -1.4437    0.0000 C   0  0  0  0  0  0  0  0  0  0  0  0
    1.6499   -1.4437    0.0000 C   0  0  0  0  0  0  0  0  0  0  0  0
  2  1  1  0  0  0  0
  3  2  1  0  0  0  0
  4  3  2  0  0  0  0
  4  5  1  0  0  0  0
  6  4  1  0  0  0  0
  7  6  1  0  0  0  0
  1  7  1  0  0  0  0
  1  8  1  0  0  0  0
  8  9  1  0  0  0  0
  8 10  1  0  0  0  0
M  END
> <ChemID>
100440

> <CAS>
499-94-5

> <Original_SMILES>
CC(C)[C@@H]1CC=C(C)CC1

> <preferred_name>
Menthene

> <dsstox_substance_id>
DTXSID70473388

> <dsstox_compound_id>
DTXCID00424202

> <qc_level>
Public_Low

> <Canonical_QSARr>
CC(C)C1CC=C(C)CC1

> <InChI_Code_QSARr>
InChI=1S/C10H18/c1-8(2)10-6-4-9(3)5-7-10/h4,8,10H,5-7H2,1-3H3

> <InChI Key_QSARr>
FAMJUFMHYAFYNU-UHFFFAOYSA-N

> <Salt_Solvent>


> <Salt_Solvent_ID>
0

> <MPID>
98984

> <OH Reference>
ATKINSON,R (1989)

> <OH>
1.27E-10

> <OH Temperature>
25.0

> <LogOH>
-9.89619627904406

> <Tr_1_Tst_0>
0

$$$$
100441
  Mrv171c012241912032D          

  4  3  0  0  0  0            999 V2000
    0.8250    0.0000    0.0000 C   0  0  0  0  0  0  0  0  0  0  0  0
    1.6500   -0.0000    0.0000 C   0  0  0  0  0  0  0  0  0  0  0  0
    0.0000    0.0000    0.0000 C   0  0  0  0  0  0  0  0  0  0  0  0
   -0.8250   -0.0000    0.0000 C   0  0  0  0  0  0  0  0  0  0  0  0
  1  2  1  0  0  0  0
  1  3  3  0  0  0  0
  3  4  1  0  0  0  0
M  END
> <ChemID>
100441

> <CAS>
503-17-3

> <Original_SMILES>
CC#CC

> <preferred_name>
2-Butyne

> <dsstox_substance_id>
DTXSID3060116

> <dsstox_compound_id>
DTXCID2040812

> <qc_level>
Public_High

> <Canonical_QSARr>
CC#CC

> <InChI_Code_QSARr>
InChI=1S/C4H6/c1-3-4-2/h1-2H3

> <InChI Key_QSARr>
XNMQEEKYCVKGBD-UHFFFAOYSA-N

> <Salt_Solvent>


> <Salt_Solvent_ID>
0

> <MPID>
98985

> <OH Reference>
ATKINSON,R (1989)

> <OH>
2.74E-11

> <OH Temperature>
25.0

> <LogOH>
-10.5622494371796

> <Tr_1_Tst_0>
1

$$$$
100442
  Mrv171c012241912032D          

  4  4  0  0  0  0            999 V2000
    0.9959   -0.4125    0.0000 C   0  0  0  0  0  0  0  0  0  0  0  0
    0.4125    0.1709    0.0000 C   0  0  0  0  0  0  0  0  0  0  0  0
   -0.1709   -0.4125    0.0000 O   0  0  0  0  0  0  0  0  0  0  0  0
    0.4125   -0.9959    0.0000 C   0  0  0  0  0  0  0  0  0  0  0  0
  2  1  1  0  0  0  0
  3  2  1  0  0  0  0
  4  3  1  0  0  0  0
  1  4  1  0  0  0  0
M  END
> <ChemID>
100442

> <CAS>
503-30-0

> <Original_SMILES>
C1CCO1

> <preferred_name>
1,3-Propylene oxide

> <dsstox_substance_id>
DTXSID8025969

> <dsstox_compound_id>
DTXCID705969

> <qc_level>
DSSTox_Low

> <Canonical_QSARr>
C1CCO1

> <InChI_Code_QSARr>
InChI=1S/C3H6O/c1-2-4-3-1/h1-3H2

> <InChI Key_QSARr>
AHHWIHXENZJRFG-UHFFFAOYSA-N

> <Salt_Solvent>


> <Salt_Solvent_ID>
0

> <MPID>
98986

> <OH Reference>
ATKINSON,R (1989)

> <OH>
1.03E-11

> <OH Temperature>
25.0

> <LogOH>
-10.987162775294845

> <Tr_1_Tst_0>
1

$$$$
100443
  Mrv171c012241912032D          

  6  6  0  0  0  0            999 V2000
    1.4289   -0.4125    0.0000 C   0  0  0  0  0  0  0  0  0  0  0  0
    0.7145    0.0000    0.0000 C   0  0  0  0  0  0  0  0  0  0  0  0
    0.0000   -0.4125    0.0000 O   0  0  0  0  0  0  0  0  0  0  0  0
    0.0000   -1.2375    0.0000 C   0  0  0  0  0  0  0  0  0  0  0  0
    0.7145   -1.6500    0.0000 O   0  0  0  0  0  0  0  0  0  0  0  0
    1.4289   -1.2375    0.0000 C   0  0  0  0  0  0  0  0  0  0  0  0
  2  1  1  0  0  0  0
  3  2  1  0  0  0  0
  4  3  1  0  0  0  0
  5  4  1  0  0  0  0
  6  5  1  0  0  0  0
  1  6  1  0  0  0  0
M  END
> <ChemID>
100443

> <CAS>
505-22-6

> <Original_SMILES>
C1OCCCO1

> <preferred_name>
1,3-Dioxane

> <dsstox_substance_id>
DTXSID3025174

> <dsstox_compound_id>
DTXCID405174

> <qc_level>
DSSTox_Low

> <Canonical_QSARr>
C1OCCCO1

> <InChI_Code_QSARr>
InChI=1S/C4H8O2/c1-2-5-4-6-3-1/h1-4H2

> <InChI Key_QSARr>
VDFVNEFVBPFDSB-UHFFFAOYSA-N

> <Salt_Solvent>


> <Salt_Solvent_ID>
0

> <MPID>
98987

> <OH Reference>
ATKINSON,R (1989)

> <OH>
9.15E-12

> <OH Temperature>
25.0

> <LogOH>
-11.038578905933543

> <Tr_1_Tst_0>
1

$$$$
100444
  Mrv171c012241912032D          

  5  4  0  0  0  0            999 V2000
    0.8330   -1.6580    0.0000 C   0  0  0  0  0  0  0  0  0  0  0  0
    0.8330   -0.8330    0.0000 C   0  0  0  0  0  0  0  0  0  0  0  0
    0.8330   -0.0080    0.0000 Cl  0  0  0  0  0  0  0  0  0  0  0  0
    1.6580   -0.8330    0.0000 C   0  0  0  0  0  0  0  0  0  0  0  0
    0.0080   -0.8330    0.0000 C   0  0  0  0  0  0  0  0  0  0  0  0
  1  2  1  0  0  0  0
  2  3  1  0  0  0  0
  2  4  1  0  0  0  0
  2  5  1  0  0  0  0
M  END
> <ChemID>
100444

> <CAS>
507-20-0

> <Original_SMILES>
CC(C)(C)Cl

> <preferred_name>
t-Butylchloride

> <dsstox_substance_id>
DTXSID2023937

> <dsstox_compound_id>
DTXCID803937

> <qc_level>
DSSTox_High

> <Canonical_QSARr>
CC(C)(C)Cl

> <InChI_Code_QSARr>
InChI=1S/C4H9Cl/c1-4(2,3)5/h1-3H3

> <InChI Key_QSARr>
NBRKLOOSMBRFMH-UHFFFAOYSA-N

> <Salt_Solvent>


> <Salt_Solvent_ID>
0

> <MPID>
98988

> <OH Reference>
DONAGHY,T ET AL. (1993)

> <OH>
4.099999999999999E-13

> <OH Temperature>
25.0

> <LogOH>
-12.38721614328025

> <Tr_1_Tst_0>
0

$$$$
100445
  Mrv171c012241912032D          

 10  9  0  0  0  0            999 V2000
    1.9384   -0.1819    0.0000 C   0  0  0  0  0  0  0  0  0  0  0  0
    2.3509    0.5325    0.0000 F   0  0  0  0  0  0  0  0  0  0  0  0
    1.2239    0.2306    0.0000 F   0  0  0  0  0  0  0  0  0  0  0  0
    2.6529   -0.5944    0.0000 Cl  0  0  0  0  0  0  0  0  0  0  0  0
    1.5259   -0.8964    0.0000 C   0  0  0  0  0  0  0  0  0  0  0  0
    0.8114   -0.4839    0.0000 F   0  0  0  0  0  0  0  0  0  0  0  0
    2.2404   -1.3089    0.0000 F   0  0  0  0  0  0  0  0  0  0  0  0
    1.1134   -1.6109    0.0000 C   0  0  0  0  0  0  0  0  0  0  0  0
    1.5259   -2.3253    0.0000 F   0  0  0  0  0  0  0  0  0  0  0  0
    0.2884   -1.6109    0.0000 Cl  0  0  0  0  0  0  0  0  0  0  0  0
  1  2  1  0  0  0  0
  1  3  1  0  0  0  0
  1  4  1  0  0  0  0
  1  5  1  0  0  0  0
  5  6  1  0  0  0  0
  5  7  1  0  0  0  0
  5  8  1  0  0  0  0
  8  9  1  0  0  0  0
  8 10  1  0  0  0  0
M  END
> <ChemID>
100445

> <CAS>
507-55-1

> <Original_SMILES>
FC(F)(Cl)C(F)(F)C(F)Cl

> <preferred_name>
1,3-dichloro-1,1,2,2,3-pentafluoropropane

> <dsstox_substance_id>
DTXSID6042028

> <dsstox_compound_id>
DTXCID4022028

> <qc_level>
DSSTox_Low

> <Canonical_QSARr>
FC(F)(Cl)C(F)(F)C(F)Cl

> <InChI_Code_QSARr>
InChI=1S/C3HCl2F5/c4-1(6)2(7,8)3(5,9)10/h1H

> <InChI Key_QSARr>
UJIGKESMIPTWJH-UHFFFAOYSA-N

> <Salt_Solvent>


> <Salt_Solvent_ID>
0

> <MPID>
98989

> <OH Reference>
ATKINSON,R (1994)

> <OH>
8.850000000000001E-15

> <OH Temperature>
22.0

> <LogOH>
-14.053056729302195

> <Tr_1_Tst_0>
1

$$$$
100446
  Mrv171c012241912032D          

 10 12  0  0  0  0            999 V2000
   -0.4361    0.0546    0.0000 C   0  0  0  0  0  0  0  0  0  0  0  0
   -0.8535   -0.6570    0.0000 C   0  0  0  0  0  0  0  0  0  0  0  0
   -0.4332    1.0309    0.0000 C   0  0  0  0  0  0  0  0  0  0  0  0
    0.3786    1.2439    0.0000 C   0  0  0  0  0  0  0  0  0  0  0  0
    0.7700    0.5341    0.0000 C   0  0  0  0  0  0  0  0  0  0  0  0
    0.0155    0.1643    0.0000 C   0  0  0  0  0  0  0  0  0  0  0  0
   -0.9101    0.5065    0.0000 C   0  0  0  0  0  0  0  0  0  0  0  0
    0.4212   -0.2101    0.0000 C   0  0  0  0  0  0  0  0  0  0  0  0
    1.0923   -0.6899    0.0000 C   0  0  0  0  0  0  0  0  0  0  0  0
    0.3249   -1.0295    0.0000 C   0  0  0  0  0  0  0  0  0  0  0  0
  1  2  1  0  0  0  0
  3  1  1  0  0  0  0
  3  4  1  0  0  0  0
  4  5  1  0  0  0  0
  5  6  1  0  0  0  0
  6  7  1  0  0  0  0
  7  1  1  0  0  0  0
  7  3  1  0  0  0  0
  8  5  1  0  0  0  0
  1  8  1  0  0  0  0
  8  9  1  0  0  0  0
  8 10  1  0  0  0  0
M  END
> <ChemID>
100446

> <CAS>
508-32-7

> <Original_SMILES>
CC1(C)C2CC3C(C2)C13C

> <preferred_name>
1,7,7-Trimethyltricyclo[2.2.1.02,6]heptane

> <dsstox_substance_id>
DTXSID90858714

> <dsstox_compound_id>
DTXCID80809457

> <qc_level>
DSSTox_Low

> <Canonical_QSARr>
CC1(C)C2CC3C(C2)C13C

> <InChI_Code_QSARr>
InChI=1S/C10H16/c1-9(2)6-4-7-8(5-6)10(7,9)3/h6-8H,4-5H2,1-3H3

> <InChI Key_QSARr>
RRBYUSWBLVXTQN-UHFFFAOYSA-N

> <Salt_Solvent>


> <Salt_Solvent_ID>
0

> <MPID>
98990

> <OH Reference>
ATKINSON,R (1994)

> <OH>
2.86E-12

> <OH Temperature>
23.0

> <LogOH>
-11.543633966870962

> <Tr_1_Tst_0>
1

$$$$
100447
  Mrv171c012241912032D          

  9  8  0  0  0  0            999 V2000
    0.8250    0.0000    0.0000 C   0  0  0  0  0  0  0  0  0  0  0  0
    1.2375    0.7145    0.0000 F   0  0  0  0  0  0  0  0  0  0  0  0
    1.2375   -0.7145    0.0000 C   0  0  0  0  0  0  0  0  0  0  0  0
    1.6500   -1.4289    0.0000 O   0  0  0  0  0  0  0  0  0  0  0  0
    1.2375   -2.1434    0.0000 C   0  0  0  0  0  0  0  0  0  0  0  0
    1.6500   -2.8579    0.0000 C   0  0  0  0  0  0  0  0  0  0  0  0
    0.5230   -1.1270    0.0000 F   0  0  0  0  0  0  0  0  0  0  0  0
    1.9520   -0.3020    0.0000 F   0  0  0  0  0  0  0  0  0  0  0  0
   -0.0000    0.0000    0.0000 F   0  0  0  0  0  0  0  0  0  0  0  0
  1  2  1  0  0  0  0
  1  3  1  0  0  0  0
  3  4  1  0  0  0  0
  4  5  1  0  0  0  0
  5  6  1  0  0  0  0
  3  7  1  0  0  0  0
  3  8  1  0  0  0  0
  1  9  1  0  0  0  0
M  END
> <ChemID>
100447

> <CAS>
512-51-6

> <Original_SMILES>
CCOC(F)(F)C(F)F

> <preferred_name>
Ethane, 1-ethoxy-1,1,2,2-tetrafluoro-

> <dsstox_substance_id>
DTXSID4075249

> <dsstox_compound_id>
DTXCID3040982

> <qc_level>
Public_High

> <Canonical_QSARr>
CCOC(F)(F)C(F)F

> <InChI_Code_QSARr>
InChI=1S/C4H6F4O/c1-2-9-4(7,8)3(5)6/h3H,2H2,1H3

> <InChI Key_QSARr>
HBRLMDFVVMYNFH-UHFFFAOYSA-N

> <Salt_Solvent>


> <Salt_Solvent_ID>
0

> <MPID>
98991

> <OH Reference>
TOKUHASHI,K ET AL. (1999A)

> <OH>
2.24E-13

> <OH Temperature>
25.0

> <LogOH>
-12.649751981665817

> <Tr_1_Tst_0>
1

$$$$
100448
  Mrv171c012241912032D          

  8  7  0  0  0  0            999 V2000
    1.8301   -0.5244    0.0000 O   0  0  0  0  0  0  0  0  0  0  0  0
    1.4176   -1.2389    0.0000 P   0  0  0  0  0  0  0  0  0  0  0  0
    0.7031   -0.8264    0.0000 O   0  0  0  0  0  0  0  0  0  0  0  0
   -0.0114   -1.2389    0.0000 C   0  0  0  0  0  0  0  0  0  0  0  0
    2.1320   -1.6514    0.0000 O   0  0  0  0  0  0  0  0  0  0  0  0
    2.8465   -1.2389    0.0000 C   0  0  0  0  0  0  0  0  0  0  0  0
    1.0051   -1.9534    0.0000 O   0  0  0  0  0  0  0  0  0  0  0  0
    0.1801   -1.9534    0.0000 C   0  0  0  0  0  0  0  0  0  0  0  0
  1  2  2  0  0  0  0
  2  3  1  0  0  0  0
  3  4  1  0  0  0  0
  2  5  1  0  0  0  0
  5  6  1  0  0  0  0
  2  7  1  0  0  0  0
  7  8  1  0  0  0  0
M  END
> <ChemID>
100448

> <CAS>
512-56-1

> <Original_SMILES>
COP(=O)(OC)OC

> <preferred_name>
Trimethyl phosphate

> <dsstox_substance_id>
DTXSID1021403

> <dsstox_compound_id>
DTXCID101403

> <qc_level>
DSSTox_Low

> <Canonical_QSARr>
COP(=O)(OC)OC

> <InChI_Code_QSARr>
InChI=1S/C3H9O4P/c1-5-8(4,6-2)7-3/h1-3H3

> <InChI Key_QSARr>
WVLBCYQITXONBZ-UHFFFAOYSA-N

> <Salt_Solvent>


> <Salt_Solvent_ID>
0

> <MPID>
98992

> <OH Reference>
KWOK,ESC & ATKINSON,R (1994)

> <OH>
7.37E-12

> <OH Temperature>
25.0

> <LogOH>
-11.132532512140946

> <Tr_1_Tst_0>
0

$$$$
100450
  Mrv171c012241912032D          

  5  4  0  0  0  0            999 V2000
    1.3209   -0.0004    0.0000 C   0  0  0  0  0  0  0  0  0  0  0  0
    0.9084   -0.7148    0.0000 C   0  0  0  0  0  0  0  0  0  0  0  0
    1.3209   -1.4293    0.0000 C   0  0  0  0  0  0  0  0  0  0  0  0
    0.0834   -0.7148    0.0000 C   0  0  0  0  0  0  0  0  0  0  0  0
   -0.3291   -1.4293    0.0000 C   0  0  0  0  0  0  0  0  0  0  0  0
  1  2  1  0  0  0  0
  2  3  1  0  0  0  0
  2  4  2  0  0  0  0
  4  5  1  0  0  0  0
M  END
> <ChemID>
100450

> <CAS>
513-35-9

> <Original_SMILES>
CC=C(C)C

> <preferred_name>
2-Methyl-2-butene

> <dsstox_substance_id>
DTXSID8027165

> <dsstox_compound_id>
DTXCID707165

> <qc_level>
DSSTox_Low

> <Canonical_QSARr>
CC=C(C)C

> <InChI_Code_QSARr>
InChI=1S/C5H10/c1-4-5(2)3/h4H,1-3H3

> <InChI Key_QSARr>
BKOOMYPCSUNDGP-UHFFFAOYSA-N

> <Salt_Solvent>


> <Salt_Solvent_ID>
0

> <MPID>
98993

> <OH Reference>
ATKINSON,R (1989)

> <OH>
8.689999999999999E-11

> <OH Temperature>
25.0

> <LogOH>
-10.060980223551331

> <Tr_1_Tst_0>
1

$$$$
100451
  Mrv171c012241912032D          

  5  4  0  0  0  0            999 V2000
    1.0725    0.1429    0.0000 C   0  0  0  0  0  0  0  0  0  0  0  0
    1.8975    0.1429    0.0000 C   0  0  0  0  0  0  0  0  0  0  0  0
    0.6600   -0.5716    0.0000 C   0  0  0  0  0  0  0  0  0  0  0  0
    0.6600    0.8574    0.0000 C   0  0  0  0  0  0  0  0  0  0  0  0
   -0.1650    0.8574    0.0000 S   0  0  0  0  0  0  0  0  0  0  0  0
  1  2  1  0  0  0  0
  1  3  1  0  0  0  0
  1  4  1  0  0  0  0
  4  5  1  0  0  0  0
M  END
> <ChemID>
100451

> <CAS>
513-44-0

> <Original_SMILES>
CC(C)CS

> <preferred_name>
1-Propanethiol, 2-methyl-

> <dsstox_substance_id>
DTXSID9060156

> <dsstox_compound_id>
DTXCID2040999

> <qc_level>
Public_High

> <Canonical_QSARr>
CC(C)CS

> <InChI_Code_QSARr>
InChI=1S/C4H10S/c1-4(2)3-5/h4-5H,3H2,1-2H3

> <InChI Key_QSARr>
BDFAOUQQXJIZDG-UHFFFAOYSA-N

> <Salt_Solvent>


> <Salt_Solvent_ID>
0

> <MPID>
98994

> <OH Reference>
ATKINSON,R (1989)

> <OH>
4.499999999999999E-11

> <OH Temperature>
25.0

> <LogOH>
-10.346787486224644

> <Tr_1_Tst_0>
1

$$$$
100452
  Mrv171c012241912032D          

  5  4  0  0  0  0            999 V2000
    2.0765   -0.5535    0.0000 C   0  0  0  0  0  0  0  0  0  0  0  0
    1.2515   -0.5535    0.0000 C   0  0  0  0  0  0  0  0  0  0  0  0
    0.8390   -1.2679    0.0000 S   0  0  0  0  0  0  0  0  0  0  0  0
    0.8390    0.1610    0.0000 C   0  0  0  0  0  0  0  0  0  0  0  0
    0.0140    0.1610    0.0000 C   0  0  0  0  0  0  0  0  0  0  0  0
  1  2  1  0  0  0  0
  2  3  1  0  0  0  0
  2  4  1  0  0  0  0
  4  5  1  0  0  0  0
M  END
> <ChemID>
100452

> <CAS>
513-53-1

> <Original_SMILES>
CCC(C)S

> <preferred_name>
2-Butanethiol

> <dsstox_substance_id>
DTXSID1041396

> <dsstox_compound_id>
DTXCID9021396

> <qc_level>
DSSTox_Low

> <Canonical_QSARr>
CCC(C)S

> <InChI_Code_QSARr>
InChI=1S/C4H10S/c1-3-4(2)5/h4-5H,3H2,1-2H3

> <InChI Key_QSARr>
LOCHFZBWPCLPAN-UHFFFAOYSA-N

> <Salt_Solvent>


> <Salt_Solvent_ID>
0

> <MPID>
98995

> <OH Reference>
ATKINSON,R (1989)

> <OH>
4.000000000000001E-11

> <OH Temperature>
25.0

> <LogOH>
-10.39794000867203

> <Tr_1_Tst_0>
1

$$$$
100453
  Mrv171c012241912032D          

  6  5  0  0  0  0            999 V2000
    1.2370   -2.1431    0.0000 C   0  0  0  0  0  0  0  0  0  0  0  0
    0.8245   -1.4286    0.0000 C   0  0  0  0  0  0  0  0  0  0  0  0
    1.2370   -0.7141    0.0000 C   0  0  0  0  0  0  0  0  0  0  0  0
    0.8245    0.0003    0.0000 C   0  0  0  0  0  0  0  0  0  0  0  0
    2.0620   -0.7141    0.0000 C   0  0  0  0  0  0  0  0  0  0  0  0
   -0.0005   -1.4286    0.0000 C   0  0  0  0  0  0  0  0  0  0  0  0
  1  2  2  0  0  0  0
  2  3  1  0  0  0  0
  3  4  2  0  0  0  0
  3  5  1  0  0  0  0
  2  6  1  0  0  0  0
M  END
> <ChemID>
100453

> <CAS>
513-81-5

> <Original_SMILES>
CC(=C)C(C)=C

> <preferred_name>
2,3-Dimethyl-1,3-butadiene

> <dsstox_substance_id>
DTXSID2022046

> <dsstox_compound_id>
DTXCID802046

> <qc_level>
DSSTox_Low

> <Canonical_QSARr>
CC(=C)C(C)=C

> <InChI_Code_QSARr>
InChI=1S/C6H10/c1-5(2)6(3)4/h1,3H2,2,4H3

> <InChI Key_QSARr>
SDJHPPZKZZWAKF-UHFFFAOYSA-N

> <Salt_Solvent>


> <Salt_Solvent_ID>
0

> <MPID>
98996

> <OH Reference>
ATKINSON,R (1989)

> <OH>
1.22E-10

> <OH Temperature>
25.0

> <LogOH>
-9.913640169325255

> <Tr_1_Tst_0>
0

$$$$
100454
  Mrv171c012241912032D          

  6  5  0  0  0  0            999 V2000
    0.8245   -1.4286    0.0000 C   0  0  0  0  0  0  0  0  0  0  0  0
    1.2370   -0.7141    0.0000 C   0  0  0  0  0  0  0  0  0  0  0  0
    0.8245    0.0003    0.0000 O   0  0  0  0  0  0  0  0  0  0  0  0
    2.0620   -0.7141    0.0000 C   0  0  0  0  0  0  0  0  0  0  0  0
    1.2370   -2.1431    0.0000 O   0  0  0  0  0  0  0  0  0  0  0  0
   -0.0005   -1.4286    0.0000 C   0  0  0  0  0  0  0  0  0  0  0  0
  1  2  1  0  0  0  0
  2  3  2  0  0  0  0
  2  4  1  0  0  0  0
  1  5  1  0  0  0  0
  1  6  1  0  0  0  0
M  END
> <ChemID>
100454

> <CAS>
513-86-0

> <Original_SMILES>
CC(O)C(C)=O

> <preferred_name>
Acetoin

> <dsstox_substance_id>
DTXSID0024399

> <dsstox_compound_id>
DTXCID304399

> <qc_level>
DSSTox_Low

> <Canonical_QSARr>
CC(O)C(C)=O

> <InChI_Code_QSARr>
InChI=1S/C4H8O2/c1-3(5)4(2)6/h3,5H,1-2H3

> <InChI Key_QSARr>
ROWKJAVDOGWPAT-UHFFFAOYSA-N

> <Salt_Solvent>


> <Salt_Solvent_ID>
0

> <MPID>
98997

> <OH Reference>
ASCHMANN,SM ET AL. (2000)

> <OH>
1.03E-11

> <OH Temperature>
23.0

> <LogOH>
-10.987162775294845

> <Tr_1_Tst_0>
1

$$$$
100455
  Mrv171c012241912032D          

  9  9  0  0  0  0            999 V2000
    2.1436   -1.2419    0.0000 C   0  0  0  0  0  0  0  0  0  0  0  0
    2.8581   -0.8294    0.0000 C   0  0  0  0  0  0  0  0  0  0  0  0
    1.4292   -0.8294    0.0000 C   0  0  0  0  0  0  0  0  0  0  0  0
    1.4292   -0.0044    0.0000 C   0  0  0  0  0  0  0  0  0  0  0  0
    0.7147   -1.2419    0.0000 C   0  0  0  0  0  0  0  0  0  0  0  0
    0.0002   -0.8294    0.0000 C   0  0  0  0  0  0  0  0  0  0  0  0
    0.7147   -2.0669    0.0000 C   0  0  0  0  0  0  0  0  0  0  0  0
    1.4292   -2.4794    0.0000 C   0  0  0  0  0  0  0  0  0  0  0  0
    2.1436   -2.0669    0.0000 C   0  0  0  0  0  0  0  0  0  0  0  0
  1  2  1  0  0  0  0
  3  1  1  0  0  0  0
  3  4  1  0  0  0  0
  5  3  2  0  0  0  0
  5  6  1  0  0  0  0
  7  5  1  0  0  0  0
  8  7  2  0  0  0  0
  9  8  1  0  0  0  0
  1  9  2  0  0  0  0
M  END
> <ChemID>
100455

> <CAS>
526-73-8

> <Original_SMILES>
Cc1c(C)cccc1C

> <preferred_name>
1,2,3-Trimethylbenzene

> <dsstox_substance_id>
DTXSID8047769

> <dsstox_compound_id>
DTXCID7027750

> <qc_level>
DSSTox_Low

> <Canonical_QSARr>
CC1C=CC=C(C)C=1C

> <InChI_Code_QSARr>
InChI=1S/C9H12/c1-7-5-4-6-8(2)9(7)3/h4-6H,1-3H3

> <InChI Key_QSARr>
FYGHSUNMUKGBRK-UHFFFAOYSA-N

> <Salt_Solvent>


> <Salt_Solvent_ID>
0

> <MPID>
98998

> <OH Reference>
ATKINSON,R (1989)

> <OH>
3.269999999999999E-11

> <OH Temperature>
25.0

> <LogOH>
-10.485452247339694

> <Tr_1_Tst_0>
1

$$$$
100456
  Mrv171c012241912032D          

  9  9  0  0  0  0            999 V2000
    2.3959   -0.7881    0.0000 C   0  0  0  0  0  0  0  0  0  0  0  0
    1.6815   -1.2006    0.0000 C   0  0  0  0  0  0  0  0  0  0  0  0
    0.9670   -0.7881    0.0000 C   0  0  0  0  0  0  0  0  0  0  0  0
    0.9670    0.0369    0.0000 O   0  0  0  0  0  0  0  0  0  0  0  0
    0.2525   -1.2006    0.0000 C   0  0  0  0  0  0  0  0  0  0  0  0
    0.2525   -2.0256    0.0000 C   0  0  0  0  0  0  0  0  0  0  0  0
    0.9670   -2.4381    0.0000 C   0  0  0  0  0  0  0  0  0  0  0  0
    1.6815   -2.0256    0.0000 C   0  0  0  0  0  0  0  0  0  0  0  0
    2.3959   -2.4381    0.0000 C   0  0  0  0  0  0  0  0  0  0  0  0
  1  2  1  0  0  0  0
  3  2  1  0  0  0  0
  3  4  1  0  0  0  0
  5  3  2  0  0  0  0
  6  5  1  0  0  0  0
  7  6  2  0  0  0  0
  8  7  1  0  0  0  0
  2  8  2  0  0  0  0
  8  9  1  0  0  0  0
M  END
> <ChemID>
100456

> <CAS>
526-75-0

> <Original_SMILES>
Cc1cccc(O)c1C

> <preferred_name>
2,3-Dimethylphenol

> <dsstox_substance_id>
DTXSID6025143

> <dsstox_compound_id>
DTXCID105143

> <qc_level>
DSSTox_Low

> <Canonical_QSARr>
CC1C(O)=CC=CC=1C

> <InChI_Code_QSARr>
InChI=1S/C8H10O/c1-6-4-3-5-8(9)7(6)2/h3-5,9H,1-2H3

> <InChI Key_QSARr>
QWBBPBRQALCEIZ-UHFFFAOYSA-N

> <Salt_Solvent>


> <Salt_Solvent_ID>
0

> <MPID>
98999

> <OH Reference>
KWOK,ESC & ATKINSON,R (1994)

> <OH>
8.020000000000003E-11

> <OH Temperature>
25.0

> <LogOH>
-10.095825631715844

> <Tr_1_Tst_0>
1

$$$$
100457
  Mrv171c012241912032D          

  6  5  0  0  0  0            999 V2000
    1.4186   -0.8259    0.0000 C   0  0  0  0  0  0  0  0  0  0  0  0
    1.8311   -1.5404    0.0000 O   0  0  0  0  0  0  0  0  0  0  0  0
    1.4186   -2.2549    0.0000 C   0  0  0  0  0  0  0  0  0  0  0  0
    1.8311   -0.1115    0.0000 O   0  0  0  0  0  0  0  0  0  0  0  0
    1.4186    0.6030    0.0000 C   0  0  0  0  0  0  0  0  0  0  0  0
    0.5936   -0.8259    0.0000 C   0  0  0  0  0  0  0  0  0  0  0  0
  1  2  1  0  0  0  0
  2  3  1  0  0  0  0
  1  4  1  0  0  0  0
  4  5  1  0  0  0  0
  1  6  1  0  0  0  0
M  END
> <ChemID>
100457

> <CAS>
534-15-6

> <Original_SMILES>
CC(OC)OC

> <preferred_name>
1,1-Dimethoxyethane

> <dsstox_substance_id>
DTXSID7027178

> <dsstox_compound_id>
DTXCID207178

> <qc_level>
DSSTox_Low

> <Canonical_QSARr>
CC(OC)OC

> <InChI_Code_QSARr>
InChI=1S/C4H10O2/c1-4(5-2)6-3/h4H,1-3H3

> <InChI Key_QSARr>
SPEUIVXLLWOEMJ-UHFFFAOYSA-N

> <Salt_Solvent>


> <Salt_Solvent_ID>
0

> <MPID>
99000

> <OH Reference>
ATKINSON,R (1989)

> <OH>
8.89E-12

> <OH Temperature>
25.0

> <LogOH>
-11.05109823902977

> <Tr_1_Tst_0>
0

$$$$
100458
  Mrv171c012241912032D          

  6  6  0  0  0  0            999 V2000
    1.2717    0.6061    0.0000 C   0  0  0  0  0  0  0  0  0  0  0  0
    1.2717   -0.2189    0.0000 C   0  0  0  0  0  0  0  0  0  0  0  0
    0.6043   -0.7038    0.0000 O   0  0  0  0  0  0  0  0  0  0  0  0
    0.8592   -1.4885    0.0000 C   0  0  0  0  0  0  0  0  0  0  0  0
    1.6842   -1.4885    0.0000 C   0  0  0  0  0  0  0  0  0  0  0  0
    1.9392   -0.7038    0.0000 C   0  0  0  0  0  0  0  0  0  0  0  0
  1  2  1  0  0  0  0
  3  2  1  0  0  0  0
  4  3  1  0  0  0  0
  5  4  2  0  0  0  0
  6  5  1  0  0  0  0
  2  6  2  0  0  0  0
M  END
> <ChemID>
100458

> <CAS>
534-22-5

> <Original_SMILES>
Cc1ccco1

> <preferred_name>
2-Methylfuran

> <dsstox_substance_id>
DTXSID9025611

> <dsstox_compound_id>
DTXCID405611

> <qc_level>
DSSTox_Low

> <Canonical_QSARr>
CC1=CC=CO1

> <InChI_Code_QSARr>
InChI=1S/C5H6O/c1-5-3-2-4-6-5/h2-4H,1H3

> <InChI Key_QSARr>
VQKFNUFAXTZWDK-UHFFFAOYSA-N

> <Salt_Solvent>


> <Salt_Solvent_ID>
0

> <MPID>
99001

> <OH Reference>
BIERBACH,A ET AL. (1992)

> <OH>
6.19E-11

> <OH Temperature>
27.0

> <LogOH>
-10.208309350979881

> <Tr_1_Tst_0>
1

$$$$
100459
  Mrv171c012241912032D          

  4  3  0  0  0  0            999 V2000
    1.2962   -0.5987    0.0000 C   0  0  0  0  0  0  0  0  0  0  0  0
    2.1212   -0.5987    0.0000 Cl  0  0  0  0  0  0  0  0  0  0  0  0
    0.8837    0.1158    0.0000 C   0  0  0  0  0  0  0  0  0  0  0  0
    0.0587    0.1158    0.0000 C   0  0  0  0  0  0  0  0  0  0  0  0
  1  2  1  0  0  0  0
  1  3  1  0  0  0  0
  3  4  1  0  0  0  0
M  END
> <ChemID>
100459

> <CAS>
540-54-5

> <Original_SMILES>
CCCCl

> <preferred_name>
1-Chloropropane

> <dsstox_substance_id>
DTXSID3051462

> <dsstox_compound_id>
DTXCID708459

> <qc_level>
DSSTox_High

> <Canonical_QSARr>
CCCCl

> <InChI_Code_QSARr>
InChI=1S/C3H7Cl/c1-2-3-4/h2-3H2,1H3

> <InChI Key_QSARr>
SNMVRZFUUCLYTO-UHFFFAOYSA-N

> <Salt_Solvent>


> <Salt_Solvent_ID>
0

> <MPID>
99002

> <OH Reference>
DONAGHY,T ET AL. (1993)

> <OH>
1.12E-12

> <OH Temperature>
25.0

> <LogOH>
-11.950781977329799

> <Tr_1_Tst_0>
1

$$$$
100460
  Mrv171c012241912032D          

  8  7  0  0  0  0            999 V2000
    1.3964   -0.1388    0.0000 C   0  0  0  0  0  0  0  0  0  0  0  0
    0.9839    0.5757    0.0000 C   0  0  0  0  0  0  0  0  0  0  0  0
    0.6819   -0.5513    0.0000 C   0  0  0  0  0  0  0  0  0  0  0  0
    2.1109    0.2737    0.0000 C   0  0  0  0  0  0  0  0  0  0  0  0
    1.8089   -0.8532    0.0000 C   0  0  0  0  0  0  0  0  0  0  0  0
    1.3964   -1.5677    0.0000 C   0  0  0  0  0  0  0  0  0  0  0  0
    1.8089   -2.2822    0.0000 C   0  0  0  0  0  0  0  0  0  0  0  0
    0.5714   -1.5677    0.0000 C   0  0  0  0  0  0  0  0  0  0  0  0
  1  2  1  0  0  0  0
  1  3  1  0  0  0  0
  1  4  1  0  0  0  0
  1  5  1  0  0  0  0
  5  6  1  0  0  0  0
  6  7  1  0  0  0  0
  6  8  1  0  0  0  0
M  END
> <ChemID>
100460

> <CAS>
540-84-1

> <Original_SMILES>
CC(C)CC(C)(C)C

> <preferred_name>
2,2,4-Trimethylpentane

> <dsstox_substance_id>
DTXSID7024370

> <dsstox_compound_id>
DTXCID104370

> <qc_level>
DSSTox_Low

> <Canonical_QSARr>
CC(C)CC(C)(C)C

> <InChI_Code_QSARr>
InChI=1S/C8H18/c1-7(2)6-8(3,4)5/h7H,6H2,1-5H3

> <InChI Key_QSARr>
NHTMVDHEPJAVLT-UHFFFAOYSA-N

> <Salt_Solvent>


> <Salt_Solvent_ID>
0

> <MPID>
99003

> <OH Reference>
ATKINSON,R (1989)

> <OH>
3.68E-12

> <OH Temperature>
25.0

> <LogOH>
-11.434152181326477

> <Tr_1_Tst_0>
1

$$$$
100461
  Mrv171c012241912032D          

  8  7  0  0  0  0            999 V2000
    1.1619   -2.3214    0.0000 O   0  0  0  0  0  0  0  0  0  0  0  0
    1.1619   -1.4964    0.0000 C   0  0  0  0  0  0  0  0  0  0  0  0
    0.4474   -1.0839    0.0000 C   0  0  0  0  0  0  0  0  0  0  0  0
    1.8763   -1.0839    0.0000 O   0  0  0  0  0  0  0  0  0  0  0  0
    1.8763   -0.2589    0.0000 C   0  0  0  0  0  0  0  0  0  0  0  0
    1.8763    0.5661    0.0000 C   0  0  0  0  0  0  0  0  0  0  0  0
    2.7013   -0.2589    0.0000 C   0  0  0  0  0  0  0  0  0  0  0  0
    1.0513   -0.2589    0.0000 C   0  0  0  0  0  0  0  0  0  0  0  0
  1  2  2  0  0  0  0
  2  3  1  0  0  0  0
  2  4  1  0  0  0  0
  4  5  1  0  0  0  0
  5  6  1  0  0  0  0
  5  7  1  0  0  0  0
  5  8  1  0  0  0  0
M  END
> <ChemID>
100461

> <CAS>
540-88-5

> <Original_SMILES>
CC(=O)OC(C)(C)C

> <preferred_name>
tert-Butyl acetate

> <dsstox_substance_id>
DTXSID1022055

> <dsstox_compound_id>
DTXCID702055

> <qc_level>
DSSTox_Low

> <Canonical_QSARr>
CC(=O)OC(C)(C)C

> <InChI_Code_QSARr>
InChI=1S/C6H12O2/c1-5(7)8-6(2,3)4/h1-4H3

> <InChI Key_QSARr>
WMOVHXAZOJBABW-UHFFFAOYSA-N

> <Salt_Solvent>


> <Salt_Solvent_ID>
0

> <MPID>
99004

> <OH Reference>
KWOK,ESC & ATKINSON,R (1994)

> <OH>
4.499999999999999E-13

> <OH Temperature>
25.0

> <LogOH>
-12.346787486224647

> <Tr_1_Tst_0>
0

$$$$
100462
  Mrv171c012241912032D          

 20 20  0  0  0  0            999 V2000
    2.8631   -0.8489    0.0000 O   0  0  0  0  0  0  0  0  0  0  0  0
    2.0530   -1.0048    0.0000 Si  0  0  0  0  0  0  0  0  0  0  0  0
    2.0401   -0.1799    0.0000 C   0  0  0  0  0  0  0  0  0  0  0  0
    1.2384   -0.8743    0.0000 C   0  0  0  0  0  0  0  0  0  0  0  0
    1.7829   -1.7844    0.0000 O   0  0  0  0  0  0  0  0  0  0  0  0
    0.9728   -1.9403    0.0000 Si  0  0  0  0  0  0  0  0  0  0  0  0
    0.9599   -1.1154    0.0000 C   0  0  0  0  0  0  0  0  0  0  0  0
    0.1582   -1.8097    0.0000 C   0  0  0  0  0  0  0  0  0  0  0  0
    0.7028   -2.7199    0.0000 O   0  0  0  0  0  0  0  0  0  0  0  0
    1.2428   -3.3435    0.0000 Si  0  0  0  0  0  0  0  0  0  0  0  0
    0.5349   -3.7671    0.0000 C   0  0  0  0  0  0  0  0  0  0  0  0
    1.5371   -4.1142    0.0000 C   0  0  0  0  0  0  0  0  0  0  0  0
    2.0530   -3.1876    0.0000 O   0  0  0  0  0  0  0  0  0  0  0  0
    2.3230   -2.4080    0.0000 Si  0  0  0  0  0  0  0  0  0  0  0  0
    2.6172   -3.1788    0.0000 C   0  0  0  0  0  0  0  0  0  0  0  0
    3.0438   -2.8093    0.0000 C   0  0  0  0  0  0  0  0  0  0  0  0
    3.1332   -2.2521    0.0000 O   0  0  0  0  0  0  0  0  0  0  0  0
    3.4032   -1.4726    0.0000 Si  0  0  0  0  0  0  0  0  0  0  0  0
    4.1917   -1.7152    0.0000 C   0  0  0  0  0  0  0  0  0  0  0  0
    4.0453   -0.9546    0.0000 C   0  0  0  0  0  0  0  0  0  0  0  0
  2  1  1  0  0  0  0
  2  3  1  0  0  0  0
  2  4  1  0  0  0  0
  5  2  1  0  0  0  0
  6  5  1  0  0  0  0
  6  7  1  0  0  0  0
  6  8  1  0  0  0  0
  9  6  1  0  0  0  0
 10  9  1  0  0  0  0
 10 11  1  0  0  0  0
 10 12  1  0  0  0  0
 13 10  1  0  0  0  0
 14 13  1  0  0  0  0
 14 15  1  0  0  0  0
 14 16  1  0  0  0  0
 17 14  1  0  0  0  0
 18 17  1  0  0  0  0
  1 18  1  0  0  0  0
 18 19  1  0  0  0  0
 18 20  1  0  0  0  0
M  END
> <ChemID>
100462

> <CAS>
541-02-6

> <Original_SMILES>
C[Si]1(C)O[Si](C)(C)O[Si](C)(C)O[Si](C)(C)O[Si](C)(C)O1

> <preferred_name>
Decamethylcyclopentasiloxane

> <dsstox_substance_id>
DTXSID1027184

> <dsstox_compound_id>
DTXCID907184

> <qc_level>
DSSTox_Low

> <Canonical_QSARr>
C[Si]1(C)O[Si](C)(C)O[Si](C)(C)O[Si](C)(C)O[Si](C)(C)O1

> <InChI_Code_QSARr>
InChI=1S/C10H30O5Si5/c1-16(2)11-17(3,4)13-19(7,8)15-20(9,10)14-18(5,6)12-16/h1-10H3

> <InChI Key_QSARr>
XMSXQFUHVRWGNA-UHFFFAOYSA-N

> <Salt_Solvent>


> <Salt_Solvent_ID>
0

> <MPID>
99005

> <OH Reference>
ATKINSON,R (1991)

> <OH>
1.55E-12

> <OH Temperature>
25.0

> <LogOH>
-11.80966830182971

> <Tr_1_Tst_0>
1

$$$$
100463
  Mrv171c012241912032D          

 12 12  0  0  0  0            999 V2000
    1.8259   -1.1186    0.0000 O   0  0  0  0  0  0  0  0  0  0  0  0
    1.1114   -0.7061    0.0000 Si  0  0  0  0  0  0  0  0  0  0  0  0
    1.6417   -0.0741    0.0000 C   0  0  0  0  0  0  0  0  0  0  0  0
    0.5812   -0.0741    0.0000 C   0  0  0  0  0  0  0  0  0  0  0  0
    0.3970   -1.1186    0.0000 O   0  0  0  0  0  0  0  0  0  0  0  0
    0.3970   -1.9436    0.0000 Si  0  0  0  0  0  0  0  0  0  0  0  0
   -0.4155   -1.8004    0.0000 C   0  0  0  0  0  0  0  0  0  0  0  0
    0.1148   -2.7189    0.0000 C   0  0  0  0  0  0  0  0  0  0  0  0
    1.1114   -2.3561    0.0000 O   0  0  0  0  0  0  0  0  0  0  0  0
    1.8259   -1.9436    0.0000 Si  0  0  0  0  0  0  0  0  0  0  0  0
    2.2631   -2.6432    0.0000 C   0  0  0  0  0  0  0  0  0  0  0  0
    2.6504   -1.9724    0.0000 C   0  0  0  0  0  0  0  0  0  0  0  0
  2  1  1  0  0  0  0
  2  3  1  0  0  0  0
  2  4  1  0  0  0  0
  5  2  1  0  0  0  0
  6  5  1  0  0  0  0
  6  7  1  0  0  0  0
  6  8  1  0  0  0  0
  9  6  1  0  0  0  0
 10  9  1  0  0  0  0
  1 10  1  0  0  0  0
 10 11  1  0  0  0  0
 10 12  1  0  0  0  0
M  END
> <ChemID>
100463

> <CAS>
541-05-9

> <Original_SMILES>
C[Si]1(C)O[Si](C)(C)O[Si](C)(C)O1

> <preferred_name>
Hexamethylcyclotrisiloxane

> <dsstox_substance_id>
DTXSID6027185

> <dsstox_compound_id>
DTXCID307185

> <qc_level>
DSSTox_Low

> <Canonical_QSARr>
C[Si]1(C)O[Si](C)(C)O[Si](C)(C)O1

> <InChI_Code_QSARr>
InChI=1S/C6H18O3Si3/c1-10(2)7-11(3,4)9-12(5,6)8-10/h1-6H3

> <InChI Key_QSARr>
HTDJPCNNEPUOOQ-UHFFFAOYSA-N

> <Salt_Solvent>


> <Salt_Solvent_ID>
0

> <MPID>
99006

> <OH Reference>
ATKINSON,R (1991)

> <OH>
5.2E-13

> <OH Temperature>
24.0

> <LogOH>
-12.283996656365193

> <Tr_1_Tst_0>
1

$$$$
100464
  Mrv171c012241912032D          

  8  8  0  0  0  0            999 V2000
    0.1795   -1.9594    0.0000 Cl  0  0  0  0  0  0  0  0  0  0  0  0
    0.8940   -1.5469    0.0000 C   0  0  0  0  0  0  0  0  0  0  0  0
    1.6084   -1.9594    0.0000 C   0  0  0  0  0  0  0  0  0  0  0  0
    2.3229   -1.5469    0.0000 C   0  0  0  0  0  0  0  0  0  0  0  0
    2.3229   -0.7219    0.0000 C   0  0  0  0  0  0  0  0  0  0  0  0
    1.6084   -0.3094    0.0000 C   0  0  0  0  0  0  0  0  0  0  0  0
    1.6084    0.5156    0.0000 Cl  0  0  0  0  0  0  0  0  0  0  0  0
    0.8940   -0.7219    0.0000 C   0  0  0  0  0  0  0  0  0  0  0  0
  1  2  1  0  0  0  0
  3  2  1  0  0  0  0
  4  3  2  0  0  0  0
  5  4  1  0  0  0  0
  6  5  2  0  0  0  0
  6  7  1  0  0  0  0
  8  6  1  0  0  0  0
  2  8  2  0  0  0  0
M  END
> <ChemID>
100464

> <CAS>
541-73-1

> <Original_SMILES>
Clc1cc(Cl)ccc1

> <preferred_name>
1,3-Dichlorobenzene

> <dsstox_substance_id>
DTXSID6022056

> <dsstox_compound_id>
DTXCID102056

> <qc_level>
DSSTox_Low

> <Canonical_QSARr>
ClC1=CC(Cl)=CC=C1

> <InChI_Code_QSARr>
InChI=1S/C6H4Cl2/c7-5-2-1-3-6(8)4-5/h1-4H

> <InChI Key_QSARr>
ZPQOPVIELGIULI-UHFFFAOYSA-N

> <Salt_Solvent>


> <Salt_Solvent_ID>
0

> <MPID>
99007

> <OH Reference>
ATKINSON,R (1989)

> <OH>
7.199999999999999E-13

> <OH Temperature>
25.0

> <LogOH>
-12.142667503568736

> <Tr_1_Tst_0>
1

$$$$
100465
  Mrv171c012241912032D          

  8  7  0  0  0  0            999 V2000
    3.7934    0.2063    0.0000 O   0  0  0  0  0  0  0  0  0  0  0  0
    3.0789   -0.2063    0.0000 C   0  0  0  0  0  0  0  0  0  0  0  0
    2.3645    0.2063    0.0000 C   0  0  0  0  0  0  0  0  0  0  0  0
    1.6500   -0.2062    0.0000 C   0  0  0  0  0  0  0  0  0  0  0  0
    2.3645    1.0313    0.0000 C   0  0  0  0  0  0  0  0  0  0  0  0
    4.5079   -0.2063    0.0000 N   0  3  0  0  0  0  0  0  0  0  0  0
    5.2223    0.2062    0.0000 O   0  0  0  0  0  0  0  0  0  0  0  0
    4.5079   -1.0313    0.0000 O   0  5  0  0  0  0  0  0  0  0  0  0
  1  2  1  0  0  0  0
  2  3  1  0  0  0  0
  3  4  1  0  0  0  0
  3  5  1  0  0  0  0
  1  6  1  0  0  0  0
  6  7  2  0  0  0  0
  6  8  1  0  0  0  0
M  CHG  2   6   1   8  -1
M  END
> <ChemID>
100465

> <CAS>
543-29-3

> <Original_SMILES>
CC(C)CO[N+]([O-])=O

> <preferred_name>
Isobutyl nitrate

> <dsstox_substance_id>
DTXSID70202655

> <dsstox_compound_id>
DTXCID00125146

> <qc_level>
Public_Medium

> <Canonical_QSARr>
CC(C)CO[N+]([O-])=O

> <InChI_Code_QSARr>
InChI=1S/C4H9NO3/c1-4(2)3-8-5(6)7/h4H,3H2,1-2H3

> <InChI Key_QSARr>
LNNXFUZKZLXPOF-UHFFFAOYSA-N

> <Salt_Solvent>


> <Salt_Solvent_ID>
0

> <MPID>
99008

> <OH Reference>
NIELSEN,OJ ET AL. (1992)

> <OH>
9.2E-13

> <OH Temperature>
22.0

> <LogOH>
-12.036212172654444

> <Tr_1_Tst_0>
0

$$$$
100466
  Mrv171c012241912032D          

  6  5  0  0  0  0            999 V2000
    0.7168    0.0029    0.0000 C   0  0  0  0  0  0  0  0  0  0  0  0
    0.0023   -0.4096    0.0000 Cl  0  0  0  0  0  0  0  0  0  0  0  0
    1.4312   -0.4096    0.0000 C   0  0  0  0  0  0  0  0  0  0  0  0
    2.1457    0.0029    0.0000 C   0  0  0  0  0  0  0  0  0  0  0  0
    2.8602   -0.4096    0.0000 C   0  0  0  0  0  0  0  0  0  0  0  0
    3.5746    0.0029    0.0000 C   0  0  0  0  0  0  0  0  0  0  0  0
  1  2  1  0  0  0  0
  1  3  1  0  0  0  0
  3  4  1  0  0  0  0
  4  5  1  0  0  0  0
  5  6  1  0  0  0  0
M  END
> <ChemID>
100466

> <CAS>
543-59-9

> <Original_SMILES>
CCCCCCl

> <preferred_name>


> <dsstox_substance_id>
DTXSID40870603

> <dsstox_compound_id>
DTXCID10818310

> <qc_level>


> <Canonical_QSARr>
CCCCCCl

> <InChI_Code_QSARr>
InChI=1S/C5H11Cl/c1-2-3-4-5-6/h2-5H2,1H3

> <InChI Key_QSARr>
SQCZQTSHSZLZIQ-UHFFFAOYSA-N

> <Salt_Solvent>


> <Salt_Solvent_ID>
0

> <MPID>
99009

> <OH Reference>
MARKERT,R & NIELSON,OJ (1992A)

> <OH>
3.36E-12

> <OH Temperature>
22.0

> <LogOH>
-11.47366072261014

> <Tr_1_Tst_0>
1

$$$$
100468
  Mrv171c012241912032D          

  7  6  0  0  0  0            999 V2000
    3.9039    1.4289    0.0000 C   0  0  0  0  0  0  0  0  0  0  0  0
    3.1894    1.8414    0.0000 C   0  0  0  0  0  0  0  0  0  0  0  0
    2.4749    1.4289    0.0000 C   0  0  0  0  0  0  0  0  0  0  0  0
    1.7605    1.8414    0.0000 Cl  0  0  0  0  0  0  0  0  0  0  0  0
    4.6184    1.8414    0.0000 C   0  0  0  0  0  0  0  0  0  0  0  0
    5.3328    1.4289    0.0000 C   0  0  0  0  0  0  0  0  0  0  0  0
    6.0473    1.8414    0.0000 C   0  0  0  0  0  0  0  0  0  0  0  0
  1  2  1  0  0  0  0
  2  3  1  0  0  0  0
  3  4  1  0  0  0  0
  1  5  1  0  0  0  0
  5  6  1  0  0  0  0
  6  7  1  0  0  0  0
M  END
> <ChemID>
100468

> <CAS>
544-10-5

> <Original_SMILES>
CCCCCCCl

> <preferred_name>
1-Chlorohexane

> <dsstox_substance_id>
DTXSID1060265

> <dsstox_compound_id>
DTXCID7041704

> <qc_level>
Public_High

> <Canonical_QSARr>
CCCCCCCl

> <InChI_Code_QSARr>
InChI=1S/C6H13Cl/c1-2-3-4-5-6-7/h2-6H2,1H3

> <InChI Key_QSARr>
MLRVZFYXUZQSRU-UHFFFAOYSA-N

> <Salt_Solvent>


> <Salt_Solvent_ID>
0

> <MPID>
99010

> <OH Reference>
MARKERT,F & NIELSEN,OJ (1992)

> <OH>
3.800000000000001E-12

> <OH Temperature>
25.0

> <LogOH>
-11.420216403383186

> <Tr_1_Tst_0>
1

$$$$
100469
  Mrv171c012241912032D          

  7  6  0  0  0  0            999 V2000
   -0.1966   -0.7422    0.0000 C   0  0  0  0  0  0  0  0  0  0  0  0
    0.5178   -1.1547    0.0000 C   0  0  0  0  0  0  0  0  0  0  0  0
    1.2323   -0.7422    0.0000 C   0  0  0  0  0  0  0  0  0  0  0  0
    1.9468   -1.1547    0.0000 C   0  0  0  0  0  0  0  0  0  0  0  0
    2.6613   -0.7422    0.0000 O   0  0  0  0  0  0  0  0  0  0  0  0
    3.3757   -1.1547    0.0000 N   0  0  0  0  0  0  0  0  0  0  0  0
    4.0902   -0.7422    0.0000 O   0  0  0  0  0  0  0  0  0  0  0  0
  1  2  1  0  0  0  0
  2  3  1  0  0  0  0
  3  4  1  0  0  0  0
  4  5  1  0  0  0  0
  5  6  1  0  0  0  0
  6  7  2  0  0  0  0
M  END
> <ChemID>
100469

> <CAS>
544-16-1

> <Original_SMILES>
CCCCON=O

> <preferred_name>
N-Butylnitrite

> <dsstox_substance_id>
DTXSID8049418

> <dsstox_compound_id>
DTXCID7029378

> <qc_level>
DSSTox_Low

> <Canonical_QSARr>
CCCCON=O

> <InChI_Code_QSARr>
InChI=1S/C4H9NO2/c1-2-3-4-7-5-6/h2-4H2,1H3

> <InChI Key_QSARr>
JQJPBYFTQAANLE-UHFFFAOYSA-N

> <Salt_Solvent>


> <Salt_Solvent_ID>
0

> <MPID>
99011

> <OH Reference>
ATKINSON,R (1994)

> <OH>
2.72E-12

> <OH Temperature>
25.0

> <LogOH>
-11.565431095965783

> <Tr_1_Tst_0>
1

$$$$
100470
  Mrv171c012241912032D          

  7  7  0  0  0  0            999 V2000
    1.5999    1.0052    0.0000 C   0  0  0  0  0  0  0  0  0  0  0  0
    0.8566    1.3632    0.0000 C   0  0  0  0  0  0  0  0  0  0  0  0
    0.1133    1.0052    0.0000 C   0  0  0  0  0  0  0  0  0  0  0  0
   -0.0703    0.2009    0.0000 C   0  0  0  0  0  0  0  0  0  0  0  0
    0.4441   -0.4441    0.0000 C   0  0  0  0  0  0  0  0  0  0  0  0
    1.2691   -0.4441    0.0000 C   0  0  0  0  0  0  0  0  0  0  0  0
    1.7835    0.2009    0.0000 C   0  0  0  0  0  0  0  0  0  0  0  0
  2  1  1  0  0  0  0
  3  2  2  0  0  0  0
  4  3  1  0  0  0  0
  5  4  2  0  0  0  0
  6  5  1  0  0  0  0
  7  6  2  0  0  0  0
  1  7  1  0  0  0  0
M  END
> <ChemID>
100470

> <CAS>
544-25-2

> <Original_SMILES>
C1C=CC=CC=C1

> <preferred_name>
1,3,5-Cycloheptatriene

> <dsstox_substance_id>
DTXSID5073909

> <dsstox_compound_id>
DTXCID7041708

> <qc_level>
Public_High

> <Canonical_QSARr>
C1C=CC=CC=C1

> <InChI_Code_QSARr>
InChI=1S/C7H8/c1-2-4-6-7-5-3-1/h1-6H,7H2

> <InChI Key_QSARr>
CHVJITGCYZJHLR-UHFFFAOYSA-N

> <Salt_Solvent>


> <Salt_Solvent_ID>
0

> <MPID>
99012

> <OH Reference>
ATKINSON,R (1989)

> <OH>
9.689999999999998E-11

> <OH Temperature>
25.0

> <LogOH>
-10.013676222949222

> <Tr_1_Tst_0>
0

$$$$
100471
  Mrv171c012241912032D          

  9  8  0  0  0  0            999 V2000
    0.0017   -0.0454    0.0000 C   0  0  0  0  0  0  0  0  0  0  0  0
    0.7161   -0.4579    0.0000 C   0  0  0  0  0  0  0  0  0  0  0  0
    1.4306   -0.0454    0.0000 C   0  0  0  0  0  0  0  0  0  0  0  0
    2.1451   -0.4579    0.0000 C   0  0  0  0  0  0  0  0  0  0  0  0
    2.8595   -0.0454    0.0000 S   0  0  0  0  0  0  0  0  0  0  0  0
    3.5740   -0.4579    0.0000 C   0  0  0  0  0  0  0  0  0  0  0  0
    4.2885   -0.0454    0.0000 C   0  0  0  0  0  0  0  0  0  0  0  0
    5.0030   -0.4579    0.0000 C   0  0  0  0  0  0  0  0  0  0  0  0
    5.7174   -0.0454    0.0000 C   0  0  0  0  0  0  0  0  0  0  0  0
  1  2  1  0  0  0  0
  2  3  1  0  0  0  0
  3  4  1  0  0  0  0
  4  5  1  0  0  0  0
  5  6  1  0  0  0  0
  6  7  1  0  0  0  0
  7  8  1  0  0  0  0
  8  9  1  0  0  0  0
M  END
> <ChemID>
100471

> <CAS>
544-40-1

> <Original_SMILES>
CCCCSCCCC

> <preferred_name>
Dibutyl sulfide

> <dsstox_substance_id>
DTXSID6022058

> <dsstox_compound_id>
DTXCID902058

> <qc_level>
DSSTox_High

> <Canonical_QSARr>
CCCCSCCCC

> <InChI_Code_QSARr>
InChI=1S/C8H18S/c1-3-5-7-9-8-6-4-2/h3-8H2,1-2H3

> <InChI Key_QSARr>
HTIRHQRTDBPHNZ-UHFFFAOYSA-N

> <Salt_Solvent>


> <Salt_Solvent_ID>
0

> <MPID>
99013

> <OH Reference>
ATKINSON,R (1994)

> <OH>
3.740000000000001E-11

> <OH Temperature>
22.0

> <LogOH>
-10.427128397799535

> <Tr_1_Tst_0>
1

$$$$
100472
  Mrv171c012241912032D          

 16 15  0  0  0  0            999 V2000
    0.0216   -0.4161    0.0000 C   0  0  0  0  0  0  0  0  0  0  0  0
    0.7360   -0.0036    0.0000 C   0  0  0  0  0  0  0  0  0  0  0  0
    1.4505   -0.4161    0.0000 C   0  0  0  0  0  0  0  0  0  0  0  0
    2.1650   -0.0036    0.0000 C   0  0  0  0  0  0  0  0  0  0  0  0
    2.8795   -0.4161    0.0000 C   0  0  0  0  0  0  0  0  0  0  0  0
    3.5939   -0.0036    0.0000 C   0  0  0  0  0  0  0  0  0  0  0  0
    4.3084   -0.4161    0.0000 C   0  0  0  0  0  0  0  0  0  0  0  0
    5.0229   -0.0036    0.0000 C   0  0  0  0  0  0  0  0  0  0  0  0
    5.7373   -0.4161    0.0000 C   0  0  0  0  0  0  0  0  0  0  0  0
    6.4518   -0.0036    0.0000 C   0  0  0  0  0  0  0  0  0  0  0  0
    7.1663   -0.4161    0.0000 C   0  0  0  0  0  0  0  0  0  0  0  0
    7.8808   -0.0036    0.0000 C   0  0  0  0  0  0  0  0  0  0  0  0
    8.5952   -0.4161    0.0000 C   0  0  0  0  0  0  0  0  0  0  0  0
    9.3097   -0.0036    0.0000 C   0  0  0  0  0  0  0  0  0  0  0  0
   10.0242   -0.4161    0.0000 C   0  0  0  0  0  0  0  0  0  0  0  0
   10.7386   -0.0036    0.0000 C   0  0  0  0  0  0  0  0  0  0  0  0
  1  2  1  0  0  0  0
  2  3  1  0  0  0  0
  3  4  1  0  0  0  0
  4  5  1  0  0  0  0
  5  6  1  0  0  0  0
  6  7  1  0  0  0  0
  7  8  1  0  0  0  0
  8  9  1  0  0  0  0
  9 10  1  0  0  0  0
 10 11  1  0  0  0  0
 11 12  1  0  0  0  0
 12 13  1  0  0  0  0
 13 14  1  0  0  0  0
 14 15  1  0  0  0  0
 15 16  1  0  0  0  0
M  END
> <ChemID>
100472

> <CAS>
544-76-3

> <Original_SMILES>
CCCCCCCCCCCCCCCC

> <preferred_name>
Hexadecane

> <dsstox_substance_id>
DTXSID0027195

> <dsstox_compound_id>
DTXCID607195

> <qc_level>
DSSTox_Low

> <Canonical_QSARr>
CCCCCCCCCCCCCCCC

> <InChI_Code_QSARr>
InChI=1S/C16H34/c1-3-5-7-9-11-13-15-16-14-12-10-8-6-4-2/h3-16H2,1-2H3

> <InChI Key_QSARr>
DCAYPVUWAIABOU-UHFFFAOYSA-N

> <Salt_Solvent>


> <Salt_Solvent_ID>
0

> <MPID>
99014

> <OH Reference>
ATKINSON,R (1989)

> <OH>
2.49E-11

> <OH Temperature>
25.0

> <LogOH>
-10.603800652904269

> <Tr_1_Tst_0>
1

$$$$
100473
  Mrv171c012241912032D          

  7  6  0  0  0  0            999 V2000
    1.5880   -0.7096    0.0000 C   0  0  0  0  0  0  0  0  0  0  0  0
    2.4130   -0.7096    0.0000 O   0  0  0  0  0  0  0  0  0  0  0  0
    1.1755    0.0049    0.0000 O   0  0  0  0  0  0  0  0  0  0  0  0
    1.5880    0.7194    0.0000 C   0  0  0  0  0  0  0  0  0  0  0  0
    1.1755   -1.4241    0.0000 C   0  0  0  0  0  0  0  0  0  0  0  0
    1.5880   -2.1385    0.0000 O   0  0  0  0  0  0  0  0  0  0  0  0
    0.3505   -1.4241    0.0000 C   0  0  0  0  0  0  0  0  0  0  0  0
  1  2  2  0  0  0  0
  1  3  1  0  0  0  0
  3  4  1  0  0  0  0
  1  5  1  0  0  0  0
  5  6  1  0  0  0  0
  5  7  1  0  0  0  0
M  END
> <ChemID>
100473

> <CAS>
547-64-8

> <Original_SMILES>
COC(=O)C(C)O

> <preferred_name>
Methyl 2-hydroxypropanoate

> <dsstox_substance_id>
DTXSID0027197

> <dsstox_compound_id>
DTXCID407197

> <qc_level>
DSSTox_Low

> <Canonical_QSARr>
COC(=O)C(C)O

> <InChI_Code_QSARr>
InChI=1S/C4H8O3/c1-3(5)4(6)7-2/h3,5H,1-2H3

> <InChI Key_QSARr>
LPEKGGXMPWTOCB-UHFFFAOYSA-N

> <Salt_Solvent>


> <Salt_Solvent_ID>
0

> <MPID>
99015

> <OH Reference>
KWOK,ESC ET AL. (1996)

> <OH>
2.8E-12

> <OH Temperature>
25.0

> <LogOH>
-11.552841968657784

> <Tr_1_Tst_0>
1

$$$$
100474
  Mrv171c012241912032D          

  9  9  0  0  0  0            999 V2000
    1.2702    0.2750    0.0000 C   0  0  0  0  0  0  0  0  0  0  0  0
    1.9846   -0.1375    0.0000 C   0  0  0  0  0  0  0  0  0  0  0  0
    1.2702    1.1000    0.0000 C   0  0  0  0  0  0  0  0  0  0  0  0
    0.5557    1.5125    0.0000 C   0  0  0  0  0  0  0  0  0  0  0  0
    0.5557    2.3375    0.0000 O   0  0  0  0  0  0  0  0  0  0  0  0
   -0.1588    1.1000    0.0000 C   0  0  0  0  0  0  0  0  0  0  0  0
   -0.1588    0.2750    0.0000 C   0  0  0  0  0  0  0  0  0  0  0  0
    0.5557   -0.1375    0.0000 C   0  0  0  0  0  0  0  0  0  0  0  0
    0.5557   -0.9625    0.0000 O   0  0  0  0  0  0  0  0  0  0  0  0
  1  2  1  0  0  0  0
  3  1  2  0  0  0  0
  4  3  1  0  0  0  0
  4  5  2  0  0  0  0
  6  4  1  0  0  0  0
  7  6  2  0  0  0  0
  8  7  1  0  0  0  0
  1  8  1  0  0  0  0
  8  9  2  0  0  0  0
M  END
> <ChemID>
100474

> <CAS>
553-97-9

> <Original_SMILES>
CC1=CC(=O)C=CC1=O

> <preferred_name>
2-Methyl-p-benzoquinone

> <dsstox_substance_id>
DTXSID8060290

> <dsstox_compound_id>
DTXCID9041869

> <qc_level>
Public_High

> <Canonical_QSARr>
CC1=CC(=O)C=CC1=O

> <InChI_Code_QSARr>
InChI=1S/C7H6O2/c1-5-4-6(8)2-3-7(5)9/h2-4H,1H3

> <InChI Key_QSARr>
VTWDKFNVVLAELH-UHFFFAOYSA-N

> <Salt_Solvent>


> <Salt_Solvent_ID>
0

> <MPID>
99016

> <OH Reference>
OLARIU,RI ET AL. (2000)

> <OH>
2.35E-11

> <OH Temperature>
27.0

> <LogOH>
-10.628932137728247

> <Tr_1_Tst_0>
0

$$$$
100475
  Mrv171c012241912032D          

  6  5  0  0  0  0            999 V2000
    1.4346   -0.8268    0.0000 C   0  0  0  0  0  0  0  0  0  0  0  0
    1.0221   -1.5413    0.0000 O   0  0  0  0  0  0  0  0  0  0  0  0
    2.2596   -0.8268    0.0000 O   0  0  0  0  0  0  0  0  0  0  0  0
    2.6721   -1.5413    0.0000 C   0  0  0  0  0  0  0  0  0  0  0  0
    1.0221   -0.1124    0.0000 C   0  0  0  0  0  0  0  0  0  0  0  0
    0.1971   -0.1124    0.0000 C   0  0  0  0  0  0  0  0  0  0  0  0
  1  2  2  0  0  0  0
  1  3  1  0  0  0  0
  3  4  1  0  0  0  0
  1  5  1  0  0  0  0
  5  6  1  0  0  0  0
M  END
> <ChemID>
100475

> <CAS>
554-12-1

> <Original_SMILES>
CCC(=O)OC

> <preferred_name>
Methyl propanoate

> <dsstox_substance_id>
DTXSID7027201

> <dsstox_compound_id>
DTXCID507201

> <qc_level>
DSSTox_Low

> <Canonical_QSARr>
CCC(=O)OC

> <InChI_Code_QSARr>
InChI=1S/C4H8O2/c1-3-4(5)6-2/h3H2,1-2H3

> <InChI Key_QSARr>
RJUFJBKOKNCXHH-UHFFFAOYSA-N

> <Salt_Solvent>


> <Salt_Solvent_ID>
0

> <MPID>
99017

> <OH Reference>
ATKINSON,R (1989)

> <OH>
1.0E-12

> <OH Temperature>
25.0

> <LogOH>
-11.999999999999979

> <Tr_1_Tst_0>
1

$$$$
100477
  Mrv171c012241912032D          

 10 10  0  0  0  0            999 V2000
    1.7918   -1.8614    0.0000 C   0  0  0  0  0  0  0  0  0  0  0  0
    1.7918   -2.6864    0.0000 C   0  0  0  0  0  0  0  0  0  0  0  0
    1.0773   -3.0989    0.0000 C   0  0  0  0  0  0  0  0  0  0  0  0
    2.5063   -3.0989    0.0000 C   0  0  0  0  0  0  0  0  0  0  0  0
    2.5063   -1.4489    0.0000 C   0  0  0  0  0  0  0  0  0  0  0  0
    2.5063   -0.6239    0.0000 C   0  0  0  0  0  0  0  0  0  0  0  0
    1.7918   -0.2114    0.0000 C   0  0  0  0  0  0  0  0  0  0  0  0
    1.7918    0.6136    0.0000 C   0  0  0  0  0  0  0  0  0  0  0  0
    1.0773   -0.6239    0.0000 C   0  0  0  0  0  0  0  0  0  0  0  0
    1.0773   -1.4489    0.0000 C   0  0  0  0  0  0  0  0  0  0  0  0
  1  2  1  0  0  0  0
  2  3  1  0  0  0  0
  2  4  1  0  0  0  0
  5  1  1  0  0  0  0
  6  5  2  0  0  0  0
  7  6  1  0  0  0  0
  7  8  2  0  0  0  0
  9  7  1  0  0  0  0
 10  9  1  0  0  0  0
  1 10  1  0  0  0  0
M  END
> <ChemID>
100477

> <CAS>
555-10-2

> <Original_SMILES>
CC(C)C1CCC(=C)C=C1

> <preferred_name>
3-Methylidene-6-(propan-2-yl)cyclohexene

> <dsstox_substance_id>
DTXSID4052215

> <dsstox_compound_id>
DTXCID201079569

> <qc_level>
DSSTox_High

> <Canonical_QSARr>
CC(C)C1CCC(=C)C=C1

> <InChI_Code_QSARr>
InChI=1S/C10H16/c1-8(2)10-6-4-9(3)5-7-10/h4,6,8,10H,3,5,7H2,1-2H3

> <InChI Key_QSARr>
LFJQCDVYDGGFCH-UHFFFAOYSA-N

> <Salt_Solvent>


> <Salt_Solvent_ID>
0

> <MPID>
99018

> <OH Reference>
ATKINSON,R (1989)

> <OH>
1.68E-10

> <OH Temperature>
25.0

> <LogOH>
-9.774690718274142

> <Tr_1_Tst_0>
1

$$$$
100479
  Mrv171c012241912032D          

 16 16  0  0  0  0            999 V2000
    2.5687   -1.0490    0.0000 O   0  0  0  0  0  0  0  0  0  0  0  0
    1.8065   -0.7333    0.0000 Si  0  0  0  0  0  0  0  0  0  0  0  0
    2.3087   -0.0788    0.0000 C   0  0  0  0  0  0  0  0  0  0  0  0
    1.3042   -0.0788    0.0000 C   0  0  0  0  0  0  0  0  0  0  0  0
    1.0443   -1.0490    0.0000 O   0  0  0  0  0  0  0  0  0  0  0  0
    0.7285   -1.8112    0.0000 Si  0  0  0  0  0  0  0  0  0  0  0  0
    0.0740   -1.3090    0.0000 C   0  0  0  0  0  0  0  0  0  0  0  0
    0.0740   -2.3135    0.0000 C   0  0  0  0  0  0  0  0  0  0  0  0
    1.0443   -2.5734    0.0000 O   0  0  0  0  0  0  0  0  0  0  0  0
    1.8065   -2.8892    0.0000 Si  0  0  0  0  0  0  0  0  0  0  0  0
    1.3042   -3.5437    0.0000 C   0  0  0  0  0  0  0  0  0  0  0  0
    2.3087   -3.5437    0.0000 C   0  0  0  0  0  0  0  0  0  0  0  0
    2.5687   -2.5734    0.0000 O   0  0  0  0  0  0  0  0  0  0  0  0
    2.8844   -1.8112    0.0000 Si  0  0  0  0  0  0  0  0  0  0  0  0
    3.6243   -2.1761    0.0000 C   0  0  0  0  0  0  0  0  0  0  0  0
    3.6243   -1.4464    0.0000 C   0  0  0  0  0  0  0  0  0  0  0  0
  2  1  1  0  0  0  0
  2  3  1  0  0  0  0
  2  4  1  0  0  0  0
  5  2  1  0  0  0  0
  6  5  1  0  0  0  0
  6  7  1  0  0  0  0
  6  8  1  0  0  0  0
  9  6  1  0  0  0  0
 10  9  1  0  0  0  0
 10 11  1  0  0  0  0
 10 12  1  0  0  0  0
 13 10  1  0  0  0  0
 14 13  1  0  0  0  0
  1 14  1  0  0  0  0
 14 15  1  0  0  0  0
 14 16  1  0  0  0  0
M  END
> <ChemID>
100479

> <CAS>
556-67-2

> <Original_SMILES>
C[Si]1(C)O[Si](C)(C)O[Si](C)(C)O[Si](C)(C)O1

> <preferred_name>
Octamethylcyclotetrasiloxane

> <dsstox_substance_id>
DTXSID7027205

> <dsstox_compound_id>
DTXCID107205

> <qc_level>
DSSTox_Low

> <Canonical_QSARr>
C[Si]1(C)O[Si](C)(C)O[Si](C)(C)O[Si](C)(C)O1

> <InChI_Code_QSARr>
InChI=1S/C8H24O4Si4/c1-13(2)9-14(3,4)11-16(7,8)12-15(5,6)10-13/h1-8H3

> <InChI Key_QSARr>
HMMGMWAXVFQUOA-UHFFFAOYSA-N

> <Salt_Solvent>


> <Salt_Solvent_ID>
0

> <MPID>
99019

> <OH Reference>
ATKINSON,R (1991)

> <OH>
1.01E-12

> <OH Temperature>
24.0

> <LogOH>
-11.995678626217364

> <Tr_1_Tst_0>
0

$$$$
100481
  Mrv171c012241912032D          

  4  3  0  0  0  0            999 V2000
    0.8250   -0.0000    0.0000 C   0  0  0  0  0  0  0  0  0  0  0  0
    1.2375    0.7145    0.0000 Br  0  0  0  0  0  0  0  0  0  0  0  0
    1.2375   -0.7145    0.0000 Br  0  0  0  0  0  0  0  0  0  0  0  0
   -0.0000   -0.0000    0.0000 C   0  0  0  0  0  0  0  0  0  0  0  0
  1  2  1  0  0  0  0
  1  3  1  0  0  0  0
  1  4  1  0  0  0  0
M  END
> <ChemID>
100481

> <CAS>
557-91-5

> <Original_SMILES>
CC(Br)Br

> <preferred_name>
Ethylidene bromide

> <dsstox_substance_id>
DTXSID3060324

> <dsstox_compound_id>
DTXCID9041944

> <qc_level>
Public_High

> <Canonical_QSARr>
CC(Br)Br

> <InChI_Code_QSARr>
InChI=1S/C2H4Br2/c1-2(3)4/h2H,1H3

> <InChI Key_QSARr>
APQIUTYORBAGEZ-UHFFFAOYSA-N

> <Salt_Solvent>


> <Salt_Solvent_ID>
0

> <MPID>
99020

> <OH Reference>
TOSATO,ML ET AL. (1991)

> <OH>
2.500000000000001E-13

> <OH Temperature>
25.0

> <LogOH>
-12.602059991327945

> <Tr_1_Tst_0>
1

$$$$
100482
  Mrv171c012241912032D          

  6  5  0  0  0  0            999 V2000
    0.4401   -1.9738    0.0000 C   0  0  0  0  0  0  0  0  0  0  0  0
    1.1546   -1.5613    0.0000 C   0  0  0  0  0  0  0  0  0  0  0  0
    1.1546   -0.7363    0.0000 C   0  0  0  0  0  0  0  0  0  0  0  0
    1.1546    0.0887    0.0000 C   0  0  0  0  0  0  0  0  0  0  0  0
    1.9796   -0.7363    0.0000 C   0  0  0  0  0  0  0  0  0  0  0  0
    0.3296   -0.7363    0.0000 C   0  0  0  0  0  0  0  0  0  0  0  0
  1  2  2  0  0  0  0
  2  3  1  0  0  0  0
  3  4  1  0  0  0  0
  3  5  1  0  0  0  0
  3  6  1  0  0  0  0
M  END
> <ChemID>
100482

> <CAS>
558-37-2

> <Original_SMILES>
CC(C)(C)C=C

> <preferred_name>
3,3-Dimethyl-1-butene

> <dsstox_substance_id>
DTXSID1027211

> <dsstox_compound_id>
DTXCID807211

> <qc_level>
DSSTox_Low

> <Canonical_QSARr>
CC(C)(C)C=C

> <InChI_Code_QSARr>
InChI=1S/C6H12/c1-5-6(2,3)4/h5H,1H2,2-4H3

> <InChI Key_QSARr>
PKXHXOTZMFCXSH-UHFFFAOYSA-N

> <Salt_Solvent>


> <Salt_Solvent_ID>
0

> <MPID>
99021

> <OH Reference>
ATKINSON,R (1989)

> <OH>
2.839999999999998E-11

> <OH Temperature>
25.0

> <LogOH>
-10.546681659952966

> <Tr_1_Tst_0>
1

$$$$
100483
  Mrv171c012241912032D          

  5  4  0  0  0  0            999 V2000
    1.0725    0.1429    0.0000 C   0  0  0  0  0  0  0  0  0  0  0  0
    1.8975    0.1429    0.0000 C   0  0  0  0  0  0  0  0  0  0  0  0
    0.6600   -0.5716    0.0000 C   0  0  0  0  0  0  0  0  0  0  0  0
    0.6600    0.8574    0.0000 C   0  0  0  0  0  0  0  0  0  0  0  0
   -0.1650    0.8574    0.0000 C   0  0  0  0  0  0  0  0  0  0  0  0
  1  2  1  0  0  0  0
  1  3  1  0  0  0  0
  1  4  1  0  0  0  0
  4  5  2  0  0  0  0
M  END
> <ChemID>
100483

> <CAS>
563-45-1

> <Original_SMILES>
CC(C)C=C

> <preferred_name>
3-Methyl-1-butene

> <dsstox_substance_id>
DTXSID7060336

> <dsstox_compound_id>
DTXCID4042048

> <qc_level>
Public_High

> <Canonical_QSARr>
CC(C)C=C

> <InChI_Code_QSARr>
InChI=1S/C5H10/c1-4-5(2)3/h4-5H,1H2,2-3H3

> <InChI Key_QSARr>
YHQXBTXEYZIYOV-UHFFFAOYSA-N

> <Salt_Solvent>


> <Salt_Solvent_ID>
0

> <MPID>
99022

> <OH Reference>
ATKINSON,R (1989)

> <OH>
3.18E-11

> <OH Temperature>
25.0

> <LogOH>
-10.497572880015559

> <Tr_1_Tst_0>
0

$$$$
100484
  Mrv171c012241912032D          

  5  4  0  0  0  0            999 V2000
    2.0724   -0.9660    0.0000 C   0  0  0  0  0  0  0  0  0  0  0  0
    1.2474   -0.9660    0.0000 C   0  0  0  0  0  0  0  0  0  0  0  0
    0.8349   -1.6804    0.0000 C   0  0  0  0  0  0  0  0  0  0  0  0
    0.8349   -0.2515    0.0000 C   0  0  0  0  0  0  0  0  0  0  0  0
    0.0099   -0.2515    0.0000 C   0  0  0  0  0  0  0  0  0  0  0  0
  1  2  2  0  0  0  0
  2  3  1  0  0  0  0
  2  4  1  0  0  0  0
  4  5  1  0  0  0  0
M  END
> <ChemID>
100484

> <CAS>
563-46-2

> <Original_SMILES>
CCC(C)=C

> <preferred_name>
2-Methylbutene

> <dsstox_substance_id>
DTXSID3052224

> <dsstox_compound_id>
DTXCID9020249

> <qc_level>
DSSTox_Low

> <Canonical_QSARr>
CCC(C)=C

> <InChI_Code_QSARr>
InChI=1S/C5H10/c1-4-5(2)3/h2,4H2,1,3H3

> <InChI Key_QSARr>
MHNNAWXXUZQSNM-UHFFFAOYSA-N

> <Salt_Solvent>


> <Salt_Solvent_ID>
0

> <MPID>
99023

> <OH Reference>
KWOK,ESC & ATKINSON,R (1994)

> <OH>
6.1E-11

> <OH Temperature>
25.0

> <LogOH>
-10.214670164989217

> <Tr_1_Tst_0>
1

$$$$
100485
  Mrv171c012241912032D          

  6  5  0  0  0  0            999 V2000
    0.8250   -0.0000    0.0000 C   0  0  0  0  0  0  0  0  0  0  0  0
    1.2375    0.7145    0.0000 C   0  0  0  0  0  0  0  0  0  0  0  0
    1.2375   -0.7145    0.0000 C   0  0  0  0  0  0  0  0  0  0  0  0
   -0.0000   -0.0000    0.0000 C   0  0  0  0  0  0  0  0  0  0  0  0
   -0.4125   -0.7145    0.0000 C   0  0  0  0  0  0  0  0  0  0  0  0
   -0.4125    0.7145    0.0000 C   0  0  0  0  0  0  0  0  0  0  0  0
  1  2  1  0  0  0  0
  1  3  1  0  0  0  0
  1  4  2  0  0  0  0
  4  5  1  0  0  0  0
  4  6  1  0  0  0  0
M  END
> <ChemID>
100485

> <CAS>
563-79-1

> <Original_SMILES>
CC(C)=C(C)C

> <preferred_name>
2-Butene, 2,3-dimethyl-

> <dsstox_substance_id>
DTXSID2060339

> <dsstox_compound_id>
DTXCID3042053

> <qc_level>
Public_High

> <Canonical_QSARr>
CC(C)=C(C)C

> <InChI_Code_QSARr>
InChI=1S/C6H12/c1-5(2)6(3)4/h1-4H3

> <InChI Key_QSARr>
WGLLSSPDPJPLOR-UHFFFAOYSA-N

> <Salt_Solvent>


> <Salt_Solvent_ID>
0

> <MPID>
99024

> <OH Reference>
ATKINSON,R (1989)

> <OH>
1.1E-10

> <OH Temperature>
25.0

> <LogOH>
-9.95860731484176

> <Tr_1_Tst_0>
1

$$$$
100486
  Mrv171c012241912032D          

  6  5  0  0  0  0            999 V2000
    1.2370   -2.1431    0.0000 C   0  0  0  0  0  0  0  0  0  0  0  0
    0.8245   -1.4286    0.0000 C   0  0  0  0  0  0  0  0  0  0  0  0
    1.2370   -0.7141    0.0000 C   0  0  0  0  0  0  0  0  0  0  0  0
    0.8245    0.0003    0.0000 C   0  0  0  0  0  0  0  0  0  0  0  0
    2.0620   -0.7141    0.0000 C   0  0  0  0  0  0  0  0  0  0  0  0
   -0.0005   -1.4286    0.0000 O   0  0  0  0  0  0  0  0  0  0  0  0
  1  2  1  0  0  0  0
  2  3  1  0  0  0  0
  3  4  1  0  0  0  0
  3  5  1  0  0  0  0
  2  6  2  0  0  0  0
M  END
> <ChemID>
100486

> <CAS>
563-80-4

> <Original_SMILES>
CC(C)C(C)=O

> <preferred_name>
3-Methyl-2-butanone

> <dsstox_substance_id>
DTXSID0022062

> <dsstox_compound_id>
DTXCID802062

> <qc_level>
DSSTox_Low

> <Canonical_QSARr>
CC(C)C(C)=O

> <InChI_Code_QSARr>
InChI=1S/C5H10O/c1-4(2)5(3)6/h4H,1-3H3

> <InChI Key_QSARr>
SYBYTAAJFKOIEJ-UHFFFAOYSA-N

> <Salt_Solvent>


> <Salt_Solvent_ID>
0

> <MPID>
99025

> <OH Reference>
LECALVE,S ET AL. (1998)

> <OH>
2.870000000000001E-12

> <OH Temperature>
25.0

> <LogOH>
-11.542118103265999

> <Tr_1_Tst_0>
1

$$$$
100487
  Mrv171c012241912032D          

  8  7  0  0  0  0            999 V2000
    1.4438    0.0000    0.0000 C   0  0  0  0  0  0  0  0  0  0  0  0
    2.2688    0.0000    0.0000 C   0  0  0  0  0  0  0  0  0  0  0  0
    1.0312    0.7145    0.0000 C   0  0  0  0  0  0  0  0  0  0  0  0
    1.4437    1.4289    0.0000 C   0  0  0  0  0  0  0  0  0  0  0  0
    0.2062    0.7145    0.0000 C   0  0  0  0  0  0  0  0  0  0  0  0
    1.0313   -0.7145    0.0000 C   0  0  0  0  0  0  0  0  0  0  0  0
    1.4438   -1.4289    0.0000 C   0  0  0  0  0  0  0  0  0  0  0  0
    0.2063   -0.7145    0.0000 C   0  0  0  0  0  0  0  0  0  0  0  0
  1  2  1  0  0  0  0
  1  3  1  0  0  0  0
  3  4  1  0  0  0  0
  3  5  1  0  0  0  0
  1  6  1  0  0  0  0
  6  7  1  0  0  0  0
  6  8  1  0  0  0  0
M  END
> <ChemID>
100487

> <CAS>
565-75-3

> <Original_SMILES>
CC(C(C)C)C(C)C

> <preferred_name>
2,3,4-Trimethylpentane

> <dsstox_substance_id>
DTXSID6060343

> <dsstox_compound_id>
DTXCID1042079

> <qc_level>
Public_High

> <Canonical_QSARr>
CC(C(C)C)C(C)C

> <InChI_Code_QSARr>
InChI=1S/C8H18/c1-6(2)8(5)7(3)4/h6-8H,1-5H3

> <InChI Key_QSARr>
RLPGDEORIPLBNF-UHFFFAOYSA-N

> <Salt_Solvent>


> <Salt_Solvent_ID>
0

> <MPID>
99026

> <OH Reference>
KWOK,ESC & ATKINSON,R (1994)

> <OH>
6.990000000000002E-12

> <OH Temperature>
25.0

> <LogOH>
-11.155522824254305

> <Tr_1_Tst_0>
0

$$$$
100488
  Mrv171c012241912032D          

  8  7  0  0  0  0            999 V2000
    1.7394    0.2918    0.0000 C   0  0  0  0  0  0  0  0  0  0  0  0
    1.3269   -0.4227    0.0000 C   0  0  0  0  0  0  0  0  0  0  0  0
    0.5019   -0.4227    0.0000 C   0  0  0  0  0  0  0  0  0  0  0  0
    1.7394   -1.1372    0.0000 C   0  0  0  0  0  0  0  0  0  0  0  0
    2.5644   -1.1372    0.0000 O   0  0  0  0  0  0  0  0  0  0  0  0
    1.3269   -1.8516    0.0000 C   0  0  0  0  0  0  0  0  0  0  0  0
    1.7394   -2.5661    0.0000 C   0  0  0  0  0  0  0  0  0  0  0  0
    0.5019   -1.8516    0.0000 C   0  0  0  0  0  0  0  0  0  0  0  0
  1  2  1  0  0  0  0
  2  3  1  0  0  0  0
  2  4  1  0  0  0  0
  4  5  2  0  0  0  0
  4  6  1  0  0  0  0
  6  7  1  0  0  0  0
  6  8  1  0  0  0  0
M  END
> <ChemID>
100488

> <CAS>
565-80-0

> <Original_SMILES>
CC(C)C(=O)C(C)C

> <preferred_name>
2,4-Dimethylpentan-3-one

> <dsstox_substance_id>
DTXSID3038771

> <dsstox_compound_id>
DTXCID1018771

> <qc_level>
DSSTox_Low

> <Canonical_QSARr>
CC(C)C(=O)C(C)C

> <InChI_Code_QSARr>
InChI=1S/C7H14O/c1-5(2)7(8)6(3)4/h5-6H,1-4H3

> <InChI Key_QSARr>
HXVNBWAKAOHACI-UHFFFAOYSA-N

> <Salt_Solvent>


> <Salt_Solvent_ID>
0

> <MPID>
99027

> <OH Reference>
ATKINSON,R (1989)

> <OH>
5.380000000000001E-12

> <OH Temperature>
25.0

> <LogOH>
-11.269217724333629

> <Tr_1_Tst_0>
1

$$$$
100489
  Mrv171c012241912032D          

  9  9  0  0  0  0            999 V2000
    2.3959   -0.7881    0.0000 Cl  0  0  0  0  0  0  0  0  0  0  0  0
    1.6815   -1.2006    0.0000 C   0  0  0  0  0  0  0  0  0  0  0  0
    0.9670   -0.7881    0.0000 C   0  0  0  0  0  0  0  0  0  0  0  0
    0.9670    0.0369    0.0000 O   0  0  0  0  0  0  0  0  0  0  0  0
    0.2525   -1.2006    0.0000 C   0  0  0  0  0  0  0  0  0  0  0  0
    0.2525   -2.0256    0.0000 C   0  0  0  0  0  0  0  0  0  0  0  0
    0.9670   -2.4381    0.0000 C   0  0  0  0  0  0  0  0  0  0  0  0
    1.6815   -2.0256    0.0000 C   0  0  0  0  0  0  0  0  0  0  0  0
    2.3959   -2.4381    0.0000 Cl  0  0  0  0  0  0  0  0  0  0  0  0
  1  2  1  0  0  0  0
  3  2  1  0  0  0  0
  3  4  1  0  0  0  0
  5  3  2  0  0  0  0
  6  5  1  0  0  0  0
  7  6  2  0  0  0  0
  8  7  1  0  0  0  0
  2  8  2  0  0  0  0
  8  9  1  0  0  0  0
M  END
> <ChemID>
100489

> <CAS>
576-24-9

> <Original_SMILES>
Oc1cccc(Cl)c1Cl

> <preferred_name>
2,3-Dichlorophenol

> <dsstox_substance_id>
DTXSID7025001

> <dsstox_compound_id>
DTXCID905001

> <qc_level>
DSSTox_Low

> <Canonical_QSARr>
OC1=CC=CC(Cl)=C1Cl

> <InChI_Code_QSARr>
InChI=1S/C6H4Cl2O/c7-4-2-1-3-5(9)6(4)8/h1-3,9H

> <InChI Key_QSARr>
UMPSXRYVXUPCOS-UHFFFAOYSA-N

> <Salt_Solvent>


> <Salt_Solvent_ID>
0

> <MPID>
99028

> <OH Reference>
ATKINSON,R (1989)

> <OH>
1.66E-12

> <OH Temperature>
25.0

> <LogOH>
-11.779891911959945

> <Tr_1_Tst_0>
1

$$$$
100490
  Mrv171c012241912032D          

  9  9  0  0  0  0            999 V2000
    2.1401   -1.2328    0.0000 C   0  0  0  0  0  0  0  0  0  0  0  0
    2.8545   -0.8203    0.0000 C   0  0  0  0  0  0  0  0  0  0  0  0
    1.4256   -0.8203    0.0000 C   0  0  0  0  0  0  0  0  0  0  0  0
    1.4256    0.0047    0.0000 O   0  0  0  0  0  0  0  0  0  0  0  0
    0.7111   -1.2328    0.0000 C   0  0  0  0  0  0  0  0  0  0  0  0
   -0.0034   -0.8203    0.0000 C   0  0  0  0  0  0  0  0  0  0  0  0
    0.7111   -2.0578    0.0000 C   0  0  0  0  0  0  0  0  0  0  0  0
    1.4256   -2.4703    0.0000 C   0  0  0  0  0  0  0  0  0  0  0  0
    2.1401   -2.0578    0.0000 C   0  0  0  0  0  0  0  0  0  0  0  0
  1  2  1  0  0  0  0
  3  1  2  0  0  0  0
  3  4  1  0  0  0  0
  5  3  1  0  0  0  0
  5  6  1  0  0  0  0
  7  5  2  0  0  0  0
  8  7  1  0  0  0  0
  9  8  2  0  0  0  0
  1  9  1  0  0  0  0
M  END
> <ChemID>
100490

> <CAS>
576-26-1

> <Original_SMILES>
Cc1cccc(C)c1O

> <preferred_name>
2,6-Dimethylphenol

> <dsstox_substance_id>
DTXSID9024063

> <dsstox_compound_id>
DTXCID404063

> <qc_level>
DSSTox_Low

> <Canonical_QSARr>
CC1C=CC=C(C)C=1O

> <InChI_Code_QSARr>
InChI=1S/C8H10O/c1-6-4-3-5-7(2)8(6)9/h3-5,9H,1-2H3

> <InChI Key_QSARr>
NXXYKOUNUYWIHA-UHFFFAOYSA-N

> <Salt_Solvent>


> <Salt_Solvent_ID>
0

> <MPID>
99029

> <OH Reference>
KWOK,ESC & ATKINSON,R (1994)

> <OH>
6.59E-11

> <OH Temperature>
25.0

> <LogOH>
-10.181114585405995

> <Tr_1_Tst_0>
1

$$$$
100491
  Mrv171c012241912032D          

 12 13  0  0  0  0            999 V2000
   -0.0000   -0.4125    0.0000 C   0  0  0  0  0  0  0  0  0  0  0  0
   -0.7145    0.0000    0.0000 C   0  0  0  0  0  0  0  0  0  0  0  0
   -1.4289   -0.4125    0.0000 C   0  0  0  0  0  0  0  0  0  0  0  0
   -1.4289   -1.2375    0.0000 C   0  0  0  0  0  0  0  0  0  0  0  0
   -0.7145   -1.6500    0.0000 C   0  0  0  0  0  0  0  0  0  0  0  0
   -0.0000   -1.2375    0.0000 C   0  0  0  0  0  0  0  0  0  0  0  0
    0.7145   -1.6500    0.0000 C   0  0  0  0  0  0  0  0  0  0  0  0
    1.4289   -1.2375    0.0000 C   0  0  0  0  0  0  0  0  0  0  0  0
    2.1434   -1.6500    0.0000 C   0  0  0  0  0  0  0  0  0  0  0  0
    1.4289   -0.4125    0.0000 C   0  0  0  0  0  0  0  0  0  0  0  0
    2.1434    0.0000    0.0000 C   0  0  0  0  0  0  0  0  0  0  0  0
    0.7145    0.0000    0.0000 C   0  0  0  0  0  0  0  0  0  0  0  0
  2  1  1  0  0  0  0
  3  2  2  0  0  0  0
  4  3  1  0  0  0  0
  5  4  2  0  0  0  0
  6  5  1  0  0  0  0
  6  1  1  0  0  0  0
  7  6  2  0  0  0  0
  8  7  1  0  0  0  0
  8  9  1  0  0  0  0
 10  8  2  0  0  0  0
 10 11  1  0  0  0  0
 12 10  1  0  0  0  0
  1 12  2  0  0  0  0
M  END
> <ChemID>
100491

> <CAS>
581-40-8

> <Original_SMILES>
Cc1cc2ccccc2cc1C

> <preferred_name>
2,3-Dimethylnaphthalene

> <dsstox_substance_id>
DTXSID2060383

> <dsstox_compound_id>
DTXCID6042317

> <qc_level>
Public_High

> <Canonical_QSARr>
CC1C=C2C=CC=CC2=CC=1C

> <InChI_Code_QSARr>
InChI=1S/C12H12/c1-9-7-11-5-3-4-6-12(11)8-10(9)2/h3-8H,1-2H3

> <InChI Key_QSARr>
WWGUMAYGTYQSGA-UHFFFAOYSA-N

> <Salt_Solvent>


> <Salt_Solvent_ID>
0

> <MPID>
99030

> <OH Reference>
PHOUSONGPHOUANG,PT & AREY,J (2002)

> <OH>
6.150000000000001E-11

> <OH Temperature>
25.0

> <LogOH>
-10.211124884224592

> <Tr_1_Tst_0>
0

$$$$
100492
  Mrv171c012241912032D          

 13 14  0  0  0  0            999 V2000
   -0.3847   -0.8567    0.0000 C   0  0  0  0  0  0  0  0  0  0  0  0
   -1.0992   -0.4442    0.0000 C   0  0  0  0  0  0  0  0  0  0  0  0
   -1.8137   -0.8567    0.0000 C   0  0  0  0  0  0  0  0  0  0  0  0
   -1.8137   -1.6817    0.0000 C   0  0  0  0  0  0  0  0  0  0  0  0
   -1.0992   -2.0942    0.0000 C   0  0  0  0  0  0  0  0  0  0  0  0
   -0.3847   -1.6817    0.0000 C   0  0  0  0  0  0  0  0  0  0  0  0
    0.3298   -2.0942    0.0000 C   0  0  0  0  0  0  0  0  0  0  0  0
    1.0442   -1.6817    0.0000 C   0  0  0  0  0  0  0  0  0  0  0  0
    1.0442   -0.8567    0.0000 C   0  0  0  0  0  0  0  0  0  0  0  0
    1.7587   -0.4442    0.0000 N   0  3  0  0  0  0  0  0  0  0  0  0
    1.7587    0.3808    0.0000 O   0  5  0  0  0  0  0  0  0  0  0  0
    2.4732   -0.8567    0.0000 O   0  0  0  0  0  0  0  0  0  0  0  0
    0.3298   -0.4442    0.0000 C   0  0  0  0  0  0  0  0  0  0  0  0
  2  1  1  0  0  0  0
  3  2  2  0  0  0  0
  4  3  1  0  0  0  0
  5  4  2  0  0  0  0
  6  5  1  0  0  0  0
  6  1  1  0  0  0  0
  7  6  2  0  0  0  0
  8  7  1  0  0  0  0
  9  8  2  0  0  0  0
  9 10  1  0  0  0  0
 10 11  1  0  0  0  0
 10 12  2  0  0  0  0
 13  9  1  0  0  0  0
  1 13  2  0  0  0  0
M  CHG  2  10   1  11  -1
M  END
> <ChemID>
100492

> <CAS>
581-89-5

> <Original_SMILES>
[O-][N+](=O)c1cc2ccccc2cc1

> <preferred_name>
2-Nitronaphthalene

> <dsstox_substance_id>
DTXSID2073198

> <dsstox_compound_id>
DTXCID5042320

> <qc_level>
Public_High

> <Canonical_QSARr>
[O-][N+](=O)C1C=C2C=CC=CC2=CC=1

> <InChI_Code_QSARr>
InChI=1S/C10H7NO2/c12-11(13)10-6-5-8-3-1-2-4-9(8)7-10/h1-7H

> <InChI Key_QSARr>
ZJYJZEAJZXVAMF-UHFFFAOYSA-N

> <Salt_Solvent>


> <Salt_Solvent_ID>
0

> <MPID>
99031

> <OH Reference>
ATKINSON,R (1989)

> <OH>
5.6E-12

> <OH Temperature>
25.0

> <LogOH>
-11.25181197299378

> <Tr_1_Tst_0>
1

$$$$
100493
  Mrv171c012241912032D          

  6  5  0  0  0  0            999 V2000
    0.8250    0.0000    0.0000 C   0  0  0  0  0  0  0  0  0  0  0  0
    0.4125   -0.7145    0.0000 O   0  0  0  0  0  0  0  0  0  0  0  0
    1.6500   -0.0000    0.0000 C   0  0  0  0  0  0  0  0  0  0  0  0
    2.0625   -0.7145    0.0000 C   0  0  0  0  0  0  0  0  0  0  0  0
    0.4125    0.7145    0.0000 C   0  0  0  0  0  0  0  0  0  0  0  0
   -0.4125    0.7145    0.0000 C   0  0  0  0  0  0  0  0  0  0  0  0
  1  2  1  0  0  0  0
  1  3  1  0  0  0  0
  3  4  1  0  0  0  0
  1  5  1  0  0  0  0
  5  6  1  0  0  0  0
M  END
> <ChemID>
100493

> <CAS>
584-02-1

> <Original_SMILES>
CCC(O)CC

> <preferred_name>
3-Pentanol

> <dsstox_substance_id>
DTXSID8060400

> <dsstox_compound_id>
DTXCID5042378

> <qc_level>
Public_High

> <Canonical_QSARr>
CCC(O)CC

> <InChI_Code_QSARr>
InChI=1S/C5H12O/c1-3-5(6)4-2/h5-6H,3-4H2,1-2H3

> <InChI Key_QSARr>
AQIXEPGDORPWBJ-UHFFFAOYSA-N

> <Salt_Solvent>


> <Salt_Solvent_ID>
0

> <MPID>
99032

> <OH Reference>
ATKINSON,R (1989)

> <OH>
1.22E-11

> <OH Temperature>
25.0

> <LogOH>
-10.913640169325236

> <Tr_1_Tst_0>
1

$$$$
100494
  Mrv171c012241912032D          

 10 10  0  0  0  0            999 V2000
    0.7093   -3.3013    0.0000 C   0  0  0  0  0  0  0  0  0  0  0  0
    0.7093   -4.1263    0.0000 C   0  0  0  0  0  0  0  0  0  0  0  0
    1.4237   -2.8888    0.0000 C   0  0  0  0  0  0  0  0  0  0  0  0
    1.4237   -2.0638    0.0000 C   0  0  0  0  0  0  0  0  0  0  0  0
    0.7093   -1.6513    0.0000 C   0  0  0  0  0  0  0  0  0  0  0  0
    0.7093   -0.8263    0.0000 C   0  0  0  0  0  0  0  0  0  0  0  0
    1.4237   -0.4138    0.0000 C   0  0  0  0  0  0  0  0  0  0  0  0
   -0.0052   -0.4138    0.0000 C   0  0  0  0  0  0  0  0  0  0  0  0
   -0.0052   -2.0638    0.0000 C   0  0  0  0  0  0  0  0  0  0  0  0
   -0.0052   -2.8888    0.0000 C   0  0  0  0  0  0  0  0  0  0  0  0
  1  2  1  0  0  0  0
  3  1  1  0  0  0  0
  4  3  1  0  0  0  0
  5  4  1  0  0  0  0
  5  6  2  0  0  0  0
  6  7  1  0  0  0  0
  6  8  1  0  0  0  0
  9  5  1  0  0  0  0
 10  9  1  0  0  0  0
  1 10  2  0  0  0  0
M  END
> <ChemID>
100494

> <CAS>
586-62-9

> <Original_SMILES>
CC(C)=C1CC=C(C)CC1

> <preferred_name>
Terpinolene

> <dsstox_substance_id>
DTXSID0027222

> <dsstox_compound_id>
DTXCID507222

> <qc_level>
DSSTox_Low

> <Canonical_QSARr>
CC(C)=C1CC=C(C)CC1

> <InChI_Code_QSARr>
InChI=1S/C10H16/c1-8(2)10-6-4-9(3)5-7-10/h4H,5-7H2,1-3H3

> <InChI Key_QSARr>
MOYAFQVGZZPNRA-UHFFFAOYSA-N

> <Salt_Solvent>


> <Salt_Solvent_ID>
0

> <MPID>
99033

> <OH Reference>
CORCHNOY,SB & ATKINSON,R (1990)

> <OH>
2.25E-10

> <OH Temperature>
25.0

> <LogOH>
-9.647817481888625

> <Tr_1_Tst_0>
1

$$$$
100495
  Mrv171c012241912032D          

  7  6  0  0  0  0            999 V2000
   -0.1011   -0.7669    0.0000 C   0  0  0  0  0  0  0  0  0  0  0  0
    0.6134   -0.3544    0.0000 C   0  0  0  0  0  0  0  0  0  0  0  0
    1.3279   -0.7669    0.0000 C   0  0  0  0  0  0  0  0  0  0  0  0
    1.3279   -1.5919    0.0000 O   0  0  0  0  0  0  0  0  0  0  0  0
    2.0423   -0.3544    0.0000 C   0  0  0  0  0  0  0  0  0  0  0  0
    2.7568   -0.7669    0.0000 C   0  0  0  0  0  0  0  0  0  0  0  0
    3.4713   -0.3544    0.0000 C   0  0  0  0  0  0  0  0  0  0  0  0
  1  2  1  0  0  0  0
  2  3  1  0  0  0  0
  3  4  2  0  0  0  0
  3  5  1  0  0  0  0
  5  6  1  0  0  0  0
  6  7  1  0  0  0  0
M  END
> <ChemID>
100495

> <CAS>
589-38-8

> <Original_SMILES>
CCC(=O)CCC

> <preferred_name>
3-Hexanone

> <dsstox_substance_id>
DTXSID2021608

> <dsstox_compound_id>
DTXCID501608

> <qc_level>
DSSTox_Low

> <Canonical_QSARr>
CCC(=O)CCC

> <InChI_Code_QSARr>
InChI=1S/C6H12O/c1-3-5-6(7)4-2/h3-5H2,1-2H3

> <InChI Key_QSARr>
PFCHFHIRKBAQGU-UHFFFAOYSA-N

> <Salt_Solvent>


> <Salt_Solvent_ID>
0

> <MPID>
99034

> <OH Reference>
ATKINSON,R (1989)

> <OH>
6.900000000000002E-12

> <OH Temperature>
25.0

> <LogOH>
-11.16115090926273

> <Tr_1_Tst_0>
0

$$$$
100496
  Mrv171c012241912032D          

  4  3  0  0  0  0            999 V2000
    1.2375    0.7145    0.0000 C   0  0  0  0  0  0  0  0  0  0  0  0
    0.8250    0.0000    0.0000 C   0  0  0  0  0  0  0  0  0  0  0  0
    0.0000    0.0000    0.0000 C   0  0  0  0  0  0  0  0  0  0  0  0
   -0.4125   -0.7145    0.0000 C   0  0  0  0  0  0  0  0  0  0  0  0
  2  1  1  4  0  0  0
  2  3  2  0  0  0  0
  3  4  1  0  0  0  0
M  END
> <ChemID>
100496

> <CAS>
590-18-1|624-64-6

> <Original_SMILES>
C/C=C\C

> <preferred_name>
2-Butene, (2Z)-|(2E)-2-Butene

> <dsstox_substance_id>
DTXSID0027224|DTXSID7027255

> <dsstox_compound_id>
DTXCID307224|DTXCID406748

> <qc_level>
DSSTox_Low

> <Canonical_QSARr>
CC=CC

> <InChI_Code_QSARr>
InChI=1S/C4H8/c1-3-4-2/h3-4H,1-2H3

> <InChI Key_QSARr>
IAQRGUVFOMOMEM-UHFFFAOYSA-N

> <Salt_Solvent>


> <Salt_Solvent_ID>
0

> <MPID>
99035|99071

> <OH Reference>
KWOK,ESC & ATKINSON,R (1994)

> <OH>
6.02E-11

> <OH Temperature>
25.0

> <LogOH>
-10.220403508742187

> <Tr_1_Tst_0>
1

$$$$
100497
  Mrv171c012241912032D          

  4  3  0  0  0  0            999 V2000
    2.2047   -0.0290    0.0000 C   0  0  0  0  0  0  0  0  0  0  0  0
    1.3797   -0.0290    0.0000 C   0  0  0  0  0  0  0  0  0  0  0  0
    0.5547   -0.0290    0.0000 C   0  0  0  0  0  0  0  0  0  0  0  0
    0.1422   -0.7435    0.0000 C   0  0  0  0  0  0  0  0  0  0  0  0
  1  2  2  0  0  0  0
  2  3  2  0  0  0  0
  3  4  1  0  0  0  0
M  END
> <ChemID>
100497

> <CAS>
590-19-2

> <Original_SMILES>
CC=C=C

> <preferred_name>
1,2-Butadiene

> <dsstox_substance_id>
DTXSID5027225

> <dsstox_compound_id>
DTXCID707225

> <qc_level>
DSSTox_Low

> <Canonical_QSARr>
CC=C=C

> <InChI_Code_QSARr>
InChI=1S/C4H6/c1-3-4-2/h4H,1H2,2H3

> <InChI Key_QSARr>
QNRMTGGDHLBXQZ-UHFFFAOYSA-N

> <Salt_Solvent>


> <Salt_Solvent_ID>
0

> <MPID>
99036

> <OH Reference>
ATKINSON,R (1989)

> <OH>
2.61E-11

> <OH Temperature>
25.0

> <LogOH>
-10.58335949266172

> <Tr_1_Tst_0>
1

$$$$
100498
  Mrv171c012241912032D          

  7  6  0  0  0  0            999 V2000
    1.7952   -0.8639    0.0000 C   0  0  0  0  0  0  0  0  0  0  0  0
    1.0807   -1.2764    0.0000 C   0  0  0  0  0  0  0  0  0  0  0  0
    1.0807   -2.1014    0.0000 C   0  0  0  0  0  0  0  0  0  0  0  0
    1.7952   -0.0389    0.0000 C   0  0  0  0  0  0  0  0  0  0  0  0
    1.7952    0.7861    0.0000 C   0  0  0  0  0  0  0  0  0  0  0  0
    2.6202   -0.0389    0.0000 C   0  0  0  0  0  0  0  0  0  0  0  0
    0.9702   -0.0389    0.0000 C   0  0  0  0  0  0  0  0  0  0  0  0
  1  2  1  0  0  0  0
  2  3  1  0  0  0  0
  1  4  1  0  0  0  0
  4  5  1  0  0  0  0
  4  6  1  0  0  0  0
  4  7  1  0  0  0  0
M  END
> <ChemID>
100498

> <CAS>
590-35-2

> <Original_SMILES>
CCCC(C)(C)C

> <preferred_name>
Pentane, 2,2-dimethyl-

> <dsstox_substance_id>
DTXSID5060439

> <dsstox_compound_id>
DTXCID2042513

> <qc_level>
Public_High

> <Canonical_QSARr>
CCCC(C)(C)C

> <InChI_Code_QSARr>
InChI=1S/C7H16/c1-5-6-7(2,3)4/h5-6H2,1-4H3

> <InChI Key_QSARr>
CXOWYJMDMMMMJO-UHFFFAOYSA-N

> <Salt_Solvent>


> <Salt_Solvent_ID>
0

> <MPID>
99037

> <OH Reference>
ATKINSON,R (1989)

> <OH>
3.369999999999998E-12

> <OH Temperature>
25.0

> <LogOH>
-11.47237009912867

> <Tr_1_Tst_0>
1

$$$$
100499
  Mrv171c012241912032D          

  8  7  0  0  0  0            999 V2000
    2.1619   -1.0855    0.0000 C   0  0  0  0  0  0  0  0  0  0  0  0
    1.4474   -1.4980    0.0000 C   0  0  0  0  0  0  0  0  0  0  0  0
    1.4474   -2.3230    0.0000 C   0  0  0  0  0  0  0  0  0  0  0  0
    0.7330   -2.7355    0.0000 C   0  0  0  0  0  0  0  0  0  0  0  0
    2.1619   -0.2605    0.0000 C   0  0  0  0  0  0  0  0  0  0  0  0
    2.1619    0.5645    0.0000 C   0  0  0  0  0  0  0  0  0  0  0  0
    2.9869   -0.2605    0.0000 C   0  0  0  0  0  0  0  0  0  0  0  0
    1.3369   -0.2605    0.0000 C   0  0  0  0  0  0  0  0  0  0  0  0
  1  2  1  0  0  0  0
  2  3  1  0  0  0  0
  3  4  1  0  0  0  0
  1  5  1  0  0  0  0
  5  6  1  0  0  0  0
  5  7  1  0  0  0  0
  5  8  1  0  0  0  0
M  END
> <ChemID>
100499

> <CAS>
590-73-8

> <Original_SMILES>
CCCCC(C)(C)C

> <preferred_name>
Hexane, 2,2-dimethyl-

> <dsstox_substance_id>
DTXSID9073200

> <dsstox_compound_id>
DTXCID7042518

> <qc_level>
Public_High

> <Canonical_QSARr>
CCCCC(C)(C)C

> <InChI_Code_QSARr>
InChI=1S/C8H18/c1-5-6-7-8(2,3)4/h5-7H2,1-4H3

> <InChI Key_QSARr>
FLTJDUOFAQWHDF-UHFFFAOYSA-N

> <Salt_Solvent>


> <Salt_Solvent_ID>
0

> <MPID>
99038

> <OH Reference>
ATKINSON,R (1989)

> <OH>
4.829999999999998E-12

> <OH Temperature>
25.0

> <LogOH>
-11.316052869248502

> <Tr_1_Tst_0>
0

$$$$
100500
  Mrv171c012241912032D          

  6  5  0  0  0  0            999 V2000
    1.8927    0.4153    0.0000 C   0  0  0  0  0  0  0  0  0  0  0  0
    1.4802   -0.2991    0.0000 C   0  0  0  0  0  0  0  0  0  0  0  0
    1.8927   -1.0136    0.0000 C   0  0  0  0  0  0  0  0  0  0  0  0
    1.4802   -1.7281    0.0000 C   0  0  0  0  0  0  0  0  0  0  0  0
    1.8927   -2.4425    0.0000 O   0  0  0  0  0  0  0  0  0  0  0  0
    0.6552   -0.2991    0.0000 C   0  0  0  0  0  0  0  0  0  0  0  0
  1  2  1  0  0  0  0
  2  3  1  0  0  0  0
  3  4  1  0  0  0  0
  4  5  2  0  0  0  0
  2  6  1  0  0  0  0
M  END
> <ChemID>
100500

> <CAS>
590-86-3

> <Original_SMILES>
CC(C)CC=O

> <preferred_name>
3-Methylbutanal

> <dsstox_substance_id>
DTXSID1021619

> <dsstox_compound_id>
DTXCID201619

> <qc_level>
DSSTox_Low

> <Canonical_QSARr>
CC(C)CC=O

> <InChI_Code_QSARr>
InChI=1S/C5H10O/c1-5(2)3-4-6/h4-5H,3H2,1-2H3

> <InChI Key_QSARr>
YGHRJJRRZDOVPD-UHFFFAOYSA-N

> <Salt_Solvent>


> <Salt_Solvent_ID>
0

> <MPID>
99039

> <OH Reference>
ATKINSON,R (1989)

> <OH>
2.74E-11

> <OH Temperature>
25.0

> <LogOH>
-10.5622494371796

> <Tr_1_Tst_0>
1

$$$$
100502
  Mrv171c012241912032D          

  7  7  0  0  0  0            999 V2000
    1.9901   -0.3736    0.0000 O   0  0  0  0  0  0  0  0  0  0  0  0
    1.3226    0.1113    0.0000 C   0  0  0  0  0  0  0  0  0  0  0  0
    1.3226    0.9363    0.0000 C   0  0  0  0  0  0  0  0  0  0  0  0
    0.6552   -0.3736    0.0000 C   0  0  0  0  0  0  0  0  0  0  0  0
    0.9101   -1.1583    0.0000 C   0  0  0  0  0  0  0  0  0  0  0  0
    1.7351   -1.1583    0.0000 C   0  0  0  0  0  0  0  0  0  0  0  0
    2.2200   -1.8257    0.0000 O   0  0  0  0  0  0  0  0  0  0  0  0
  2  1  1  0  0  0  0
  2  3  1  0  0  0  0
  4  2  2  0  0  0  0
  5  4  1  0  0  0  0
  6  5  1  0  0  0  0
  1  6  1  0  0  0  0
  6  7  2  0  0  0  0
M  END
> <ChemID>
100502

> <CAS>
591-12-8

> <Original_SMILES>
CC1=CCC(=O)O1

> <preferred_name>
alpha-Angelica lactone

> <dsstox_substance_id>
DTXSID7047693

> <dsstox_compound_id>
DTXCID5027693

> <qc_level>
DSSTox_Low

> <Canonical_QSARr>
CC1=CCC(=O)O1

> <InChI_Code_QSARr>
InChI=1S/C5H6O2/c1-4-2-3-5(6)7-4/h2H,3H2,1H3

> <InChI Key_QSARr>
QOTQFLOTGBBMEX-UHFFFAOYSA-N

> <Salt_Solvent>


> <Salt_Solvent_ID>
0

> <MPID>
99040

> <OH Reference>
BIERBACH,A ET AL. (1994)

> <OH>
6.900000000000001E-11

> <OH Temperature>
23.0

> <LogOH>
-10.16115090926275

> <Tr_1_Tst_0>
1

$$$$
100503
  Mrv171c012241912032D          

  7  7  0  0  0  0            999 V2000
    0.7145    1.2375    0.0000 C   0  0  0  0  0  0  0  0  0  0  0  0
    0.7145    2.0625    0.0000 C   0  0  0  0  0  0  0  0  0  0  0  0
   -0.0000    0.8250    0.0000 C   0  0  0  0  0  0  0  0  0  0  0  0
   -0.0000   -0.0000    0.0000 C   0  0  0  0  0  0  0  0  0  0  0  0
    0.7145   -0.4125    0.0000 C   0  0  0  0  0  0  0  0  0  0  0  0
    1.4289    0.0000    0.0000 C   0  0  0  0  0  0  0  0  0  0  0  0
    1.4289    0.8250    0.0000 C   0  0  0  0  0  0  0  0  0  0  0  0
  1  2  1  0  0  0  0
  3  1  2  0  0  0  0
  4  3  1  0  0  0  0
  5  4  1  0  0  0  0
  6  5  1  0  0  0  0
  7  6  1  0  0  0  0
  1  7  1  0  0  0  0
M  END
> <ChemID>
100503

> <CAS>
591-49-1

> <Original_SMILES>
CC1CCCCC=1

> <preferred_name>
Cyclohexene, 1-methyl-

> <dsstox_substance_id>
DTXSID3060451

> <dsstox_compound_id>
DTXCID4042543

> <qc_level>
Public_High

> <Canonical_QSARr>
CC1CCCCC=1

> <InChI_Code_QSARr>
InChI=1S/C7H12/c1-7-5-3-2-4-6-7/h5H,2-4,6H2,1H3

> <InChI Key_QSARr>
CTMHWPIWNRWQEG-UHFFFAOYSA-N

> <Salt_Solvent>


> <Salt_Solvent_ID>
0

> <MPID>
99041

> <OH Reference>
ATKINSON,R (1989)

> <OH>
9.44E-11

> <OH Temperature>
25.0

> <LogOH>
-10.025028005701934

> <Tr_1_Tst_0>
1

$$$$
100504
  Mrv171c012241912032D          

  7  7  0  0  0  0            999 V2000
    0.7145    1.2375    0.0000 C   0  0  0  0  0  0  0  0  0  0  0  0
    0.7145    2.0625    0.0000 I   0  0  0  0  0  0  0  0  0  0  0  0
   -0.0000    0.8250    0.0000 C   0  0  0  0  0  0  0  0  0  0  0  0
   -0.0000   -0.0000    0.0000 C   0  0  0  0  0  0  0  0  0  0  0  0
    0.7145   -0.4125    0.0000 C   0  0  0  0  0  0  0  0  0  0  0  0
    1.4289    0.0000    0.0000 C   0  0  0  0  0  0  0  0  0  0  0  0
    1.4289    0.8250    0.0000 C   0  0  0  0  0  0  0  0  0  0  0  0
  1  2  1  0  0  0  0
  3  1  1  0  0  0  0
  4  3  2  0  0  0  0
  5  4  1  0  0  0  0
  6  5  2  0  0  0  0
  7  6  1  0  0  0  0
  1  7  2  0  0  0  0
M  END
> <ChemID>
100504

> <CAS>
591-50-4

> <Original_SMILES>
Ic1ccccc1

> <preferred_name>
Benzene, iodo-

> <dsstox_substance_id>
DTXSID8060452

> <dsstox_compound_id>
DTXCID9042544

> <qc_level>
Public_High

> <Canonical_QSARr>
IC1C=CC=CC=1

> <InChI_Code_QSARr>
InChI=1S/C6H5I/c7-6-4-2-1-3-5-6/h1-5H

> <InChI Key_QSARr>
SNHMUERNLJLMHN-UHFFFAOYSA-N

> <Salt_Solvent>


> <Salt_Solvent_ID>
0

> <MPID>
99042

> <OH Reference>
ATKINSON,R (1989)

> <OH>
1.1E-12

> <OH Temperature>
25.0

> <LogOH>
-11.958607314841764

> <Tr_1_Tst_0>
0

$$$$
100505
  Mrv171c012241912032D          

  7  6  0  0  0  0            999 V2000
    0.0021   -0.9433    0.0000 C   0  0  0  0  0  0  0  0  0  0  0  0
    0.7166   -0.5308    0.0000 C   0  0  0  0  0  0  0  0  0  0  0  0
    1.4311   -0.9433    0.0000 C   0  0  0  0  0  0  0  0  0  0  0  0
    2.1455   -0.5308    0.0000 C   0  0  0  0  0  0  0  0  0  0  0  0
    2.8600   -0.9433    0.0000 C   0  0  0  0  0  0  0  0  0  0  0  0
    3.5745   -0.5308    0.0000 C   0  0  0  0  0  0  0  0  0  0  0  0
    2.8600   -1.7683    0.0000 O   0  0  0  0  0  0  0  0  0  0  0  0
  1  2  1  0  0  0  0
  2  3  1  0  0  0  0
  3  4  1  0  0  0  0
  4  5  1  0  0  0  0
  5  6  1  0  0  0  0
  5  7  2  0  0  0  0
M  END
> <ChemID>
100505

> <CAS>
591-78-6

> <Original_SMILES>
CCCCC(C)=O

> <preferred_name>
2-Hexanone

> <dsstox_substance_id>
DTXSID0022068

> <dsstox_compound_id>
DTXCID202068

> <qc_level>
DSSTox_Low

> <Canonical_QSARr>
CCCCC(C)=O

> <InChI_Code_QSARr>
InChI=1S/C6H12O/c1-3-4-5-6(2)7/h3-5H2,1-2H3

> <InChI Key_QSARr>
QQZOPKMRPOGIEB-UHFFFAOYSA-N

> <Salt_Solvent>


> <Salt_Solvent_ID>
0

> <MPID>
99043

> <OH Reference>
ATKINSON,R (1989)

> <OH>
9.100000000000001E-12

> <OH Temperature>
25.0

> <LogOH>
-11.040958607678887

> <Tr_1_Tst_0>
1

$$$$
100506
  Mrv171c012241912032D          

  7  6  0  0  0  0            999 V2000
    1.0228   -0.8254    0.0000 C   0  0  0  0  0  0  0  0  0  0  0  0
    1.7373   -1.2379    0.0000 O   0  0  0  0  0  0  0  0  0  0  0  0
    2.4517   -0.8254    0.0000 C   0  0  0  0  0  0  0  0  0  0  0  0
    3.1662   -1.2379    0.0000 C   0  0  0  0  0  0  0  0  0  0  0  0
    3.8807   -0.8254    0.0000 C   0  0  0  0  0  0  0  0  0  0  0  0
    0.3083   -1.2379    0.0000 O   0  0  0  0  0  0  0  0  0  0  0  0
    1.0228   -0.0004    0.0000 C   0  0  0  0  0  0  0  0  0  0  0  0
  1  2  1  0  0  0  0
  2  3  1  0  0  0  0
  3  4  1  0  0  0  0
  4  5  2  0  0  0  0
  1  6  2  0  0  0  0
  1  7  1  0  0  0  0
M  END
> <ChemID>
100506

> <CAS>
591-87-7

> <Original_SMILES>
CC(=O)OCC=C

> <preferred_name>
Allyl acetate

> <dsstox_substance_id>
DTXSID9024437

> <dsstox_compound_id>
DTXCID904437

> <qc_level>
DSSTox_Low

> <Canonical_QSARr>
CC(=O)OCC=C

> <InChI_Code_QSARr>
InChI=1S/C5H8O2/c1-3-4-7-5(2)6/h3H,1,4H2,2H3

> <InChI Key_QSARr>
FWZUNOYOVVKUNF-UHFFFAOYSA-N

> <Salt_Solvent>


> <Salt_Solvent_ID>
0

> <MPID>
99044

> <OH Reference>
LECALVE,S ET AL. (2000)

> <OH>
2.710000000000001E-11

> <OH Temperature>
25.0

> <LogOH>
-10.567030709125596

> <Tr_1_Tst_0>
1

$$$$
100507
  Mrv171c012241912032D          

  5  4  0  0  0  0            999 V2000
    1.2375   -0.7145    0.0000 C   0  0  0  0  0  0  0  0  0  0  0  0
    2.0625   -0.7145    0.0000 C   0  0  0  0  0  0  0  0  0  0  0  0
    2.4750   -1.4289    0.0000 C   0  0  0  0  0  0  0  0  0  0  0  0
    0.8250    0.0000    0.0000 C   0  0  0  0  0  0  0  0  0  0  0  0
    0.0000    0.0000    0.0000 C   0  0  0  0  0  0  0  0  0  0  0  0
  1  2  1  0  0  0  0
  2  3  2  0  0  0  0
  1  4  1  0  0  0  0
  4  5  2  0  0  0  0
M  END
> <ChemID>
100507

> <CAS>
591-93-5

> <Original_SMILES>
C=CCC=C

> <preferred_name>
1,4-Pentadiene

> <dsstox_substance_id>
DTXSID8060456

> <dsstox_compound_id>
DTXCID4042549

> <qc_level>
Public_High

> <Canonical_QSARr>
C=CCC=C

> <InChI_Code_QSARr>
InChI=1S/C5H8/c1-3-5-4-2/h3-4H,1-2,5H2

> <InChI Key_QSARr>
QYZLKGVUSQXAMU-UHFFFAOYSA-N

> <Salt_Solvent>


> <Salt_Solvent_ID>
0

> <MPID>
99045

> <OH Reference>
ATKINSON,R (1989)

> <OH>
5.300000000000001E-11

> <OH Temperature>
25.0

> <LogOH>
-10.2757241303992

> <Tr_1_Tst_0>
1

$$$$
100508
  Mrv171c012241912032D          

  5  4  0  0  0  0            999 V2000
    2.6625    0.2617    0.0000 C   0  0  0  0  0  0  0  0  0  0  0  0
    1.8375    0.2617    0.0000 C   0  0  0  0  0  0  0  0  0  0  0  0
    1.0125    0.2617    0.0000 C   0  0  0  0  0  0  0  0  0  0  0  0
    0.6000   -0.4528    0.0000 C   0  0  0  0  0  0  0  0  0  0  0  0
    1.0125   -1.1672    0.0000 C   0  0  0  0  0  0  0  0  0  0  0  0
  1  2  2  0  0  0  0
  2  3  2  0  0  0  0
  3  4  1  0  0  0  0
  4  5  1  0  0  0  0
M  END
> <ChemID>
100508

> <CAS>
591-95-7

> <Original_SMILES>
CCC=C=C

> <preferred_name>


> <dsstox_substance_id>
DTXSID40870643

> <dsstox_compound_id>
DTXCID20818346

> <qc_level>


> <Canonical_QSARr>
CCC=C=C

> <InChI_Code_QSARr>
InChI=1S/C5H8/c1-3-5-4-2/h5H,1,4H2,2H3

> <InChI Key_QSARr>
LVMTVPFRTKXRPH-UHFFFAOYSA-N

> <Salt_Solvent>


> <Salt_Solvent_ID>
0

> <MPID>
99046

> <OH Reference>
ATKINSON,R (1989)

> <OH>
3.549999999999999E-11

> <OH Temperature>
25.0

> <LogOH>
-10.449771646944916

> <Tr_1_Tst_0>
0

$$$$
100509
  Mrv171c012241912032D          

  6  5  0  0  0  0            999 V2000
    2.1452    0.0006    0.0000 C   0  0  0  0  0  0  0  0  0  0  0  0
    1.4307   -0.4119    0.0000 C   0  0  0  0  0  0  0  0  0  0  0  0
    0.7163    0.0006    0.0000 C   0  0  0  0  0  0  0  0  0  0  0  0
    0.0018   -0.4119    0.0000 C   0  0  0  0  0  0  0  0  0  0  0  0
    2.8597   -0.4119    0.0000 C   0  0  0  0  0  0  0  0  0  0  0  0
    3.5741    0.0006    0.0000 C   0  0  0  0  0  0  0  0  0  0  0  0
  1  2  1  0  0  0  0
  2  3  1  0  0  0  0
  3  4  2  0  0  0  0
  1  5  1  0  0  0  0
  5  6  1  0  0  0  0
M  END
> <ChemID>
100509

> <CAS>
592-41-6

> <Original_SMILES>
CCCCC=C

> <preferred_name>
1-Hexene

> <dsstox_substance_id>
DTXSID4025402

> <dsstox_compound_id>
DTXCID105402

> <qc_level>
DSSTox_Low

> <Canonical_QSARr>
CCCCC=C

> <InChI_Code_QSARr>
InChI=1S/C6H12/c1-3-5-6-4-2/h3H,1,4-6H2,2H3

> <InChI Key_QSARr>
LIKMAJRDDDTEIG-UHFFFAOYSA-N

> <Salt_Solvent>


> <Salt_Solvent_ID>
0

> <MPID>
99047

> <OH Reference>
ATKINSON,R (1989)

> <OH>
3.750000000000001E-11

> <OH Temperature>
25.0

> <LogOH>
-10.425968732272286

> <Tr_1_Tst_0>
1

$$$$
100510
  Mrv171c012241912032D          

  6  5  0  0  0  0            999 V2000
   -0.1340   -0.9223    0.0000 C   0  0  0  0  0  0  0  0  0  0  0  0
    0.5805   -0.5098    0.0000 C   0  0  0  0  0  0  0  0  0  0  0  0
    1.2949   -0.9223    0.0000 C   0  0  0  0  0  0  0  0  0  0  0  0
    2.0094   -0.5098    0.0000 C   0  0  0  0  0  0  0  0  0  0  0  0
    2.7239   -0.9223    0.0000 C   0  0  0  0  0  0  0  0  0  0  0  0
    3.4383   -0.5098    0.0000 C   0  0  0  0  0  0  0  0  0  0  0  0
  1  2  2  0  0  0  0
  2  3  1  0  0  0  0
  3  4  1  0  0  0  0
  4  5  1  0  0  0  0
  5  6  2  0  0  0  0
M  END
> <ChemID>
100510

> <CAS>
592-42-7

> <Original_SMILES>
C=CCCC=C

> <preferred_name>
1,5-Hexadiene

> <dsstox_substance_id>
DTXSID4049323

> <dsstox_compound_id>
DTXCID9029279

> <qc_level>
DSSTox_Low

> <Canonical_QSARr>
C=CCCC=C

> <InChI_Code_QSARr>
InChI=1S/C6H10/c1-3-5-6-4-2/h3-4H,1-2,5-6H2

> <InChI Key_QSARr>
PYGSKMBEVAICCR-UHFFFAOYSA-N

> <Salt_Solvent>


> <Salt_Solvent_ID>
0

> <MPID>
99048

> <OH Reference>
ATKINSON,R (1989)

> <OH>
6.2E-11

> <OH Temperature>
25.0

> <LogOH>
-10.207608310501765

> <Tr_1_Tst_0>
1

$$$$
100511
  Mrv171c012241912032D          

  6  6  0  0  0  0            999 V2000
    1.5475   -0.2899    0.0000 C   0  0  0  0  0  0  0  0  0  0  0  0
    0.8330    0.1226    0.0000 C   0  0  0  0  0  0  0  0  0  0  0  0
    0.1185   -0.2899    0.0000 C   0  0  0  0  0  0  0  0  0  0  0  0
    0.1185   -1.1149    0.0000 C   0  0  0  0  0  0  0  0  0  0  0  0
    0.8330   -1.5274    0.0000 C   0  0  0  0  0  0  0  0  0  0  0  0
    1.5475   -1.1149    0.0000 C   0  0  0  0  0  0  0  0  0  0  0  0
  2  1  1  0  0  0  0
  3  2  1  0  0  0  0
  4  3  1  0  0  0  0
  5  4  2  0  0  0  0
  6  5  1  0  0  0  0
  1  6  2  0  0  0  0
M  END
> <ChemID>
100511

> <CAS>
592-57-4

> <Original_SMILES>
C1CC=CC=C1

> <preferred_name>


> <dsstox_substance_id>
DTXSID30862259

> <dsstox_compound_id>
DTXCID00811052

> <qc_level>


> <Canonical_QSARr>
C1CC=CC=C1

> <InChI_Code_QSARr>
InChI=1S/C6H8/c1-2-4-6-5-3-1/h1-4H,5-6H2

> <InChI Key_QSARr>
MGNZXYYWBUKAII-UHFFFAOYSA-N

> <Salt_Solvent>


> <Salt_Solvent_ID>
0

> <MPID>
99049

> <OH Reference>
ATKINSON,R (1989)

> <OH>
1.64E-10

> <OH Temperature>
25.0

> <LogOH>
-9.785156151952323

> <Tr_1_Tst_0>
0

$$$$
100512
  Mrv171c012241912032D          

  7  6  0  0  0  0            999 V2000
    3.9039    1.4289    0.0000 C   0  0  0  0  0  0  0  0  0  0  0  0
    3.1894    1.8414    0.0000 C   0  0  0  0  0  0  0  0  0  0  0  0
    2.4749    1.4289    0.0000 C   0  0  0  0  0  0  0  0  0  0  0  0
    1.7605    1.8414    0.0000 C   0  0  0  0  0  0  0  0  0  0  0  0
    4.6184    1.8414    0.0000 C   0  0  0  0  0  0  0  0  0  0  0  0
    5.3328    1.4289    0.0000 C   0  0  0  0  0  0  0  0  0  0  0  0
    6.0473    1.8414    0.0000 C   0  0  0  0  0  0  0  0  0  0  0  0
  1  2  1  0  0  0  0
  2  3  1  0  0  0  0
  3  4  2  0  0  0  0
  1  5  1  0  0  0  0
  5  6  1  0  0  0  0
  6  7  1  0  0  0  0
M  END
> <ChemID>
100512

> <CAS>
592-76-7

> <Original_SMILES>
CCCCCC=C

> <preferred_name>
1-Heptene

> <dsstox_substance_id>
DTXSID2060466

> <dsstox_compound_id>
DTXCID6042573

> <qc_level>
Public_High

> <Canonical_QSARr>
CCCCCC=C

> <InChI_Code_QSARr>
InChI=1S/C7H14/c1-3-5-7-6-4-2/h3H,1,4-7H2,2H3

> <InChI Key_QSARr>
ZGEGCLOFRBLKSE-UHFFFAOYSA-N

> <Salt_Solvent>


> <Salt_Solvent_ID>
0

> <MPID>
99050

> <OH Reference>
ATKINSON,R (1989)

> <OH>
4.049999999999999E-11

> <OH Temperature>
25.0

> <LogOH>
-10.39254497678535

> <Tr_1_Tst_0>
1

$$$$
100514
  Mrv171c012241912032D          

  7  6  0  0  0  0            999 V2000
    3.9041    1.4290    0.0000 C   0  0  0  0  0  0  0  0  0  0  0  0
    3.1896    1.8415    0.0000 O   0  0  0  0  0  0  0  0  0  0  0  0
    2.4752    1.4290    0.0000 C   0  0  0  0  0  0  0  0  0  0  0  0
    1.7607    1.8415    0.0000 O   0  0  0  0  0  0  0  0  0  0  0  0
    4.6186    1.8415    0.0000 C   0  0  0  0  0  0  0  0  0  0  0  0
    5.3330    1.4290    0.0000 C   0  0  0  0  0  0  0  0  0  0  0  0
    6.0475    1.8415    0.0000 C   0  0  0  0  0  0  0  0  0  0  0  0
  1  2  1  0  0  0  0
  2  3  1  0  0  0  0
  3  4  2  0  0  0  0
  1  5  1  0  0  0  0
  5  6  1  0  0  0  0
  6  7  1  0  0  0  0
M  END
> <ChemID>
100514

> <CAS>
592-84-7

> <Original_SMILES>
CCCCOC=O

> <preferred_name>
Formic acid, butyl ester

> <dsstox_substance_id>
DTXSID2060468

> <dsstox_compound_id>
DTXCID1042576

> <qc_level>
Public_High

> <Canonical_QSARr>
CCCCOC=O

> <InChI_Code_QSARr>
InChI=1S/C5H10O2/c1-2-3-4-7-5-6/h5H,2-4H2,1H3

> <InChI Key_QSARr>
NMJJFJNHVMGPGM-UHFFFAOYSA-N

> <Salt_Solvent>


> <Salt_Solvent_ID>
0

> <MPID>
99051

> <OH Reference>
KWOK,ESC & ATKINSON,R (1994)

> <OH>
3.12E-12

> <OH Temperature>
25.0

> <LogOH>
-11.505845405981574

> <Tr_1_Tst_0>
1

$$$$
100515
  Mrv171c012241912032D          

  7  7  0  0  0  0            999 V2000
    1.5999    1.0053    0.0000 C   0  0  0  0  0  0  0  0  0  0  0  0
    0.8566    1.3632    0.0000 C   0  0  0  0  0  0  0  0  0  0  0  0
    0.1133    1.0053    0.0000 C   0  0  0  0  0  0  0  0  0  0  0  0
   -0.0702    0.2009    0.0000 O   0  0  0  0  0  0  0  0  0  0  0  0
    0.4441   -0.4441    0.0000 C   0  0  0  0  0  0  0  0  0  0  0  0
    1.2691   -0.4441    0.0000 C   0  0  0  0  0  0  0  0  0  0  0  0
    1.7835    0.2009    0.0000 C   0  0  0  0  0  0  0  0  0  0  0  0
  2  1  1  0  0  0  0
  3  2  1  0  0  0  0
  4  3  1  0  0  0  0
  5  4  1  0  0  0  0
  6  5  1  0  0  0  0
  7  6  1  0  0  0  0
  1  7  1  0  0  0  0
M  END
> <ChemID>
100515

> <CAS>
592-90-5

> <Original_SMILES>
C1CCCCCO1

> <preferred_name>
Oxepane

> <dsstox_substance_id>
DTXSID1060471

> <dsstox_compound_id>
DTXCID6042579

> <qc_level>
Public_High

> <Canonical_QSARr>
C1CCCCCO1

> <InChI_Code_QSARr>
InChI=1S/C6H12O/c1-2-4-6-7-5-3-1/h1-6H2

> <InChI Key_QSARr>
UHHKSVZZTYJVEG-UHFFFAOYSA-N

> <Salt_Solvent>


> <Salt_Solvent_ID>
0

> <MPID>
99052

> <OH Reference>
ATKINSON,R (1989)

> <OH>
1.54E-11

> <OH Temperature>
25.0

> <LogOH>
-10.81247927916355

> <Tr_1_Tst_0>
0

$$$$
100516
  Mrv171c012241912032D          

  2  1  0  0  0  0            999 V2000
    0.8250    0.0000    0.0000 C   0  0  0  0  0  0  0  0  0  0  0  0
    0.0000    0.0000    0.0000 F   0  0  0  0  0  0  0  0  0  0  0  0
  1  2  1  0  0  0  0
M  END
> <ChemID>
100516

> <CAS>
593-53-3

> <Original_SMILES>
CF

> <preferred_name>
HFC-41

> <dsstox_substance_id>
DTXSID6060474

> <dsstox_compound_id>
DTXCID4042593

> <qc_level>
Public_High

> <Canonical_QSARr>
CF

> <InChI_Code_QSARr>
InChI=1S/CH3F/c1-2/h1H3

> <InChI Key_QSARr>
NBVXSUQYWXRMNV-UHFFFAOYSA-N

> <Salt_Solvent>


> <Salt_Solvent_ID>
0

> <MPID>
99053

> <OH Reference>
ATKINSON,R (1989)

> <OH>
1.680000000000001E-14

> <OH Temperature>
25.0

> <LogOH>
-13.774690718274147

> <Tr_1_Tst_0>
1

$$$$
100517
  Mrv171c012241912032D          

  3  2  0  0  0  0            999 V2000
   -0.0002   -0.1377    0.0000 C   0  0  0  0  0  0  0  0  0  0  0  0
    0.7143   -0.5502    0.0000 C   0  0  0  0  0  0  0  0  0  0  0  0
    1.4287   -0.1377    0.0000 Br  0  0  0  0  0  0  0  0  0  0  0  0
  1  2  2  0  0  0  0
  2  3  1  0  0  0  0
M  END
> <ChemID>
100517

> <CAS>
593-60-2

> <Original_SMILES>
C=CBr

> <preferred_name>
Vinyl bromide

> <dsstox_substance_id>
DTXSID8021432

> <dsstox_compound_id>
DTXCID601432

> <qc_level>
DSSTox_Low

> <Canonical_QSARr>
C=CBr

> <InChI_Code_QSARr>
InChI=1S/C2H3Br/c1-2-3/h2H,1H2

> <InChI Key_QSARr>
INLLPKCGLOXCIV-UHFFFAOYSA-N

> <Salt_Solvent>


> <Salt_Solvent_ID>
0

> <MPID>
99054

> <OH Reference>
ATKINSON,R (1989)

> <OH>
6.810000000000002E-12

> <OH Temperature>
25.0

> <LogOH>
-11.166852888087202

> <Tr_1_Tst_0>
1

$$$$
100518
  Mrv171c012241912032D          

  3  2  0  0  0  0            999 V2000
   -0.0002   -0.1377    0.0000 F   0  0  0  0  0  0  0  0  0  0  0  0
    0.7143   -0.5502    0.0000 C   0  0  0  0  0  0  0  0  0  0  0  0
    1.4287   -0.1377    0.0000 Cl  0  0  0  0  0  0  0  0  0  0  0  0
  1  2  1  0  0  0  0
  2  3  1  0  0  0  0
M  END
> <ChemID>
100518

> <CAS>
593-70-4

> <Original_SMILES>
FCCl

> <preferred_name>
Chlorofluoromethane

> <dsstox_substance_id>
DTXSID6020305

> <dsstox_compound_id>
DTXCID80305

> <qc_level>
DSSTox_Low

> <Canonical_QSARr>
FCCl

> <InChI_Code_QSARr>
InChI=1S/CH2ClF/c2-1-3/h1H2

> <InChI Key_QSARr>
XWCDCDSDNJVCLO-UHFFFAOYSA-N

> <Salt_Solvent>


> <Salt_Solvent_ID>
0

> <MPID>
99055

> <OH Reference>
ATKINSON,R (1989)

> <OH>
4.41E-14

> <OH Temperature>
25.0

> <LogOH>
-13.355561410532166

> <Tr_1_Tst_0>
1

$$$$
100520
  Mrv171c012241912032D          

  3  2  0  0  0  0            999 V2000
    2.4750   -0.0000    0.0000 Se  0  0  0  0  0  0  0  0  0  0  0  0
    1.6500   -0.0000    0.0000 C   0  0  0  0  0  0  0  0  0  0  0  0
    3.3000    0.0000    0.0000 C   0  0  0  0  0  0  0  0  0  0  0  0
  1  2  1  0  0  0  0
  1  3  1  0  0  0  0
M  END
> <ChemID>
100520

> <CAS>
593-79-3

> <Original_SMILES>
C[Se]C

> <preferred_name>
Methane, selenobis-

> <dsstox_substance_id>
DTXSID6074752

> <dsstox_compound_id>
DTXCID4042599

> <qc_level>
Public_High

> <Canonical_QSARr>
C[Se]C

> <InChI_Code_QSARr>
InChI=1S/C2H6Se/c1-3-2/h1-2H3

> <InChI Key_QSARr>
RVIXKDRPFPUUOO-UHFFFAOYSA-N

> <Salt_Solvent>


> <Salt_Solvent_ID>
0

> <MPID>
99056

> <OH Reference>
ATKINSON,R ET AL. (1990)

> <OH>
6.779999999999999E-11

> <OH Temperature>
25.0

> <LogOH>
-10.168770306132936

> <Tr_1_Tst_0>
0

$$$$
100522
  Mrv171c012241912032D          

  8  7  0  0  0  0            999 V2000
    0.8250   -0.8250    0.0000 C   0  0  0  0  0  0  0  0  0  0  0  0
    0.8250   -1.6500    0.0000 C   0  0  0  0  0  0  0  0  0  0  0  0
    1.6500   -0.8250    0.0000 C   0  0  0  0  0  0  0  0  0  0  0  0
    0.0000   -0.8250    0.0000 C   0  0  0  0  0  0  0  0  0  0  0  0
    0.8250    0.0000    0.0000 C   0  0  0  0  0  0  0  0  0  0  0  0
    0.8250    0.8250    0.0000 C   0  0  0  0  0  0  0  0  0  0  0  0
    1.6500   -0.0000    0.0000 C   0  0  0  0  0  0  0  0  0  0  0  0
    0.0000    0.0000    0.0000 C   0  0  0  0  0  0  0  0  0  0  0  0
  1  2  1  0  0  0  0
  1  3  1  0  0  0  0
  1  4  1  0  0  0  0
  1  5  1  0  0  0  0
  5  6  1  0  0  0  0
  5  7  1  0  0  0  0
  5  8  1  0  0  0  0
M  END
> <ChemID>
100522

> <CAS>
594-82-1

> <Original_SMILES>
CC(C)(C)C(C)(C)C

> <preferred_name>
Butane, 2,2,3,3-tetramethyl-

> <dsstox_substance_id>
DTXSID9073204

> <dsstox_compound_id>
DTXCID4042624

> <qc_level>
Public_High

> <Canonical_QSARr>
CC(C)(C)C(C)(C)C

> <InChI_Code_QSARr>
InChI=1S/C8H18/c1-7(2,3)8(4,5)6/h1-6H3

> <InChI Key_QSARr>
OMMLUKLXGSRPHK-UHFFFAOYSA-N

> <Salt_Solvent>


> <Salt_Solvent_ID>
0

> <MPID>
99057

> <OH Reference>
ATKINSON,R (1989)

> <OH>
1.08E-12

> <OH Temperature>
25.0

> <LogOH>
-11.96657624451304

> <Tr_1_Tst_0>
1

$$$$
100523
  Mrv171c012241912032D          

  9  8  0  0  0  0            999 V2000
    3.0789    0.1722    0.0000 P   0  0  0  0  0  0  0  0  0  0  0  0
    3.7934   -0.2403    0.0000 N   0  0  0  0  0  0  0  0  0  0  0  0
    4.5078    0.1722    0.0000 C   0  0  0  0  0  0  0  0  0  0  0  0
    3.7934   -1.0653    0.0000 C   0  0  0  0  0  0  0  0  0  0  0  0
    3.4914    0.8867    0.0000 O   0  0  0  0  0  0  0  0  0  0  0  0
    2.3644    0.5847    0.0000 O   0  0  0  0  0  0  0  0  0  0  0  0
    1.6500    0.1722    0.0000 C   0  0  0  0  0  0  0  0  0  0  0  0
    2.6664   -0.5422    0.0000 O   0  0  0  0  0  0  0  0  0  0  0  0
    1.8414   -0.5422    0.0000 C   0  0  0  0  0  0  0  0  0  0  0  0
  1  2  1  0  0  0  0
  2  3  1  0  0  0  0
  2  4  1  0  0  0  0
  1  5  2  0  0  0  0
  1  6  1  0  0  0  0
  6  7  1  0  0  0  0
  1  8  1  0  0  0  0
  8  9  1  0  0  0  0
M  END
> <ChemID>
100523

> <CAS>
597-07-9

> <Original_SMILES>
CN(C)P(=O)(OC)OC

> <preferred_name>
Phosphoramidic acid, dimethyl-, dimethyl ester

> <dsstox_substance_id>
DTXSID20208405

> <dsstox_compound_id>
DTXCID00130896

> <qc_level>
Public_Medium

> <Canonical_QSARr>
CN(C)P(=O)(OC)OC

> <InChI_Code_QSARr>
InChI=1S/C4H12NO3P/c1-5(2)9(6,7-3)8-4/h1-4H3

> <InChI Key_QSARr>
NEVPGZLSKXATIM-UHFFFAOYSA-N

> <Salt_Solvent>


> <Salt_Solvent_ID>
0

> <MPID>
99058

> <OH Reference>
ATKINSON,R ET AL. (1989)

> <OH>
3.19E-11

> <OH Temperature>
25.0

> <LogOH>
-10.49620931694284

> <Tr_1_Tst_0>
1

$$$$
100524
  Mrv171c012241912032D          

  5  4  0  0  0  0            999 V2000
    2.9803    0.1650    0.0000 C   0  0  0  0  0  0  0  0  0  0  0  0
    2.1553    0.1650    0.0000 C   0  0  0  0  0  0  0  0  0  0  0  0
    1.3303    0.1650    0.0000 C   0  0  0  0  0  0  0  0  0  0  0  0
    3.3928   -0.5495    0.0000 C   0  0  0  0  0  0  0  0  0  0  0  0
    3.3928    0.8795    0.0000 C   0  0  0  0  0  0  0  0  0  0  0  0
  1  2  2  0  0  0  0
  2  3  2  0  0  0  0
  1  4  1  0  0  0  0
  1  5  1  0  0  0  0
M  END
> <ChemID>
100524

> <CAS>
598-25-4

> <Original_SMILES>
CC(C)=C=C

> <preferred_name>
3-Methylbuta-1,2-diene

> <dsstox_substance_id>
DTXSID00208529

> <dsstox_compound_id>
DTXCID00131020

> <qc_level>
Public_Medium

> <Canonical_QSARr>
CC(C)=C=C

> <InChI_Code_QSARr>
InChI=1S/C5H8/c1-4-5(2)3/h1H2,2-3H3

> <InChI Key_QSARr>
PAKGDPSCXSUALC-UHFFFAOYSA-N

> <Salt_Solvent>


> <Salt_Solvent_ID>
0

> <MPID>
99059

> <OH Reference>
ATKINSON,R (1989)

> <OH>
5.689999999999998E-11

> <OH Temperature>
25.0

> <LogOH>
-10.244887733604944

> <Tr_1_Tst_0>
0

$$$$
100525
  Mrv171c012241912032D          

  5  4  0  0  0  0            999 V2000
    3.9703    0.1650    0.0000 O   0  0  0  0  0  0  0  0  0  0  0  0
    3.1453    0.1650    0.0000 C   0  0  0  0  0  0  0  0  0  0  0  0
    2.3203    0.1650    0.0000 C   0  0  0  0  0  0  0  0  0  0  0  0
    1.9078   -0.5495    0.0000 C   0  0  0  0  0  0  0  0  0  0  0  0
    1.9078    0.8795    0.0000 C   0  0  0  0  0  0  0  0  0  0  0  0
  1  2  2  0  0  0  0
  2  3  2  0  0  0  0
  3  4  1  0  0  0  0
  3  5  1  0  0  0  0
M  END
> <ChemID>
100525

> <CAS>
598-26-5

> <Original_SMILES>
CC(C)=C=O

> <preferred_name>
1-Propen-1-one, 2-methyl-

> <dsstox_substance_id>
DTXSID10208530

> <dsstox_compound_id>
DTXCID60131021

> <qc_level>
Public_Medium

> <Canonical_QSARr>
CC(C)=C=O

> <InChI_Code_QSARr>
InChI=1S/C4H6O/c1-4(2)3-5/h1-2H3

> <InChI Key_QSARr>
VDOKWPVSGXHSNP-UHFFFAOYSA-N

> <Salt_Solvent>


> <Salt_Solvent_ID>
0

> <MPID>
99060

> <OH Reference>
ATKINSON,R (1989)

> <OH>
1.07E-10

> <OH Temperature>
25.0

> <LogOH>
-9.970616222314773

> <Tr_1_Tst_0>
1

$$$$
100527
  Mrv171c012241912032D          

  5  4  0  0  0  0            999 V2000
    1.0725    0.1429    0.0000 N   0  3  0  0  0  0  0  0  0  0  0  0
    1.8975    0.1429    0.0000 O   0  5  0  0  0  0  0  0  0  0  0  0
    0.6600   -0.5716    0.0000 O   0  0  0  0  0  0  0  0  0  0  0  0
    0.6600    0.8574    0.0000 O   0  0  0  0  0  0  0  0  0  0  0  0
   -0.1650    0.8574    0.0000 C   0  0  0  0  0  0  0  0  0  0  0  0
  1  2  1  0  0  0  0
  1  3  2  0  0  0  0
  1  4  1  0  0  0  0
  4  5  1  0  0  0  0
M  CHG  2   1   1   2  -1
M  END
> <ChemID>
100527

> <CAS>
598-58-3

> <Original_SMILES>
CO[N+]([O-])=O

> <preferred_name>
Methyl nitrate

> <dsstox_substance_id>
DTXSID4073205

> <dsstox_compound_id>
DTXCID4042705

> <qc_level>
Public_High

> <Canonical_QSARr>
CO[N+]([O-])=O

> <InChI_Code_QSARr>
InChI=1S/CH3NO3/c1-5-2(3)4/h1H3

> <InChI Key_QSARr>
LRMHVVPPGGOAJQ-UHFFFAOYSA-N

> <Salt_Solvent>


> <Salt_Solvent_ID>
0

> <MPID>
99061

> <OH Reference>
ATKINSON,R (1994)

> <OH>
3.5E-13

> <OH Temperature>
25.0

> <LogOH>
-12.455931955649712

> <Tr_1_Tst_0>
1

$$$$
100528
  Mrv171c012241912032D          

  6  5  0  0  0  0            999 V2000
    0.8662    0.0405    0.0000 C   0  0  0  0  0  0  0  0  0  0  0  0
    1.2787   -0.6740    0.0000 C   0  0  0  0  0  0  0  0  0  0  0  0
    2.1037   -0.6740    0.0000 O   0  0  0  0  0  0  0  0  0  0  0  0
    0.8662   -1.3884    0.0000 C   0  0  0  0  0  0  0  0  0  0  0  0
    1.2787   -2.1029    0.0000 C   0  0  0  0  0  0  0  0  0  0  0  0
    0.0412   -1.3884    0.0000 C   0  0  0  0  0  0  0  0  0  0  0  0
  1  2  1  0  0  0  0
  2  3  1  0  0  0  0
  2  4  1  0  0  0  0
  4  5  1  0  0  0  0
  4  6  1  0  0  0  0
M  END
> <ChemID>
100528

> <CAS>
598-75-4

> <Original_SMILES>
CC(C)C(C)O

> <preferred_name>


> <dsstox_substance_id>
DTXSID20862268

> <dsstox_compound_id>
DTXCID30811060

> <qc_level>


> <Canonical_QSARr>
CC(C)C(C)O

> <InChI_Code_QSARr>
InChI=1S/C5H12O/c1-4(2)5(3)6/h4-6H,1-3H3

> <InChI Key_QSARr>
MXLMTQWGSQIYOW-UHFFFAOYSA-N

> <Salt_Solvent>


> <Salt_Solvent_ID>
0

> <MPID>
99062

> <OH Reference>
ATKINSON,R (1989)

> <OH>
1.24E-11

> <OH Temperature>
25.0

> <LogOH>
-10.906578314837782

> <Tr_1_Tst_0>
0

$$$$
100529
  Mrv171c001122012022D          

  7  6  0  0  0  0            999 V2000
    0.4125    1.1227    0.0000 O   0  0  0  0  0  0  0  0  0  0  0  0
   -0.0000    0.4083    0.0000 C   0  0  0  0  0  0  0  0  0  0  0  0
    0.4125   -0.3062    0.0000 C   0  0  0  0  0  0  0  0  0  0  0  0
    0.8250   -1.0207    0.0000 F   0  0  0  0  0  0  0  0  0  0  0  0
   -0.3020   -0.7187    0.0000 F   0  0  0  0  0  0  0  0  0  0  0  0
    1.1270    0.1063    0.0000 F   0  0  0  0  0  0  0  0  0  0  0  0
   -0.8250    0.4083    0.0000 O   0  0  0  0  0  0  0  0  0  0  0  0
  1  2  1  0  0  0  0
  2  3  1  0  0  0  0
  3  4  1  0  0  0  0
  3  5  1  0  0  0  0
  3  6  1  0  0  0  0
  2  7  2  0  0  0  0
M  END
> <ChemID>
100529

> <CAS>
14477-72-6

> <Original_SMILES>
[O-]C(=O)C(F)(F)F

> <preferred_name>
Acetic acid, trifluoro-, ion(1-)

> <dsstox_substance_id>
DTXSID60162799

> <dsstox_compound_id>
DTXCID0085290

> <qc_level>
Public_Medium

> <Canonical_QSARr>
OC(=O)C(F)(F)F

> <InChI_Code_QSARr>
InChI=1S/C2HF3O2/c3-2(4,5)1(6)7/h(H,6,7)

> <InChI Key_QSARr>
DTQVDTLACAAQTR-UHFFFAOYSA-N

> <Salt_Solvent>


> <Salt_Solvent_ID>
0

> <MPID>
99063

> <OH Reference>
CARR,S ET AL. (1994)

> <OH>
1.2E-13

> <OH Temperature>
25.0

> <LogOH>
-12.920818753952357

> <Tr_1_Tst_0>
1

$$$$
100530
  Mrv171c012241912032D          

  9  9  0  0  0  0            999 V2000
    1.5714   -0.7019    0.0000 C   0  0  0  0  0  0  0  0  0  0  0  0
    2.2859   -0.2894    0.0000 C   0  0  0  0  0  0  0  0  0  0  0  0
    3.0004   -0.7019    0.0000 C   0  0  0  0  0  0  0  0  0  0  0  0
    0.8570   -0.2894    0.0000 C   0  0  0  0  0  0  0  0  0  0  0  0
    0.8570    0.5356    0.0000 C   0  0  0  0  0  0  0  0  0  0  0  0
    0.1425   -0.7019    0.0000 C   0  0  0  0  0  0  0  0  0  0  0  0
    0.1425   -1.5269    0.0000 C   0  0  0  0  0  0  0  0  0  0  0  0
    0.8570   -1.9394    0.0000 C   0  0  0  0  0  0  0  0  0  0  0  0
    1.5714   -1.5269    0.0000 C   0  0  0  0  0  0  0  0  0  0  0  0
  1  2  1  0  0  0  0
  2  3  1  0  0  0  0
  4  1  1  0  0  0  0
  4  5  1  0  0  0  0
  6  4  2  0  0  0  0
  7  6  1  0  0  0  0
  8  7  2  0  0  0  0
  9  8  1  0  0  0  0
  1  9  2  0  0  0  0
M  END
> <ChemID>
100530

> <CAS>
611-14-3

> <Original_SMILES>
Cc1ccccc1CC

> <preferred_name>
1-Ethyl-2-methylbenzene

> <dsstox_substance_id>
DTXSID2050403

> <dsstox_compound_id>
DTXCID5029477

> <qc_level>
DSSTox_Low

> <Canonical_QSARr>
CC1=CC=CC=C1CC

> <InChI_Code_QSARr>
InChI=1S/C9H12/c1-3-9-7-5-4-6-8(9)2/h4-7H,3H2,1-2H3

> <InChI Key_QSARr>
HYFLWBNQFMXCPA-UHFFFAOYSA-N

> <Salt_Solvent>


> <Salt_Solvent_ID>
0

> <MPID>
99064

> <OH Reference>
ATKINSON,R (1989)

> <OH>
1.23E-11

> <OH Temperature>
25.0

> <LogOH>
-10.91009488856061

> <Tr_1_Tst_0>
1

$$$$
100532
  Mrv171c012241912032D          

  6  5  0  0  0  0            999 V2000
    1.4225   -0.8249    0.0000 C   0  0  0  0  0  0  0  0  0  0  0  0
    1.8350   -1.5393    0.0000 O   0  0  0  0  0  0  0  0  0  0  0  0
    1.4225   -2.2538    0.0000 C   0  0  0  0  0  0  0  0  0  0  0  0
    1.8350   -0.1104    0.0000 O   0  0  0  0  0  0  0  0  0  0  0  0
    1.4225    0.6041    0.0000 C   0  0  0  0  0  0  0  0  0  0  0  0
    0.5975   -0.8249    0.0000 O   0  0  0  0  0  0  0  0  0  0  0  0
  1  2  1  0  0  0  0
  2  3  1  0  0  0  0
  1  4  1  0  0  0  0
  4  5  1  0  0  0  0
  1  6  2  0  0  0  0
M  END
> <ChemID>
100532

> <CAS>
616-38-6

> <Original_SMILES>
COC(=O)OC

> <preferred_name>
Dimethyl carbonate

> <dsstox_substance_id>
DTXSID9029192

> <dsstox_compound_id>
DTXCID609192

> <qc_level>
DSSTox_Low

> <Canonical_QSARr>
COC(=O)OC

> <InChI_Code_QSARr>
InChI=1S/C3H6O3/c1-5-3(4)6-2/h1-2H3

> <InChI Key_QSARr>
IEJIGPNLZYLLBP-UHFFFAOYSA-N

> <Salt_Solvent>


> <Salt_Solvent_ID>
0

> <MPID>
99065

> <OH Reference>
BILDE,M ET AL. (1997)

> <OH>
3.1E-13

> <OH Temperature>
25.0

> <LogOH>
-12.508638306165729

> <Tr_1_Tst_0>
0

$$$$
100533
  Mrv171c012241912032D          

  8  8  0  0  0  0            999 V2000
    0.3606    0.3358    0.0000 C   0  0  0  0  0  0  0  0  0  0  0  0
   -0.1244   -0.3317    0.0000 C   0  0  0  0  0  0  0  0  0  0  0  0
    0.2112   -1.0854    0.0000 O   0  0  0  0  0  0  0  0  0  0  0  0
    1.1856    0.3358    0.0000 C   0  0  0  0  0  0  0  0  0  0  0  0
    1.4405    1.1204    0.0000 C   0  0  0  0  0  0  0  0  0  0  0  0
    0.7731    1.6053    0.0000 C   0  0  0  0  0  0  0  0  0  0  0  0
    0.7731    2.4303    0.0000 C   0  0  0  0  0  0  0  0  0  0  0  0
    0.1056    1.1204    0.0000 O   0  0  0  0  0  0  0  0  0  0  0  0
  1  2  1  0  0  0  0
  2  3  2  0  0  0  0
  4  1  2  0  0  0  0
  5  4  1  0  0  0  0
  6  5  2  0  0  0  0
  6  7  1  0  0  0  0
  8  6  1  0  0  0  0
  1  8  1  0  0  0  0
M  END
> <ChemID>
100533

> <CAS>
620-02-0

> <Original_SMILES>
Cc1ccc(C=O)o1

> <preferred_name>
2-Furancarboxaldehyde, 5-methyl-

> <dsstox_substance_id>
DTXSID1060714

> <dsstox_compound_id>
DTXCID6043200

> <qc_level>
Public_High

> <Canonical_QSARr>
CC1=CC=C(C=O)O1

> <InChI_Code_QSARr>
InChI=1S/C6H6O2/c1-5-2-3-6(4-7)8-5/h2-4H,1H3

> <InChI Key_QSARr>
OUDFNZMQXZILJD-UHFFFAOYSA-N

> <Salt_Solvent>


> <Salt_Solvent_ID>
0

> <MPID>
99066

> <OH Reference>
BIERBACH,A ET AL. (1995)

> <OH>
5.1E-11

> <OH Temperature>
27.0

> <LogOH>
-10.292429823902053

> <Tr_1_Tst_0>
1

$$$$
100534
  Mrv171c012241912032D          

  9  9  0  0  0  0            999 V2000
    2.0800   -1.1814    0.0000 C   0  0  0  0  0  0  0  0  0  0  0  0
    1.3655   -0.7689    0.0000 C   0  0  0  0  0  0  0  0  0  0  0  0
    1.3655    0.0561    0.0000 C   0  0  0  0  0  0  0  0  0  0  0  0
    2.0800    0.4686    0.0000 C   0  0  0  0  0  0  0  0  0  0  0  0
    0.6511   -1.1814    0.0000 C   0  0  0  0  0  0  0  0  0  0  0  0
    0.6511   -2.0064    0.0000 C   0  0  0  0  0  0  0  0  0  0  0  0
   -0.0634   -2.4189    0.0000 C   0  0  0  0  0  0  0  0  0  0  0  0
    1.3655   -2.4189    0.0000 C   0  0  0  0  0  0  0  0  0  0  0  0
    2.0800   -2.0064    0.0000 C   0  0  0  0  0  0  0  0  0  0  0  0
  2  1  1  0  0  0  0
  2  3  1  0  0  0  0
  3  4  1  0  0  0  0
  5  2  2  0  0  0  0
  6  5  1  0  0  0  0
  6  7  1  0  0  0  0
  8  6  2  0  0  0  0
  9  8  1  0  0  0  0
  1  9  2  0  0  0  0
M  END
> <ChemID>
100534

> <CAS>
620-14-4

> <Original_SMILES>
Cc1cccc(CC)c1

> <preferred_name>
3-Ethyltoluene

> <dsstox_substance_id>
DTXSID6050386

> <dsstox_compound_id>
DTXCID807876

> <qc_level>
DSSTox_High

> <Canonical_QSARr>
CC1C=C(CC)C=CC=1

> <InChI_Code_QSARr>
InChI=1S/C9H12/c1-3-9-6-4-5-8(2)7-9/h4-7H,3H2,1-2H3

> <InChI Key_QSARr>
ZLCSFXXPPANWQY-UHFFFAOYSA-N

> <Salt_Solvent>


> <Salt_Solvent_ID>
0

> <MPID>
99067

> <OH Reference>
ATKINSON,R (1989)

> <OH>
1.92E-11

> <OH Temperature>
25.0

> <LogOH>
-10.716698771296445

> <Tr_1_Tst_0>
1

$$$$
100536
  Mrv171c012241912032D          

  9  9  0  0  0  0            999 V2000
    1.9517   -1.2305    0.0000 C   0  0  0  0  0  0  0  0  0  0  0  0
    1.9517   -2.0555    0.0000 C   0  0  0  0  0  0  0  0  0  0  0  0
    1.2373   -2.4680    0.0000 C   0  0  0  0  0  0  0  0  0  0  0  0
    2.6662   -0.8180    0.0000 C   0  0  0  0  0  0  0  0  0  0  0  0
    2.6662    0.0070    0.0000 C   0  0  0  0  0  0  0  0  0  0  0  0
    1.9517    0.4195    0.0000 C   0  0  0  0  0  0  0  0  0  0  0  0
    1.9517    1.2445    0.0000 C   0  0  0  0  0  0  0  0  0  0  0  0
    1.2373    0.0070    0.0000 C   0  0  0  0  0  0  0  0  0  0  0  0
    1.2373   -0.8180    0.0000 C   0  0  0  0  0  0  0  0  0  0  0  0
  1  2  1  0  0  0  0
  2  3  1  0  0  0  0
  4  1  1  0  0  0  0
  5  4  2  0  0  0  0
  6  5  1  0  0  0  0
  6  7  1  0  0  0  0
  8  6  2  0  0  0  0
  9  8  1  0  0  0  0
  1  9  2  0  0  0  0
M  END
> <ChemID>
100536

> <CAS>
622-96-8

> <Original_SMILES>
Cc1ccc(CC)cc1

> <preferred_name>
4-Ethyltoluene

> <dsstox_substance_id>
DTXSID9029194

> <dsstox_compound_id>
DTXCID409194

> <qc_level>
DSSTox_Low

> <Canonical_QSARr>
CC1C=CC(CC)=CC=1

> <InChI_Code_QSARr>
InChI=1S/C9H12/c1-3-9-6-4-8(2)5-7-9/h4-7H,3H2,1-2H3

> <InChI Key_QSARr>
JRLPEMVDPFPYPJ-UHFFFAOYSA-N

> <Salt_Solvent>


> <Salt_Solvent_ID>
0

> <MPID>
99068

> <OH Reference>
ATKINSON,R (1989)

> <OH>
1.21E-11

> <OH Temperature>
25.0

> <LogOH>
-10.917214629683569

> <Tr_1_Tst_0>
0

$$$$
100537
  Mrv171c012241912032D          

  7  6  0  0  0  0            999 V2000
    2.1336   -0.8193    0.0000 C   0  0  0  0  0  0  0  0  0  0  0  0
    1.4192   -1.2318    0.0000 C   0  0  0  0  0  0  0  0  0  0  0  0
    0.7047   -0.8193    0.0000 C   0  0  0  0  0  0  0  0  0  0  0  0
   -0.0098   -1.2318    0.0000 C   0  0  0  0  0  0  0  0  0  0  0  0
    2.8481   -1.2318    0.0000 O   0  0  0  0  0  0  0  0  0  0  0  0
    3.5626   -0.8193    0.0000 C   0  0  0  0  0  0  0  0  0  0  0  0
    2.1336    0.0057    0.0000 O   0  0  0  0  0  0  0  0  0  0  0  0
  1  2  1  0  0  0  0
  2  3  1  0  0  0  0
  3  4  1  0  0  0  0
  1  5  1  0  0  0  0
  5  6  1  0  0  0  0
  1  7  2  0  0  0  0
M  END
> <ChemID>
100537

> <CAS>
623-42-7

> <Original_SMILES>
CCCC(=O)OC

> <preferred_name>
Methyl butyrate

> <dsstox_substance_id>
DTXSID5047083

> <dsstox_compound_id>
DTXCID3027083

> <qc_level>
DSSTox_Low

> <Canonical_QSARr>
CCCC(=O)OC

> <InChI_Code_QSARr>
InChI=1S/C5H10O2/c1-3-4-5(6)7-2/h3-4H2,1-2H3

> <InChI Key_QSARr>
UUIQMZJEGPQKFD-UHFFFAOYSA-N

> <Salt_Solvent>


> <Salt_Solvent_ID>
0

> <MPID>
99069

> <OH Reference>
KWOK,ESC & ATKINSON,R (1994)

> <OH>
3.040000000000001E-12

> <OH Temperature>
25.0

> <LogOH>
-11.517126416391237

> <Tr_1_Tst_0>
1

$$$$
100538
  Mrv171c012241912032D          

  8  7  0  0  0  0            999 V2000
    3.9039    1.4289    0.0000 C   0  0  0  0  0  0  0  0  0  0  0  0
    3.1894    1.8414    0.0000 O   0  0  0  0  0  0  0  0  0  0  0  0
    2.4749    1.4289    0.0000 C   0  0  0  0  0  0  0  0  0  0  0  0
    1.7605    1.8414    0.0000 C   0  0  0  0  0  0  0  0  0  0  0  0
    4.6184    1.8414    0.0000 N   0  0  0  0  0  0  0  0  0  0  0  0
    5.3328    1.4289    0.0000 C   0  0  0  0  0  0  0  0  0  0  0  0
    6.0473    1.8414    0.0000 C   0  0  0  0  0  0  0  0  0  0  0  0
    3.9039    0.6039    0.0000 O   0  0  0  0  0  0  0  0  0  0  0  0
  1  2  1  0  0  0  0
  2  3  1  0  0  0  0
  3  4  1  0  0  0  0
  1  5  1  0  0  0  0
  5  6  1  0  0  0  0
  6  7  1  0  0  0  0
  1  8  2  0  0  0  0
M  END
> <ChemID>
100538

> <CAS>
623-78-9

> <Original_SMILES>
CCOC(=O)NCC

> <preferred_name>
Ethyl ethylcarbamate

> <dsstox_substance_id>
DTXSID0060775

> <dsstox_compound_id>
DTXCID4043307

> <qc_level>
Public_High

> <Canonical_QSARr>
CCOC(=O)NCC

> <InChI_Code_QSARr>
InChI=1S/C5H11NO2/c1-3-6-5(7)8-4-2/h3-4H2,1-2H3,(H,6,7)

> <InChI Key_QSARr>
GZXSDYYWLZERLF-UHFFFAOYSA-N

> <Salt_Solvent>


> <Salt_Solvent_ID>
0

> <MPID>
99070

> <OH Reference>
KWOK,ESC ET AL. (1996)

> <OH>
1.44E-11

> <OH Temperature>
25.0

> <LogOH>
-10.841637507904753

> <Tr_1_Tst_0>
1

$$$$
100540
  Mrv171c012241912032D          

  4  3  0  0  0  0            999 V2000
    1.2375   -0.7145    0.0000 C   0  0  0  0  0  0  0  0  0  0  0  0
    2.0625   -0.7145    0.0000 F   0  0  0  0  0  0  0  0  0  0  0  0
    0.8250   -0.0000    0.0000 C   0  0  0  0  0  0  0  0  0  0  0  0
   -0.0000   -0.0000    0.0000 F   0  0  0  0  0  0  0  0  0  0  0  0
  1  2  1  0  0  0  0
  1  3  1  0  0  0  0
  3  4  1  0  0  0  0
M  END
> <ChemID>
100540

> <CAS>
624-72-6

> <Original_SMILES>
FCCF

> <preferred_name>
HFC-152

> <dsstox_substance_id>
DTXSID3073214

> <dsstox_compound_id>
DTXCID6043339

> <qc_level>
Public_High

> <Canonical_QSARr>
FCCF

> <InChI_Code_QSARr>
InChI=1S/C2H4F2/c3-1-2-4/h1-2H2

> <InChI Key_QSARr>
AHFMSNDOYCFEPH-UHFFFAOYSA-N

> <Salt_Solvent>


> <Salt_Solvent_ID>
0

> <MPID>
99072

> <OH Reference>
ATKINSON,R (1989)

> <OH>
1.12E-13

> <OH Temperature>
25.0

> <LogOH>
-12.950781977329822

> <Tr_1_Tst_0>
1

$$$$
100541
  Mrv171c012241912032D          

  4  3  0  0  0  0            999 V2000
    1.2375   -0.7145    0.0000 C   0  0  0  0  0  0  0  0  0  0  0  0
    2.0625   -0.7145    0.0000 C   0  0  0  0  0  0  0  0  0  0  0  0
    0.8250   -0.0000    0.0000 S   0  0  0  0  0  0  0  0  0  0  0  0
    0.0000   -0.0000    0.0000 C   0  0  0  0  0  0  0  0  0  0  0  0
  1  2  1  0  0  0  0
  1  3  1  0  0  0  0
  3  4  1  0  0  0  0
M  END
> <ChemID>
100541

> <CAS>
624-89-5

> <Original_SMILES>
CCSC

> <preferred_name>
Ethyl methyl sulfide

> <dsstox_substance_id>
DTXSID3060794

> <dsstox_compound_id>
DTXCID0043345

> <qc_level>
Public_High

> <Canonical_QSARr>
CCSC

> <InChI_Code_QSARr>
InChI=1S/C3H8S/c1-3-4-2/h3H2,1-2H3

> <InChI Key_QSARr>
WXEHBUMAEPOYKP-UHFFFAOYSA-N

> <Salt_Solvent>


> <Salt_Solvent_ID>
0

> <MPID>
99073

> <OH Reference>
ATKINSON,R (1989)

> <OH>
8.5E-12

> <OH Temperature>
25.0

> <LogOH>
-11.070581074285716

> <Tr_1_Tst_0>
0

$$$$
100542
  Mrv171c012241912032D          

  4  3  0  0  0  0            999 V2000
    0.8250   -0.0000    0.0000 N   0  0  0  0  0  0  0  0  0  0  0  0
    1.2375   -0.7145    0.0000 O   0  0  0  0  0  0  0  0  0  0  0  0
    2.0625   -0.7145    0.0000 C   0  0  0  0  0  0  0  0  0  0  0  0
    0.0000   -0.0000    0.0000 O   0  0  0  0  0  0  0  0  0  0  0  0
  1  2  1  0  0  0  0
  2  3  1  0  0  0  0
  1  4  2  0  0  0  0
M  END
> <ChemID>
100542

> <CAS>
624-91-9

> <Original_SMILES>
CON=O

> <preferred_name>
Methyl nitrite

> <dsstox_substance_id>
DTXSID8060795

> <dsstox_compound_id>
DTXCID5043346

> <qc_level>
Public_High

> <Canonical_QSARr>
CON=O

> <InChI_Code_QSARr>
InChI=1S/CH3NO2/c1-4-2-3/h1H3

> <InChI Key_QSARr>
BLLFVUPNHCTMSV-UHFFFAOYSA-N

> <Salt_Solvent>


> <Salt_Solvent_ID>
0

> <MPID>
99074

> <OH Reference>
ATKINSON,R (1994)

> <OH>
2.2E-13

> <OH Temperature>
25.0

> <LogOH>
-12.657577319177783

> <Tr_1_Tst_0>
1

$$$$
100543
  Mrv171c012241912032D          

  4  3  0  0  0  0            999 V2000
    0.8668    0.1512    0.0000 S   0  0  0  0  0  0  0  0  0  0  0  0
    1.2793   -0.5633    0.0000 S   0  0  0  0  0  0  0  0  0  0  0  0
    2.1043   -0.5633    0.0000 C   0  0  0  0  0  0  0  0  0  0  0  0
    0.0418    0.1512    0.0000 C   0  0  0  0  0  0  0  0  0  0  0  0
  1  2  1  0  0  0  0
  2  3  1  0  0  0  0
  1  4  1  0  0  0  0
M  END
> <ChemID>
100543

> <CAS>
624-92-0

> <Original_SMILES>
CSSC

> <preferred_name>
Methyl disulfide

> <dsstox_substance_id>
DTXSID4025117

> <dsstox_compound_id>
DTXCID805117

> <qc_level>
DSSTox_High

> <Canonical_QSARr>
CSSC

> <InChI_Code_QSARr>
InChI=1S/C2H6S2/c1-3-4-2/h1-2H3

> <InChI Key_QSARr>
WQOXQRCZOLPYPM-UHFFFAOYSA-N

> <Salt_Solvent>


> <Salt_Solvent_ID>
0

> <MPID>
99075

> <OH Reference>
KWOK,ESC & ATKINSON,R (1994)

> <OH>
2.270000000000001E-10

> <OH Temperature>
24.0

> <LogOH>
-9.643974142806856

> <Tr_1_Tst_0>
1

$$$$
100544
  Mrv171c012241912032D          

  8  7  0  0  0  0            999 V2000
    3.0718    1.3434    0.0000 O   0  0  0  0  0  0  0  0  0  0  0  0
    3.4843    0.6289    0.0000 C   0  0  0  0  0  0  0  0  0  0  0  0
    2.7698    0.2164    0.0000 C   0  0  0  0  0  0  0  0  0  0  0  0
    4.1987    1.0414    0.0000 C   0  0  0  0  0  0  0  0  0  0  0  0
    3.8968   -0.0856    0.0000 C   0  0  0  0  0  0  0  0  0  0  0  0
    3.4843   -0.8001    0.0000 C   0  0  0  0  0  0  0  0  0  0  0  0
    3.8968   -1.5145    0.0000 C   0  0  0  0  0  0  0  0  0  0  0  0
    2.6593   -0.8001    0.0000 C   0  0  0  0  0  0  0  0  0  0  0  0
  1  2  1  0  0  0  0
  2  3  1  0  0  0  0
  2  4  1  0  0  0  0
  2  5  1  0  0  0  0
  5  6  1  0  0  0  0
  6  7  1  0  0  0  0
  6  8  1  0  0  0  0
M  END
> <ChemID>
100544

> <CAS>
625-06-9

> <Original_SMILES>
CC(C)CC(C)(C)O

> <preferred_name>
2,4-Dimethylpentan-2-ol

> <dsstox_substance_id>
DTXSID60211534

> <dsstox_compound_id>
DTXCID90134025

> <qc_level>
Public_Medium

> <Canonical_QSARr>
CC(C)CC(C)(C)O

> <InChI_Code_QSARr>
InChI=1S/C7H16O/c1-6(2)5-7(3,4)8/h6,8H,5H2,1-4H3

> <InChI Key_QSARr>
FMLSQAUAAGVTJO-UHFFFAOYSA-N

> <Salt_Solvent>


> <Salt_Solvent_ID>
0

> <MPID>
99076

> <OH Reference>
ATKINSON,R & ASCHMANN,SM (1995)

> <OH>
1.14E-11

> <OH Temperature>
23.0

> <LogOH>
-10.943095148663527

> <Tr_1_Tst_0>
1

$$$$
100545
  Mrv171c012241912032D          

  6  5  0  0  0  0            999 V2000
    0.6187    0.5954    0.0000 C   0  0  0  0  0  0  0  0  0  0  0  0
    1.0312   -0.1191    0.0000 C   0  0  0  0  0  0  0  0  0  0  0  0
    1.8562   -0.1191    0.0000 C   0  0  0  0  0  0  0  0  0  0  0  0
   -0.2063    0.5954    0.0000 C   0  0  0  0  0  0  0  0  0  0  0  0
   -0.6188   -0.1191    0.0000 C   0  0  0  0  0  0  0  0  0  0  0  0
   -0.6188    1.3099    0.0000 C   0  0  0  0  0  0  0  0  0  0  0  0
  1  2  1  0  0  0  0
  2  3  1  0  0  0  0
  1  4  2  0  0  0  0
  4  5  1  0  0  0  0
  4  6  1  0  0  0  0
M  END
> <ChemID>
100545

> <CAS>
625-27-4

> <Original_SMILES>
CCC=C(C)C

> <preferred_name>
2-Methyl-2-pentene

> <dsstox_substance_id>
DTXSID8073217

> <dsstox_compound_id>
DTXCID8043365

> <qc_level>
Public_High

> <Canonical_QSARr>
CCC=C(C)C

> <InChI_Code_QSARr>
InChI=1S/C6H12/c1-4-5-6(2)3/h5H,4H2,1-3H3

> <InChI Key_QSARr>
JMMZCWZIJXAGKW-UHFFFAOYSA-N

> <Salt_Solvent>


> <Salt_Solvent_ID>
0

> <MPID>
99077

> <OH Reference>
KWOK,ESC & ATKINSON,R (1994)

> <OH>
8.899999999999998E-11

> <OH Temperature>
25.0

> <LogOH>
-10.050609993355081

> <Tr_1_Tst_0>
0

$$$$
100547
  Mrv171c012241912032D          

  6  5  0  0  0  0            999 V2000
    3.3036    1.5849    0.0000 O   0  5  0  0  0  0  0  0  0  0  0  0
    2.8911    0.8704    0.0000 N   0  3  0  0  0  0  0  0  0  0  0  0
    3.3036    0.1560    0.0000 C   0  0  0  0  0  0  0  0  0  0  0  0
    2.8911   -0.5585    0.0000 C   0  0  0  0  0  0  0  0  0  0  0  0
    3.3036   -1.2730    0.0000 C   0  0  0  0  0  0  0  0  0  0  0  0
    2.0661    0.8704    0.0000 O   0  0  0  0  0  0  0  0  0  0  0  0
  1  2  1  0  0  0  0
  2  3  1  0  0  0  0
  3  4  1  0  0  0  0
  4  5  2  0  0  0  0
  2  6  2  0  0  0  0
M  CHG  2   1  -1   2   1
M  END
> <ChemID>
100547

> <CAS>
625-46-7

> <Original_SMILES>
C=CC[N+]([O-])=O

> <preferred_name>
1-Propene, 3-nitro-

> <dsstox_substance_id>
DTXSID30211541

> <dsstox_compound_id>
DTXCID60134032

> <qc_level>
Public_Medium

> <Canonical_QSARr>
C=CC[N+]([O-])=O

> <InChI_Code_QSARr>
InChI=1S/C3H5NO2/c1-2-3-4(5)6/h2H,1,3H2

> <InChI Key_QSARr>
VLISOFDTMSFZPP-UHFFFAOYSA-N

> <Salt_Solvent>


> <Salt_Solvent_ID>
0

> <MPID>
99078

> <OH Reference>
ATKINSON,R (1994)

> <OH>
1.22E-11

> <OH Temperature>
25.0

> <LogOH>
-10.913640169325236

> <Tr_1_Tst_0>
1

$$$$
100548
  Mrv171c012241912032D          

  6  5  0  0  0  0            999 V2000
    1.8563   -0.3572    0.0000 O   0  0  0  0  0  0  0  0  0  0  0  0
    1.4437    0.3572    0.0000 C   0  0  0  0  0  0  0  0  0  0  0  0
    1.8562    1.0717    0.0000 C   0  0  0  0  0  0  0  0  0  0  0  0
    1.4438   -1.0717    0.0000 N   0  3  0  0  0  0  0  0  0  0  0  0
    1.8563   -1.7862    0.0000 O   0  5  0  0  0  0  0  0  0  0  0  0
    0.6188   -1.0717    0.0000 O   0  0  0  0  0  0  0  0  0  0  0  0
  1  2  1  0  0  0  0
  2  3  1  0  0  0  0
  1  4  1  0  0  0  0
  4  5  1  0  0  0  0
  4  6  2  0  0  0  0
M  CHG  2   4   1   5  -1
M  END
> <ChemID>
100548

> <CAS>
625-58-1

> <Original_SMILES>
CCO[N+]([O-])=O

> <preferred_name>
Ethyl nitrate

> <dsstox_substance_id>
DTXSID0060806

> <dsstox_compound_id>
DTXCID7043374

> <qc_level>
Public_High

> <Canonical_QSARr>
CCO[N+]([O-])=O

> <InChI_Code_QSARr>
InChI=1S/C2H5NO3/c1-2-6-3(4)5/h2H2,1H3

> <InChI Key_QSARr>
IDNUEBSJWINEMI-UHFFFAOYSA-N

> <Salt_Solvent>


> <Salt_Solvent_ID>
0

> <MPID>
99079

> <OH Reference>
KAKESU,M ET AL. (1997)

> <OH>
2.0E-13

> <OH Temperature>
25.0

> <LogOH>
-12.698970004335997

> <Tr_1_Tst_0>
1

$$$$
100549
  Mrv171c012241912032D          

  7  7  0  0  0  0            999 V2000
    1.8160   -0.6211    0.0000 O   0  0  0  0  0  0  0  0  0  0  0  0
    1.1485   -0.1362    0.0000 C   0  0  0  0  0  0  0  0  0  0  0  0
    1.1485    0.6888    0.0000 C   0  0  0  0  0  0  0  0  0  0  0  0
    0.4811   -0.6211    0.0000 C   0  0  0  0  0  0  0  0  0  0  0  0
    0.7360   -1.4057    0.0000 C   0  0  0  0  0  0  0  0  0  0  0  0
    1.5610   -1.4057    0.0000 C   0  0  0  0  0  0  0  0  0  0  0  0
    2.0459   -2.0732    0.0000 C   0  0  0  0  0  0  0  0  0  0  0  0
  2  1  1  0  0  0  0
  2  3  1  0  0  0  0
  4  2  2  0  0  0  0
  5  4  1  0  0  0  0
  6  5  2  0  0  0  0
  1  6  1  0  0  0  0
  6  7  1  0  0  0  0
M  END
> <ChemID>
100549

> <CAS>
625-86-5

> <Original_SMILES>
Cc1ccc(C)o1

> <preferred_name>
2,5-Dimethylfuran

> <dsstox_substance_id>
DTXSID7022093

> <dsstox_compound_id>
DTXCID102093

> <qc_level>
DSSTox_Low

> <Canonical_QSARr>
CC1=CC=C(C)O1

> <InChI_Code_QSARr>
InChI=1S/C6H8O/c1-5-3-4-6(2)7-5/h3-4H,1-2H3

> <InChI Key_QSARr>
GSNUFIFRDBKVIE-UHFFFAOYSA-N

> <Salt_Solvent>


> <Salt_Solvent_ID>
0

> <MPID>
99080

> <OH Reference>
BIERBACH,A ET AL. (1992)

> <OH>
1.32E-10

> <OH Temperature>
27.0

> <LogOH>
-9.87942606879416

> <Tr_1_Tst_0>
0

$$$$
100550
  Mrv171c012241912032D          

  7  6  0  0  0  0            999 V2000
   -0.0093   -0.7082    0.0000 C   0  0  0  0  0  0  0  0  0  0  0  0
    0.7051   -0.2957    0.0000 C   0  0  0  0  0  0  0  0  0  0  0  0
    0.7051    0.5293    0.0000 O   0  0  0  0  0  0  0  0  0  0  0  0
    1.4196   -0.7082    0.0000 C   0  0  0  0  0  0  0  0  0  0  0  0
    2.1341   -0.2957    0.0000 C   0  0  0  0  0  0  0  0  0  0  0  0
    2.8485   -0.7082    0.0000 C   0  0  0  0  0  0  0  0  0  0  0  0
    3.5630   -0.2957    0.0000 C   0  0  0  0  0  0  0  0  0  0  0  0
  1  2  1  0  0  0  0
  2  3  1  0  0  0  0
  2  4  1  0  0  0  0
  4  5  1  0  0  0  0
  5  6  1  0  0  0  0
  6  7  1  0  0  0  0
M  END
> <ChemID>
100550

> <CAS>
54972-97-3

> <Original_SMILES>
CCCCC(C)O

> <preferred_name>


> <dsstox_substance_id>
DTXSID80862320

> <dsstox_compound_id>
DTXCID501323274

> <qc_level>


> <Canonical_QSARr>
CCCCC(C)O

> <InChI_Code_QSARr>
InChI=1S/C6H14O/c1-3-4-5-6(2)7/h6-7H,3-5H2,1-2H3

> <InChI Key_QSARr>
QNVRIHYSUZMSGM-UHFFFAOYSA-N

> <Salt_Solvent>


> <Salt_Solvent_ID>
0

> <MPID>
99081

> <OH Reference>
ATKINSON,R (1989)

> <OH>
1.21E-11

> <OH Temperature>
25.0

> <LogOH>
-10.917214629683569

> <Tr_1_Tst_0>
1

$$$$
100551
  Mrv171c012241912032D          

  7  6  0  0  0  0            999 V2000
   -0.0024   -1.2313    0.0000 O   0  5  0  0  0  0  0  0  0  0  0  0
    0.7120   -0.8188    0.0000 N   0  3  0  0  0  0  0  0  0  0  0  0
    1.4265   -1.2313    0.0000 C   0  0  0  0  0  0  0  0  0  0  0  0
    2.1410   -0.8188    0.0000 C   0  0  0  0  0  0  0  0  0  0  0  0
    2.8555   -1.2313    0.0000 C   0  0  0  0  0  0  0  0  0  0  0  0
    3.5699   -0.8188    0.0000 C   0  0  0  0  0  0  0  0  0  0  0  0
    0.7120    0.0062    0.0000 O   0  0  0  0  0  0  0  0  0  0  0  0
  1  2  1  0  0  0  0
  2  3  1  0  0  0  0
  3  4  1  0  0  0  0
  4  5  1  0  0  0  0
  5  6  1  0  0  0  0
  2  7  2  0  0  0  0
M  CHG  2   1  -1   2   1
M  END
> <ChemID>
100551

> <CAS>
627-05-4

> <Original_SMILES>
CCCC[N+]([O-])=O

> <preferred_name>
1-Nitrobutane

> <dsstox_substance_id>
DTXSID8020967

> <dsstox_compound_id>
DTXCID20967

> <qc_level>
DSSTox_Low

> <Canonical_QSARr>
CCCC[N+]([O-])=O

> <InChI_Code_QSARr>
InChI=1S/C4H9NO2/c1-2-3-4-5(6)7/h2-4H2,1H3

> <InChI Key_QSARr>
NALZTFARIYUCBY-UHFFFAOYSA-N

> <Salt_Solvent>


> <Salt_Solvent_ID>
0

> <MPID>
99082

> <OH Reference>
KWOK,ESC & ATKINSON,R (1994)

> <OH>
1.5E-12

> <OH Temperature>
25.0

> <LogOH>
-11.823908740944326

> <Tr_1_Tst_0>
1

$$$$
100552
  Mrv171c012241912032D          

  7  6  0  0  0  0            999 V2000
    1.6458    1.4216    0.0000 O   0  0  0  0  0  0  0  0  0  0  0  0
    0.9313    1.0091    0.0000 C   0  0  0  0  0  0  0  0  0  0  0  0
    0.2168    1.4216    0.0000 C   0  0  0  0  0  0  0  0  0  0  0  0
   -0.4977    1.0091    0.0000 C   0  0  0  0  0  0  0  0  0  0  0  0
    2.3602    1.0091    0.0000 N   0  3  0  0  0  0  0  0  0  0  0  0
    3.0747    1.4216    0.0000 O   0  5  0  0  0  0  0  0  0  0  0  0
    2.3602    0.1841    0.0000 O   0  0  0  0  0  0  0  0  0  0  0  0
  1  2  1  0  0  0  0
  2  3  1  0  0  0  0
  3  4  1  0  0  0  0
  1  5  1  0  0  0  0
  5  6  1  0  0  0  0
  5  7  2  0  0  0  0
M  CHG  2   5   1   6  -1
M  END
> <ChemID>
100552

> <CAS>
627-13-4

> <Original_SMILES>
CCCO[N+]([O-])=O

> <preferred_name>
n-Propyl nitrate

> <dsstox_substance_id>
DTXSID2060834

> <dsstox_compound_id>
DTXCID8043492

> <qc_level>
Public_High

> <Canonical_QSARr>
CCCO[N+]([O-])=O

> <InChI_Code_QSARr>
InChI=1S/C3H7NO3/c1-2-3-7-4(5)6/h2-3H2,1H3

> <InChI Key_QSARr>
JNTOKFNBDFMTIV-UHFFFAOYSA-N

> <Salt_Solvent>


> <Salt_Solvent_ID>
0

> <MPID>
99083

> <OH Reference>
KWOK,ESC & ATKINSON,R (1994)

> <OH>
7.3E-13

> <OH Temperature>
25.0

> <LogOH>
-12.136677139879522

> <Tr_1_Tst_0>
1

$$$$
100553
  Mrv171c012241912032D          

  5  4  0  0  0  0            999 V2000
    1.3200   -0.5716    0.0000 C   0  0  0  0  0  0  0  0  0  0  0  0
    2.1450   -0.5716    0.0000 C   0  0  0  0  0  0  0  0  0  0  0  0
    2.9700   -0.5716    0.0000 C   0  0  0  0  0  0  0  0  0  0  0  0
    0.9075    0.1429    0.0000 C   0  0  0  0  0  0  0  0  0  0  0  0
    0.0825    0.1429    0.0000 C   0  0  0  0  0  0  0  0  0  0  0  0
  1  2  1  0  0  0  0
  2  3  3  0  0  0  0
  1  4  1  0  0  0  0
  4  5  1  0  0  0  0
M  END
> <ChemID>
100553

> <CAS>
627-19-0

> <Original_SMILES>
CCCC#C

> <preferred_name>
1-Pentyne

> <dsstox_substance_id>
DTXSID7060835

> <dsstox_compound_id>
DTXCID3043493

> <qc_level>
Public_High

> <Canonical_QSARr>
CCCC#C

> <InChI_Code_QSARr>
InChI=1S/C5H8/c1-3-5-4-2/h1H,4-5H2,2H3

> <InChI Key_QSARr>
IBXNCJKFFQIKKY-UHFFFAOYSA-N

> <Salt_Solvent>


> <Salt_Solvent_ID>
0

> <MPID>
99084

> <OH Reference>
ATKINSON,R (1989)

> <OH>
1.12E-11

> <OH Temperature>
25.0

> <LogOH>
-10.950781977329818

> <Tr_1_Tst_0>
0

$$$$
100554
  Mrv171c012241912032D          

  5  4  0  0  0  0            999 V2000
    1.2375    0.7145    0.0000 C   0  0  0  0  0  0  0  0  0  0  0  0
    0.8250    0.0000    0.0000 C   0  0  0  0  0  0  0  0  0  0  0  0
    0.0000    0.0000    0.0000 C   0  0  0  0  0  0  0  0  0  0  0  0
   -0.4125   -0.7145    0.0000 C   0  0  0  0  0  0  0  0  0  0  0  0
    0.0000   -1.4289    0.0000 C   0  0  0  0  0  0  0  0  0  0  0  0
  2  1  1  4  0  0  0
  2  3  2  0  0  0  0
  3  4  1  0  0  0  0
  4  5  1  0  0  0  0
M  END
> <ChemID>
100554

> <CAS>
109-68-2

> <Original_SMILES>
CC=CCC

> <preferred_name>
2-Pentene

> <dsstox_substance_id>
DTXSID5059375

> <dsstox_compound_id>
DTXCID0033128

> <qc_level>
Public_High

> <Canonical_QSARr>
CC=CCC

> <InChI_Code_QSARr>
InChI=1S/C5H10/c1-3-5-4-2/h3,5H,4H2,1-2H3

> <InChI Key_QSARr>
QMMOXUPEWRXHJS-UHFFFAOYSA-N

> <Salt_Solvent>


> <Salt_Solvent_ID>
0

> <MPID>
99085|99103

> <OH Reference>
KWOK,ESC & ATKINSON,R (1994)

> <OH>
6.6E-11

> <OH Temperature>
25.0

> <LogOH>
-10.18045606445812

> <Tr_1_Tst_0>
1

$$$$
100556
  Mrv171c012241912032D          

  5  4  0  0  0  0            999 V2000
    1.2375   -0.7145    0.0000 C   0  0  0  0  0  0  0  0  0  0  0  0
    2.0625   -0.7145    0.0000 O   0  0  0  0  0  0  0  0  0  0  0  0
    2.4750   -1.4289    0.0000 C   0  0  0  0  0  0  0  0  0  0  0  0
    0.8250    0.0000    0.0000 C   0  0  0  0  0  0  0  0  0  0  0  0
    0.0000    0.0000    0.0000 Cl  0  0  0  0  0  0  0  0  0  0  0  0
  1  2  1  0  0  0  0
  2  3  1  0  0  0  0
  1  4  1  0  0  0  0
  4  5  1  0  0  0  0
M  END
> <ChemID>
100556

> <CAS>
627-42-9

> <Original_SMILES>
COCCCl

> <preferred_name>
Ethane, 1-chloro-2-methoxy-

> <dsstox_substance_id>
DTXSID6060840

> <dsstox_compound_id>
DTXCID3043499

> <qc_level>
Public_High

> <Canonical_QSARr>
COCCCl

> <InChI_Code_QSARr>
InChI=1S/C3H7ClO/c1-5-3-2-4/h2-3H2,1H3

> <InChI Key_QSARr>
XTIGGAHUZJWQMD-UHFFFAOYSA-N

> <Salt_Solvent>


> <Salt_Solvent_ID>
0

> <MPID>
99086

> <OH Reference>
KWOK,ESC & ATKINSON,R (1994)

> <OH>
4.69E-12

> <OH Temperature>
25.0

> <LogOH>
-11.328827157284932

> <Tr_1_Tst_0>
1

$$$$
100557
  Mrv171c012241912032D          

  8  7  0  0  0  0            999 V2000
    0.5230    1.1270    0.0000 C   0  0  0  0  0  0  0  0  0  0  0  0
   -0.1914    0.7145    0.0000 C   0  0  0  0  0  0  0  0  0  0  0  0
    0.5230    1.9520    0.0000 C   0  0  0  0  0  0  0  0  0  0  0  0
    1.2375    0.7145    0.0000 C   0  0  0  0  0  0  0  0  0  0  0  0
    1.9520    1.1270    0.0000 C   0  0  0  0  0  0  0  0  0  0  0  0
    2.6664    0.7145    0.0000 C   0  0  0  0  0  0  0  0  0  0  0  0
    3.3809    1.1270    0.0000 C   0  0  0  0  0  0  0  0  0  0  0  0
    2.6664   -0.1105    0.0000 C   0  0  0  0  0  0  0  0  0  0  0  0
  1  2  2  0  0  0  0
  1  3  1  0  0  0  0
  1  4  1  0  0  0  0
  4  5  1  0  0  0  0
  5  6  1  0  0  0  0
  6  7  2  0  0  0  0
  6  8  1  0  0  0  0
M  END
> <ChemID>
100557

> <CAS>
627-58-7

> <Original_SMILES>
CC(=C)CCC(C)=C

> <preferred_name>
1,5-Hexadiene, 2,5-dimethyl-

> <dsstox_substance_id>
DTXSID6060844

> <dsstox_compound_id>
DTXCID0043503

> <qc_level>
Public_High

> <Canonical_QSARr>
CC(=C)CCC(C)=C

> <InChI_Code_QSARr>
InChI=1S/C8H14/c1-7(2)5-6-8(3)4/h1,3,5-6H2,2,4H3

> <InChI Key_QSARr>
DSAYAFZWRDYBQY-UHFFFAOYSA-N

> <Salt_Solvent>


> <Salt_Solvent_ID>
0

> <MPID>
99087

> <OH Reference>
ATKINSON,R (1989)

> <OH>
1.2E-10

> <OH Temperature>
25.0

> <LogOH>
-9.920818753952373

> <Tr_1_Tst_0>
0

$$$$
100558
  Mrv171c012241912032D          

 12 11  0  0  0  0            999 V2000
    1.6692   -0.8272    0.0000 C   0  0  0  0  0  0  0  0  0  0  0  0
    0.9547   -1.2397    0.0000 C   0  0  0  0  0  0  0  0  0  0  0  0
    0.2403   -0.8272    0.0000 O   0  0  0  0  0  0  0  0  0  0  0  0
   -0.4742   -1.2397    0.0000 C   0  0  0  0  0  0  0  0  0  0  0  0
    0.9547   -2.0647    0.0000 O   0  0  0  0  0  0  0  0  0  0  0  0
    2.3837   -1.2397    0.0000 C   0  0  0  0  0  0  0  0  0  0  0  0
    3.0982   -0.8272    0.0000 C   0  0  0  0  0  0  0  0  0  0  0  0
    3.8126   -1.2397    0.0000 C   0  0  0  0  0  0  0  0  0  0  0  0
    4.5271   -0.8272    0.0000 C   0  0  0  0  0  0  0  0  0  0  0  0
    5.2416   -1.2397    0.0000 O   0  0  0  0  0  0  0  0  0  0  0  0
    5.9560   -0.8272    0.0000 C   0  0  0  0  0  0  0  0  0  0  0  0
    4.5271   -0.0022    0.0000 O   0  0  0  0  0  0  0  0  0  0  0  0
  1  2  1  0  0  0  0
  2  3  1  0  0  0  0
  3  4  1  0  0  0  0
  2  5  2  0  0  0  0
  1  6  1  0  0  0  0
  6  7  1  0  0  0  0
  7  8  1  0  0  0  0
  8  9  1  0  0  0  0
  9 10  1  0  0  0  0
 10 11  1  0  0  0  0
  9 12  2  0  0  0  0
M  END
> <ChemID>
100558

> <CAS>
627-93-0

> <Original_SMILES>
COC(=O)CCCCC(=O)OC

> <preferred_name>
Dimethyl adipate

> <dsstox_substance_id>
DTXSID8025096

> <dsstox_compound_id>
DTXCID605096

> <qc_level>
DSSTox_Low

> <Canonical_QSARr>
COC(=O)CCCCC(=O)OC

> <InChI_Code_QSARr>
InChI=1S/C8H14O4/c1-11-7(9)5-3-4-6-8(10)12-2/h3-6H2,1-2H3

> <InChI Key_QSARr>
UDSFAEKRVUSQDD-UHFFFAOYSA-N

> <Salt_Solvent>


> <Salt_Solvent_ID>
0

> <MPID>
99088

> <OH Reference>
ASCHMANN,SM & ATKINSON,R (1998)

> <OH>
8.400000000000001E-12

> <OH Temperature>
25.0

> <LogOH>
-11.075720713938125

> <Tr_1_Tst_0>
1

$$$$
100560
  Mrv171c012241912032D          

  6  5  0  0  0  0            999 V2000
    1.2375    0.7145    0.0000 C   0  0  0  0  0  0  0  0  0  0  0  0
    0.5230    1.1270    0.0000 C   0  0  0  0  0  0  0  0  0  0  0  0
   -0.1915    0.7145    0.0000 C   0  0  0  0  0  0  0  0  0  0  0  0
    1.9519    1.1270    0.0000 C   0  0  0  0  0  0  0  0  0  0  0  0
    2.6664    0.7145    0.0000 O   0  0  0  0  0  0  0  0  0  0  0  0
    3.3809    1.1270    0.0000 C   0  0  0  0  0  0  0  0  0  0  0  0
  1  2  1  0  0  0  0
  2  3  1  0  0  0  0
  1  4  1  0  0  0  0
  4  5  1  0  0  0  0
  5  6  1  0  0  0  0
M  END
> <ChemID>
100560

> <CAS>
628-28-4

> <Original_SMILES>
CCCCOC

> <preferred_name>
Butane, 1-methoxy-

> <dsstox_substance_id>
DTXSID5074559

> <dsstox_compound_id>
DTXCID1043542

> <qc_level>
Public_High

> <Canonical_QSARr>
CCCCOC

> <InChI_Code_QSARr>
InChI=1S/C5H12O/c1-3-4-5-6-2/h3-5H2,1-2H3

> <InChI Key_QSARr>
CXBDYQVECUFKRK-UHFFFAOYSA-N

> <Salt_Solvent>


> <Salt_Solvent_ID>
0

> <MPID>
99089

> <OH Reference>
KWOK,ESC & ATKINSON,R (1994)

> <OH>
1.48E-11

> <OH Temperature>
25.0

> <LogOH>
-10.82973828460505

> <Tr_1_Tst_0>
1

$$$$
100561
  Mrv171c012241912032D          

  6  6  0  0  0  0            999 V2000
    1.4289    0.8250    0.0000 C   0  0  0  0  0  0  0  0  0  0  0  0
    0.7145    1.2375    0.0000 C   0  0  0  0  0  0  0  0  0  0  0  0
   -0.0000    0.8250    0.0000 C   0  0  0  0  0  0  0  0  0  0  0  0
   -0.0000    0.0000    0.0000 C   0  0  0  0  0  0  0  0  0  0  0  0
    0.7145   -0.4125    0.0000 C   0  0  0  0  0  0  0  0  0  0  0  0
    1.4289   -0.0000    0.0000 C   0  0  0  0  0  0  0  0  0  0  0  0
  2  1  1  0  0  0  0
  3  2  2  0  0  0  0
  4  3  1  0  0  0  0
  5  4  1  0  0  0  0
  6  5  2  0  0  0  0
  1  6  1  0  0  0  0
M  END
> <ChemID>
100561

> <CAS>
628-41-1

> <Original_SMILES>
C1C=CCC=C1

> <preferred_name>
1,4-Cyclohexadiene

> <dsstox_substance_id>
DTXSID0060854

> <dsstox_compound_id>
DTXCID6043547

> <qc_level>
Public_High

> <Canonical_QSARr>
C1C=CCC=C1

> <InChI_Code_QSARr>
InChI=1S/C6H8/c1-2-4-6-5-3-1/h1-2,5-6H,3-4H2

> <InChI Key_QSARr>
UVJHQYIOXKWHFD-UHFFFAOYSA-N

> <Salt_Solvent>


> <Salt_Solvent_ID>
0

> <MPID>
99090

> <OH Reference>
KWOK,ESC & ATKINSON,R (1994)

> <OH>
1.0E-10

> <OH Temperature>
25.0

> <LogOH>
-10.000000000000018

> <Tr_1_Tst_0>
1

$$$$
100562
  Mrv171c012241912032D          

  9  8  0  0  0  0            999 V2000
    2.4750   -1.4289    0.0000 C   0  0  0  0  0  0  0  0  0  0  0  0
    1.7605   -1.0164    0.0000 C   0  0  0  0  0  0  0  0  0  0  0  0
    2.4750   -2.2539    0.0000 C   0  0  0  0  0  0  0  0  0  0  0  0
    3.1894   -1.0164    0.0000 C   0  0  0  0  0  0  0  0  0  0  0  0
    3.9039   -1.4289    0.0000 O   0  0  0  0  0  0  0  0  0  0  0  0
    4.6184   -1.0164    0.0000 C   0  0  0  0  0  0  0  0  0  0  0  0
    5.3328   -1.4289    0.0000 C   0  0  0  0  0  0  0  0  0  0  0  0
    6.0473   -1.0164    0.0000 C   0  0  0  0  0  0  0  0  0  0  0  0
    5.3328   -2.2539    0.0000 C   0  0  0  0  0  0  0  0  0  0  0  0
  1  2  1  0  0  0  0
  1  3  1  0  0  0  0
  1  4  1  0  0  0  0
  4  5  1  0  0  0  0
  5  6  1  0  0  0  0
  6  7  1  0  0  0  0
  7  8  1  0  0  0  0
  7  9  1  0  0  0  0
M  END
> <ChemID>
100562

> <CAS>
628-55-7

> <Original_SMILES>
CC(C)COCC(C)C

> <preferred_name>
Propane, 1,1'-oxybis[2-methyl-

> <dsstox_substance_id>
DTXSID0060856

> <dsstox_compound_id>
DTXCID6043549

> <qc_level>
Public_High

> <Canonical_QSARr>
CC(C)COCC(C)C

> <InChI_Code_QSARr>
InChI=1S/C8H18O/c1-7(2)5-9-6-8(3)4/h7-8H,5-6H2,1-4H3

> <InChI Key_QSARr>
SZNYYWIUQFZLLT-UHFFFAOYSA-N

> <Salt_Solvent>


> <Salt_Solvent_ID>
0

> <MPID>
99091

> <OH Reference>
ATKINSON,R (1989)

> <OH>
2.6E-11

> <OH Temperature>
25.0

> <LogOH>
-10.585026652029196

> <Tr_1_Tst_0>
0

$$$$
100563
  Mrv171c012241912032D          

  9  8  0  0  0  0            999 V2000
    0.7022   -0.2317    0.0000 C   0  0  0  0  0  0  0  0  0  0  0  0
   -0.0122   -0.6442    0.0000 C   0  0  0  0  0  0  0  0  0  0  0  0
    1.4167   -0.6442    0.0000 O   0  0  0  0  0  0  0  0  0  0  0  0
    2.1312   -0.2317    0.0000 C   0  0  0  0  0  0  0  0  0  0  0  0
    2.8456   -0.6442    0.0000 C   0  0  0  0  0  0  0  0  0  0  0  0
    3.5601   -0.2317    0.0000 C   0  0  0  0  0  0  0  0  0  0  0  0
    4.2746   -0.6442    0.0000 C   0  0  0  0  0  0  0  0  0  0  0  0
    4.9891   -0.2317    0.0000 C   0  0  0  0  0  0  0  0  0  0  0  0
    0.7022    0.5933    0.0000 O   0  0  0  0  0  0  0  0  0  0  0  0
  1  2  1  0  0  0  0
  1  3  1  0  0  0  0
  3  4  1  0  0  0  0
  4  5  1  0  0  0  0
  5  6  1  0  0  0  0
  6  7  1  0  0  0  0
  7  8  1  0  0  0  0
  1  9  2  0  0  0  0
M  END
> <ChemID>
100563

> <CAS>
628-63-7

> <Original_SMILES>
CCCCCOC(C)=O

> <preferred_name>
Pentyl acetate

> <dsstox_substance_id>
DTXSID1027263

> <dsstox_compound_id>
DTXCID107263

> <qc_level>
DSSTox_Low

> <Canonical_QSARr>
CCCCCOC(C)=O

> <InChI_Code_QSARr>
InChI=1S/C7H14O2/c1-3-4-5-6-9-7(2)8/h3-6H2,1-2H3

> <InChI Key_QSARr>
PGMYKACGEOXYJE-UHFFFAOYSA-N

> <Salt_Solvent>


> <Salt_Solvent_ID>
0

> <MPID>
99092

> <OH Reference>
KWOK,ESC & ATKINSON,R (1994)

> <OH>
7.549999999999998E-12

> <OH Temperature>
25.0

> <LogOH>
-11.122053048370804

> <Tr_1_Tst_0>
1

$$$$
100564
  Mrv171c012241912032D          

  7  6  0  0  0  0            999 V2000
   -0.0082   -0.0600    0.0000 C   0  0  0  0  0  0  0  0  0  0  0  0
    0.7063   -0.4725    0.0000 C   0  0  0  0  0  0  0  0  0  0  0  0
    1.4208   -0.0600    0.0000 O   0  0  0  0  0  0  0  0  0  0  0  0
    2.1352   -0.4725    0.0000 C   0  0  0  0  0  0  0  0  0  0  0  0
    2.8497   -0.0600    0.0000 C   0  0  0  0  0  0  0  0  0  0  0  0
    3.5642   -0.4725    0.0000 C   0  0  0  0  0  0  0  0  0  0  0  0
    4.2786   -0.0600    0.0000 C   0  0  0  0  0  0  0  0  0  0  0  0
  1  2  1  0  0  0  0
  2  3  1  0  0  0  0
  3  4  1  0  0  0  0
  4  5  1  0  0  0  0
  5  6  1  0  0  0  0
  6  7  1  0  0  0  0
M  END
> <ChemID>
100564

> <CAS>
628-81-9

> <Original_SMILES>
CCCCOCC

> <preferred_name>
1-Ethoxybutane

> <dsstox_substance_id>
DTXSID7052311

> <dsstox_compound_id>
DTXCID4030883

> <qc_level>
DSSTox_Low

> <Canonical_QSARr>
CCCCOCC

> <InChI_Code_QSARr>
InChI=1S/C6H14O/c1-3-5-6-7-4-2/h3-6H2,1-2H3

> <InChI Key_QSARr>
PZHIWRCQKBBTOW-UHFFFAOYSA-N

> <Salt_Solvent>


> <Salt_Solvent_ID>
0

> <MPID>
99093

> <OH Reference>
KWOK,ESC & ATKINSON,R (1994)

> <OH>
2.13E-11

> <OH Temperature>
25.0

> <LogOH>
-10.671620396561275

> <Tr_1_Tst_0>
1

$$$$
100565
  Mrv171c012241912032D          

  7  7  0  0  0  0            999 V2000
    1.5999    1.0052    0.0000 C   0  0  0  0  0  0  0  0  0  0  0  0
    0.8566    1.3632    0.0000 C   0  0  0  0  0  0  0  0  0  0  0  0
    0.1133    1.0052    0.0000 C   0  0  0  0  0  0  0  0  0  0  0  0
   -0.0703    0.2009    0.0000 C   0  0  0  0  0  0  0  0  0  0  0  0
    0.4441   -0.4441    0.0000 C   0  0  0  0  0  0  0  0  0  0  0  0
    1.2691   -0.4441    0.0000 C   0  0  0  0  0  0  0  0  0  0  0  0
    1.7835    0.2009    0.0000 C   0  0  0  0  0  0  0  0  0  0  0  0
  2  1  1  0  0  0  0
  3  2  1  0  0  0  0
  4  3  1  0  0  0  0
  5  4  2  0  0  0  0
  6  5  1  0  0  0  0
  7  6  1  0  0  0  0
  1  7  1  0  0  0  0
M  END
> <ChemID>
100565

> <CAS>
628-92-2

> <Original_SMILES>
C1CCCCC=C1

> <preferred_name>
Cycloheptene

> <dsstox_substance_id>
DTXSID4074560

> <dsstox_compound_id>
DTXCID0043555

> <qc_level>
Public_High

> <Canonical_QSARr>
C1CCCCC=C1

> <InChI_Code_QSARr>
InChI=1S/C7H12/c1-2-4-6-7-5-3-1/h1-2H,3-7H2

> <InChI Key_QSARr>
ZXIJMRYMVAMXQP-UHFFFAOYSA-N

> <Salt_Solvent>


> <Salt_Solvent_ID>
0

> <MPID>
99094

> <OH Reference>
KWOK,ESC & ATKINSON,R (1994)

> <OH>
7.399999999999998E-11

> <OH Temperature>
25.0

> <LogOH>
-10.130768280269033

> <Tr_1_Tst_0>
1

$$$$
100566
  Mrv171c012241912032D          

  8  7  0  0  0  0            999 V2000
    1.4308   -0.4115    0.0000 O   0  0  0  0  0  0  0  0  0  0  0  0
    0.7163    0.0010    0.0000 C   0  0  0  0  0  0  0  0  0  0  0  0
    0.0018   -0.4115    0.0000 C   0  0  0  0  0  0  0  0  0  0  0  0
    2.1452    0.0010    0.0000 C   0  0  0  0  0  0  0  0  0  0  0  0
    2.8597   -0.4115    0.0000 C   0  0  0  0  0  0  0  0  0  0  0  0
    3.5742    0.0010    0.0000 O   0  0  0  0  0  0  0  0  0  0  0  0
    4.2887   -0.4115    0.0000 C   0  0  0  0  0  0  0  0  0  0  0  0
    5.0031    0.0010    0.0000 C   0  0  0  0  0  0  0  0  0  0  0  0
  1  2  1  0  0  0  0
  2  3  1  0  0  0  0
  1  4  1  0  0  0  0
  4  5  1  0  0  0  0
  5  6  1  0  0  0  0
  6  7  1  0  0  0  0
  7  8  1  0  0  0  0
M  END
> <ChemID>
100566

> <CAS>
629-14-1

> <Original_SMILES>
CCOCCOCC

> <preferred_name>
Ethylene glycol diethyl ether

> <dsstox_substance_id>
DTXSID5025285

> <dsstox_compound_id>
DTXCID305285

> <qc_level>
DSSTox_Low

> <Canonical_QSARr>
CCOCCOCC

> <InChI_Code_QSARr>
InChI=1S/C6H14O2/c1-3-7-5-6-8-4-2/h3-6H2,1-2H3

> <InChI Key_QSARr>
LZDKZFUFMNSQCJ-UHFFFAOYSA-N

> <Salt_Solvent>


> <Salt_Solvent_ID>
0

> <MPID>
99095

> <OH Reference>
PORTER,E ET AL. (1997)

> <OH>
5.79E-11

> <OH Temperature>
25.0

> <LogOH>
-10.237321436272563

> <Tr_1_Tst_0>
0

$$$$
100567
  Mrv171c012241912032D          

 13 12  0  0  0  0            999 V2000
   -0.0259   -0.0344    0.0000 C   0  0  0  0  0  0  0  0  0  0  0  0
    0.6885   -0.4469    0.0000 C   0  0  0  0  0  0  0  0  0  0  0  0
    1.4030   -0.0344    0.0000 C   0  0  0  0  0  0  0  0  0  0  0  0
    2.1175   -0.4469    0.0000 C   0  0  0  0  0  0  0  0  0  0  0  0
    2.8320   -0.0344    0.0000 C   0  0  0  0  0  0  0  0  0  0  0  0
    3.5464   -0.4469    0.0000 C   0  0  0  0  0  0  0  0  0  0  0  0
    4.2609   -0.0344    0.0000 C   0  0  0  0  0  0  0  0  0  0  0  0
    4.9754   -0.4469    0.0000 C   0  0  0  0  0  0  0  0  0  0  0  0
    5.6898   -0.0344    0.0000 C   0  0  0  0  0  0  0  0  0  0  0  0
    6.4043   -0.4469    0.0000 C   0  0  0  0  0  0  0  0  0  0  0  0
    7.1188   -0.0344    0.0000 C   0  0  0  0  0  0  0  0  0  0  0  0
    7.8332   -0.4469    0.0000 C   0  0  0  0  0  0  0  0  0  0  0  0
    8.5477   -0.0344    0.0000 C   0  0  0  0  0  0  0  0  0  0  0  0
  1  2  1  0  0  0  0
  2  3  1  0  0  0  0
  3  4  1  0  0  0  0
  4  5  1  0  0  0  0
  5  6  1  0  0  0  0
  6  7  1  0  0  0  0
  7  8  1  0  0  0  0
  8  9  1  0  0  0  0
  9 10  1  0  0  0  0
 10 11  1  0  0  0  0
 11 12  1  0  0  0  0
 12 13  1  0  0  0  0
M  END
> <ChemID>
100567

> <CAS>
629-50-5

> <Original_SMILES>
CCCCCCCCCCCCC

> <preferred_name>
Tridecane

> <dsstox_substance_id>
DTXSID6027266

> <dsstox_compound_id>
DTXCID307266

> <qc_level>
DSSTox_Low

> <Canonical_QSARr>
CCCCCCCCCCCCC

> <InChI_Code_QSARr>
InChI=1S/C13H28/c1-3-5-7-9-11-13-12-10-8-6-4-2/h3-13H2,1-2H3

> <InChI Key_QSARr>
IIYFAKIEWZDVMP-UHFFFAOYSA-N

> <Salt_Solvent>


> <Salt_Solvent_ID>
0

> <MPID>
99096

> <OH Reference>
ATKINSON,R (1989)

> <OH>
1.6E-11

> <OH Temperature>
25.0

> <LogOH>
-10.79588001734409

> <Tr_1_Tst_0>
1

$$$$
100568
  Mrv171c012241912032D          

 14 13  0  0  0  0            999 V2000
   -0.0189   -0.4144    0.0000 C   0  0  0  0  0  0  0  0  0  0  0  0
    0.6956   -0.0019    0.0000 C   0  0  0  0  0  0  0  0  0  0  0  0
    1.4100   -0.4144    0.0000 C   0  0  0  0  0  0  0  0  0  0  0  0
    2.1245   -0.0019    0.0000 C   0  0  0  0  0  0  0  0  0  0  0  0
    2.8390   -0.4144    0.0000 C   0  0  0  0  0  0  0  0  0  0  0  0
    3.5535   -0.0019    0.0000 C   0  0  0  0  0  0  0  0  0  0  0  0
    4.2679   -0.4144    0.0000 C   0  0  0  0  0  0  0  0  0  0  0  0
    4.9824   -0.0019    0.0000 C   0  0  0  0  0  0  0  0  0  0  0  0
    5.6969   -0.4144    0.0000 C   0  0  0  0  0  0  0  0  0  0  0  0
    6.4113   -0.0019    0.0000 C   0  0  0  0  0  0  0  0  0  0  0  0
    7.1258   -0.4144    0.0000 C   0  0  0  0  0  0  0  0  0  0  0  0
    7.8403   -0.0019    0.0000 C   0  0  0  0  0  0  0  0  0  0  0  0
    8.5548   -0.4144    0.0000 C   0  0  0  0  0  0  0  0  0  0  0  0
    9.2692   -0.0019    0.0000 C   0  0  0  0  0  0  0  0  0  0  0  0
  1  2  1  0  0  0  0
  2  3  1  0  0  0  0
  3  4  1  0  0  0  0
  4  5  1  0  0  0  0
  5  6  1  0  0  0  0
  6  7  1  0  0  0  0
  7  8  1  0  0  0  0
  8  9  1  0  0  0  0
  9 10  1  0  0  0  0
 10 11  1  0  0  0  0
 11 12  1  0  0  0  0
 12 13  1  0  0  0  0
 13 14  1  0  0  0  0
M  END
> <ChemID>
100568

> <CAS>
629-59-4

> <Original_SMILES>
CCCCCCCCCCCCCC

> <preferred_name>
Tetradecane

> <dsstox_substance_id>
DTXSID1027267

> <dsstox_compound_id>
DTXCID707267

> <qc_level>
DSSTox_Low

> <Canonical_QSARr>
CCCCCCCCCCCCCC

> <InChI_Code_QSARr>
InChI=1S/C14H30/c1-3-5-7-9-11-13-14-12-10-8-6-4-2/h3-14H2,1-2H3

> <InChI Key_QSARr>
BGHCVCJVXZWKCC-UHFFFAOYSA-N

> <Salt_Solvent>


> <Salt_Solvent_ID>
0

> <MPID>
99097

> <OH Reference>
ATKINSON,R (1989)

> <OH>
1.92E-11

> <OH Temperature>
25.0

> <LogOH>
-10.716698771296445

> <Tr_1_Tst_0>
1

$$$$
100569
  Mrv171c012241912032D          

 15 14  0  0  0  0            999 V2000
   -0.0013   -0.0315    0.0000 C   0  0  0  0  0  0  0  0  0  0  0  0
    0.7132   -0.4440    0.0000 C   0  0  0  0  0  0  0  0  0  0  0  0
    1.4276   -0.0315    0.0000 C   0  0  0  0  0  0  0  0  0  0  0  0
    2.1421   -0.4440    0.0000 C   0  0  0  0  0  0  0  0  0  0  0  0
    2.8566   -0.0315    0.0000 C   0  0  0  0  0  0  0  0  0  0  0  0
    3.5710   -0.4440    0.0000 C   0  0  0  0  0  0  0  0  0  0  0  0
    4.2855   -0.0315    0.0000 C   0  0  0  0  0  0  0  0  0  0  0  0
    5.0000   -0.4440    0.0000 C   0  0  0  0  0  0  0  0  0  0  0  0
    5.7145   -0.0315    0.0000 C   0  0  0  0  0  0  0  0  0  0  0  0
    6.4289   -0.4440    0.0000 C   0  0  0  0  0  0  0  0  0  0  0  0
    7.1434   -0.0315    0.0000 C   0  0  0  0  0  0  0  0  0  0  0  0
    7.8579   -0.4440    0.0000 C   0  0  0  0  0  0  0  0  0  0  0  0
    8.5723   -0.0315    0.0000 C   0  0  0  0  0  0  0  0  0  0  0  0
    9.2868   -0.4440    0.0000 C   0  0  0  0  0  0  0  0  0  0  0  0
   10.0013   -0.0315    0.0000 C   0  0  0  0  0  0  0  0  0  0  0  0
  1  2  1  0  0  0  0
  2  3  1  0  0  0  0
  3  4  1  0  0  0  0
  4  5  1  0  0  0  0
  5  6  1  0  0  0  0
  6  7  1  0  0  0  0
  7  8  1  0  0  0  0
  8  9  1  0  0  0  0
  9 10  1  0  0  0  0
 10 11  1  0  0  0  0
 11 12  1  0  0  0  0
 12 13  1  0  0  0  0
 13 14  1  0  0  0  0
 14 15  1  0  0  0  0
M  END
> <ChemID>
100569

> <CAS>
629-62-9

> <Original_SMILES>
CCCCCCCCCCCCCCC

> <preferred_name>
Pentadecane

> <dsstox_substance_id>
DTXSID6027268

> <dsstox_compound_id>
DTXCID107268

> <qc_level>
DSSTox_Low

> <Canonical_QSARr>
CCCCCCCCCCCCCCC

> <InChI_Code_QSARr>
InChI=1S/C15H32/c1-3-5-7-9-11-13-15-14-12-10-8-6-4-2/h3-15H2,1-2H3

> <InChI Key_QSARr>
YCOZIPAWZNQLMR-UHFFFAOYSA-N

> <Salt_Solvent>


> <Salt_Solvent_ID>
0

> <MPID>
99098

> <OH Reference>
KWOK,ESC & ATKINSON,R (1994)

> <OH>
2.22E-11

> <OH Temperature>
25.0

> <LogOH>
-10.653647025549354

> <Tr_1_Tst_0>
1

$$$$
100570
  Mrv171c012241912032D          

  6  5  0  0  0  0            999 V2000
    1.1503   -1.6266    0.0000 C   0  0  0  0  0  0  0  0  0  0  0  0
    1.1503   -0.8016    0.0000 C   0  0  0  0  0  0  0  0  0  0  0  0
    1.1503    0.0234    0.0000 C   0  0  0  0  0  0  0  0  0  0  0  0
    0.4358    0.4359    0.0000 O   0  0  0  0  0  0  0  0  0  0  0  0
    1.9753   -0.8016    0.0000 C   0  0  0  0  0  0  0  0  0  0  0  0
    0.3253   -0.8016    0.0000 C   0  0  0  0  0  0  0  0  0  0  0  0
  1  2  1  0  0  0  0
  2  3  1  0  0  0  0
  3  4  2  0  0  0  0
  2  5  1  0  0  0  0
  2  6  1  0  0  0  0
M  END
> <ChemID>
100570

> <CAS>
630-19-3

> <Original_SMILES>
CC(C)(C)C=O

> <preferred_name>
Propanal, 2,2-dimethyl-

> <dsstox_substance_id>
DTXSID2060888

> <dsstox_compound_id>
DTXCID3043609

> <qc_level>
Public_High

> <Canonical_QSARr>
CC(C)(C)C=O

> <InChI_Code_QSARr>
InChI=1S/C5H10O/c1-5(2,3)4-6/h4H,1-3H3

> <InChI Key_QSARr>
FJJYHTVHBVXEEQ-UHFFFAOYSA-N

> <Salt_Solvent>


> <Salt_Solvent_ID>
0

> <MPID>
99099

> <OH Reference>
ATKINSON,R (1989)

> <OH>
2.650000000000001E-11

> <OH Temperature>
25.0

> <LogOH>
-10.576754126063204

> <Tr_1_Tst_0>
0

$$$$
100571
  Mrv171c012241912032D          

  6  5  0  0  0  0            999 V2000
    1.5700   -1.5476    0.0000 Cl  0  0  0  0  0  0  0  0  0  0  0  0
    1.1575   -0.8331    0.0000 C   0  0  0  0  0  0  0  0  0  0  0  0
    1.8720   -0.4206    0.0000 Cl  0  0  0  0  0  0  0  0  0  0  0  0
    0.4430   -1.2456    0.0000 Cl  0  0  0  0  0  0  0  0  0  0  0  0
    0.7450   -0.1187    0.0000 C   0  0  0  0  0  0  0  0  0  0  0  0
   -0.0800   -0.1187    0.0000 Cl  0  0  0  0  0  0  0  0  0  0  0  0
  1  2  1  0  0  0  0
  2  3  1  0  0  0  0
  2  4  1  0  0  0  0
  2  5  1  0  0  0  0
  5  6  1  0  0  0  0
M  END
> <ChemID>
100571

> <CAS>
630-20-6

> <Original_SMILES>
ClCC(Cl)(Cl)Cl

> <preferred_name>
1,1,1,2-Tetrachloroethane

> <dsstox_substance_id>
DTXSID2021317

> <dsstox_compound_id>
DTXCID801317

> <qc_level>
DSSTox_Low

> <Canonical_QSARr>
ClCC(Cl)(Cl)Cl

> <InChI_Code_QSARr>
InChI=1S/C2H2Cl4/c3-1-2(4,5)6/h1H2

> <InChI Key_QSARr>
QVLAWKAXOMEXPM-UHFFFAOYSA-N

> <Salt_Solvent>


> <Salt_Solvent_ID>
0

> <MPID>
99100

> <OH Reference>
KWOK,ESC & ATKINSON,R (1994)

> <OH>
1.8E-14

> <OH Temperature>
25.0

> <LogOH>
-13.744727494896685

> <Tr_1_Tst_0>
1

$$$$
100572
  Mrv171c012241912032D          

  9  9  0  0  0  0            999 V2000
    0.0000    3.3000    0.0000 C   0  0  0  0  0  0  0  0  0  0  0  0
    0.0000    2.4750    0.0000 C   0  0  0  0  0  0  0  0  0  0  0  0
    0.7145    2.0625    0.0000 C   0  0  0  0  0  0  0  0  0  0  0  0
    0.7145    1.2375    0.0000 C   0  0  0  0  0  0  0  0  0  0  0  0
    1.4289    0.8250    0.0000 C   0  0  0  0  0  0  0  0  0  0  0  0
    1.4289   -0.0000    0.0000 C   0  0  0  0  0  0  0  0  0  0  0  0
    0.7145   -0.4125    0.0000 C   0  0  0  0  0  0  0  0  0  0  0  0
    0.0000    0.0000    0.0000 C   0  0  0  0  0  0  0  0  0  0  0  0
    0.0000    0.8250    0.0000 C   0  0  0  0  0  0  0  0  0  0  0  0
  2  1  1  4  0  0  0
  2  3  2  0  0  0  0
  3  4  1  0  0  0  0
  4  5  1  0  0  0  0
  5  6  2  0  0  0  0
  6  7  1  0  0  0  0
  7  8  2  0  0  0  0
  8  9  1  0  0  0  0
  4  9  2  0  0  0  0
M  END
> <ChemID>
100572

> <CAS>
637-50-3

> <Original_SMILES>
CC=Cc1ccccc1

> <preferred_name>
Propenylbenzene

> <dsstox_substance_id>
DTXSID2060919

> <dsstox_compound_id>
DTXCID7044059

> <qc_level>
Public_High

> <Canonical_QSARr>
CC=CC1C=CC=CC=1

> <InChI_Code_QSARr>
InChI=1S/C9H10/c1-2-6-9-7-4-3-5-8-9/h2-8H,1H3

> <InChI Key_QSARr>
QROGIFZRVHSFLM-UHFFFAOYSA-N

> <Salt_Solvent>


> <Salt_Solvent_ID>
0

> <MPID>
99101

> <OH Reference>
ATKINSON,R (1989)

> <OH>
5.9E-11

> <OH Temperature>
25.0

> <LogOH>
-10.229147988357843

> <Tr_1_Tst_0>
1

$$$$
100573
  Mrv171c012241912032D          

  7  6  0  0  0  0            999 V2000
    1.8382   -1.1273    0.0000 O   0  0  0  0  0  0  0  0  0  0  0  0
    1.1237   -1.5398    0.0000 C   0  0  0  0  0  0  0  0  0  0  0  0
    1.1237   -2.3648    0.0000 C   0  0  0  0  0  0  0  0  0  0  0  0
    1.8382   -0.3023    0.0000 C   0  0  0  0  0  0  0  0  0  0  0  0
    1.8382    0.5227    0.0000 C   0  0  0  0  0  0  0  0  0  0  0  0
    2.6632   -0.3023    0.0000 C   0  0  0  0  0  0  0  0  0  0  0  0
    1.0132   -0.3023    0.0000 C   0  0  0  0  0  0  0  0  0  0  0  0
  1  2  1  0  0  0  0
  2  3  1  0  0  0  0
  1  4  1  0  0  0  0
  4  5  1  0  0  0  0
  4  6  1  0  0  0  0
  4  7  1  0  0  0  0
M  END
> <ChemID>
100573

> <CAS>
637-92-3

> <Original_SMILES>
CCOC(C)(C)C

> <preferred_name>
2-Methyl-2-ethoxypropane

> <dsstox_substance_id>
DTXSID0025604

> <dsstox_compound_id>
DTXCID305604

> <qc_level>
DSSTox_Low

> <Canonical_QSARr>
CCOC(C)(C)C

> <InChI_Code_QSARr>
InChI=1S/C6H14O/c1-5-7-6(2,3)4/h5H2,1-4H3

> <InChI Key_QSARr>
NUMQCACRALPSHD-UHFFFAOYSA-N

> <Salt_Solvent>


> <Salt_Solvent_ID>
0

> <MPID>
99102

> <OH Reference>
KWOK,ESC & ATKINSON,R (1994)

> <OH>
8.84E-12

> <OH Temperature>
25.0

> <LogOH>
-11.053547734986926

> <Tr_1_Tst_0>
1

$$$$
100575
  Mrv171c012241912032D          

  6  5  0  0  0  0            999 V2000
    1.2375    0.7145    0.0000 C   0  0  0  0  0  0  0  0  0  0  0  0
    0.8250    0.0000    0.0000 C   0  0  0  0  0  0  0  0  0  0  0  0
    0.0000    0.0000    0.0000 C   0  0  0  0  0  0  0  0  0  0  0  0
   -0.4125   -0.7145    0.0000 C   0  0  0  0  0  0  0  0  0  0  0  0
    0.0000   -1.4289    0.0000 C   0  0  0  0  0  0  0  0  0  0  0  0
   -1.2375   -0.7145    0.0000 C   0  0  0  0  0  0  0  0  0  0  0  0
  2  1  1  4  0  0  0
  2  3  2  0  0  0  0
  3  4  1  0  0  0  0
  4  5  1  0  0  0  0
  4  6  1  0  0  0  0
M  END
> <ChemID>
100575

> <CAS>
4461-48-7

> <Original_SMILES>
CC=CC(C)C

> <preferred_name>
4-Methyl-2-pentene

> <dsstox_substance_id>
DTXSID4074302

> <dsstox_compound_id>
DTXCID801323154

> <qc_level>
Public_High

> <Canonical_QSARr>
CC=CC(C)C

> <InChI_Code_QSARr>
InChI=1S/C6H12/c1-4-5-6(2)3/h4-6H,1-3H3

> <InChI Key_QSARr>
LGAQJENWWYGFSN-UHFFFAOYSA-N

> <Salt_Solvent>


> <Salt_Solvent_ID>
0

> <MPID>
99104

> <OH Reference>
KWOK,ESC & ATKINSON,R (1994)

> <OH>
6.05E-11

> <OH Temperature>
25.0

> <LogOH>
-10.21824462534755

> <Tr_1_Tst_0>
0

$$$$
100577
  Mrv171c012241912032D          

  8  7  0  0  0  0            999 V2000
    0.9797   -1.5182    0.0000 C   0  0  0  0  0  0  0  0  0  0  0  0
    1.3922   -0.8038    0.0000 C   0  0  0  0  0  0  0  0  0  0  0  0
    1.8047   -0.0893    0.0000 C   0  0  0  0  0  0  0  0  0  0  0  0
    1.3922    0.6252    0.0000 F   0  0  0  0  0  0  0  0  0  0  0  0
    0.6777   -0.3913    0.0000 F   0  0  0  0  0  0  0  0  0  0  0  0
    2.1066   -1.2163    0.0000 F   0  0  0  0  0  0  0  0  0  0  0  0
    1.3922   -2.2327    0.0000 F   0  0  0  0  0  0  0  0  0  0  0  0
    0.1547   -1.5182    0.0000 F   0  0  0  0  0  0  0  0  0  0  0  0
  1  2  1  0  0  0  0
  2  3  1  0  0  0  0
  3  4  1  0  0  0  0
  2  5  1  0  0  0  0
  2  6  1  0  0  0  0
  1  7  1  0  0  0  0
  1  8  1  0  0  0  0
M  END
> <ChemID>
100577

> <CAS>
679-86-7

> <Original_SMILES>
FCC(F)(F)C(F)F

> <preferred_name>
HFC-245ca

> <dsstox_substance_id>
DTXSID3073925

> <dsstox_compound_id>
DTXCID9045219

> <qc_level>
Public_High

> <Canonical_QSARr>
FCC(F)(F)C(F)F

> <InChI_Code_QSARr>
InChI=1S/C3H3F5/c4-1-3(7,8)2(5)6/h2H,1H2

> <InChI Key_QSARr>
AWTOFSDLNREIFS-UHFFFAOYSA-N

> <Salt_Solvent>


> <Salt_Solvent_ID>
0

> <MPID>
99105

> <OH Reference>
ZHANG,Z ET AL. (1994)

> <OH>
1.09E-14

> <OH Temperature>
25.0

> <LogOH>
-13.962573502059382

> <Tr_1_Tst_0>
1

$$$$
100579
  Mrv171c012241912032D          

  9  8  0  0  0  0            999 V2000
    1.1285   -1.4668    0.0000 C   0  0  0  0  0  0  0  0  0  0  0  0
    0.4140   -1.8793    0.0000 F   0  0  0  0  0  0  0  0  0  0  0  0
    1.5410   -2.1813    0.0000 F   0  0  0  0  0  0  0  0  0  0  0  0
    0.7160   -0.7524    0.0000 F   0  0  0  0  0  0  0  0  0  0  0  0
    1.8430   -1.0543    0.0000 C   0  0  0  0  0  0  0  0  0  0  0  0
    1.8430   -0.2293    0.0000 C   0  0  0  0  0  0  0  0  0  0  0  0
    1.8430    0.5957    0.0000 F   0  0  0  0  0  0  0  0  0  0  0  0
    2.6680   -0.2293    0.0000 F   0  0  0  0  0  0  0  0  0  0  0  0
    1.0180   -0.2293    0.0000 F   0  0  0  0  0  0  0  0  0  0  0  0
  1  2  1  0  0  0  0
  1  3  1  0  0  0  0
  1  4  1  0  0  0  0
  1  5  1  0  0  0  0
  5  6  1  0  0  0  0
  6  7  1  0  0  0  0
  6  8  1  0  0  0  0
  6  9  1  0  0  0  0
M  END
> <ChemID>
100579

> <CAS>
690-39-1

> <Original_SMILES>
FC(F)(F)CC(F)(F)F

> <preferred_name>
1,1,1,3,3,3-Hexafluoropropane

> <dsstox_substance_id>
DTXSID8052435

> <dsstox_compound_id>
DTXCID0031007

> <qc_level>
DSSTox_Low

> <Canonical_QSARr>
FC(F)(F)CC(F)(F)F

> <InChI_Code_QSARr>
InChI=1S/C3H2F6/c4-2(5,6)1-3(7,8)9/h1H2

> <InChI Key_QSARr>
NSGXIBWMJZWTPY-UHFFFAOYSA-N

> <Salt_Solvent>


> <Salt_Solvent_ID>
0

> <MPID>
99106

> <OH Reference>
GARLAND,NL ET AL. (1993)

> <OH>
9.0E-16

> <OH Temperature>
25.0

> <LogOH>
-15.045757490560668

> <Tr_1_Tst_0>
1

$$$$
100583
  Mrv171c012241912032D          

  6  5  0  0  0  0            999 V2000
    0.0023    0.2779    0.0000 C   0  0  0  0  0  0  0  0  0  0  0  0
    0.7168   -0.1346    0.0000 C   0  0  0  0  0  0  0  0  0  0  0  0
    1.4312   -0.5471    0.0000 C   0  0  0  0  0  0  0  0  0  0  0  0
    2.1457   -0.1346    0.0000 C   0  0  0  0  0  0  0  0  0  0  0  0
    2.8602   -0.5471    0.0000 C   0  0  0  0  0  0  0  0  0  0  0  0
    3.5746   -0.1346    0.0000 C   0  0  0  0  0  0  0  0  0  0  0  0
  1  2  3  0  0  0  0
  2  3  1  0  0  0  0
  3  4  1  0  0  0  0
  4  5  1  0  0  0  0
  5  6  1  0  0  0  0
M  END
> <ChemID>
100583

> <CAS>
693-02-7

> <Original_SMILES>
CCCCC#C

> <preferred_name>


> <dsstox_substance_id>
DTXSID30870753

> <dsstox_compound_id>
DTXCID20818447

> <qc_level>


> <Canonical_QSARr>
CCCCC#C

> <InChI_Code_QSARr>
InChI=1S/C6H10/c1-3-5-6-4-2/h1H,4-6H2,2H3

> <InChI Key_QSARr>
CGHIBGNXEGJPQZ-UHFFFAOYSA-N

> <Salt_Solvent>


> <Salt_Solvent_ID>
0

> <MPID>
99107

> <OH Reference>
KWOK,ESC & ATKINSON,R (1994)

> <OH>
1.3E-11

> <OH Temperature>
25.0

> <LogOH>
-10.886056647693158

> <Tr_1_Tst_0>
1

$$$$
100584
  Mrv171c012241912032D          

 11 10  0  0  0  0            999 V2000
    0.1967   -1.3898    0.0000 C   0  0  0  0  0  0  0  0  0  0  0  0
    0.9112   -0.9773    0.0000 C   0  0  0  0  0  0  0  0  0  0  0  0
    1.6257   -1.3898    0.0000 C   0  0  0  0  0  0  0  0  0  0  0  0
    2.3401   -0.9773    0.0000 C   0  0  0  0  0  0  0  0  0  0  0  0
    3.0546   -1.3898    0.0000 C   0  0  0  0  0  0  0  0  0  0  0  0
    3.7691   -0.9773    0.0000 C   0  0  0  0  0  0  0  0  0  0  0  0
    4.4836   -1.3898    0.0000 C   0  0  0  0  0  0  0  0  0  0  0  0
    5.1980   -0.9773    0.0000 C   0  0  0  0  0  0  0  0  0  0  0  0
    5.9125   -1.3898    0.0000 C   0  0  0  0  0  0  0  0  0  0  0  0
    6.6270   -0.9773    0.0000 C   0  0  0  0  0  0  0  0  0  0  0  0
    0.9112   -0.1523    0.0000 O   0  0  0  0  0  0  0  0  0  0  0  0
  1  2  1  0  0  0  0
  2  3  1  0  0  0  0
  3  4  1  0  0  0  0
  4  5  1  0  0  0  0
  5  6  1  0  0  0  0
  6  7  1  0  0  0  0
  7  8  1  0  0  0  0
  8  9  1  0  0  0  0
  9 10  1  0  0  0  0
  2 11  2  0  0  0  0
M  END
> <ChemID>
100584

> <CAS>
693-54-9

> <Original_SMILES>
CCCCCCCCC(C)=O

> <preferred_name>
2-Decanone

> <dsstox_substance_id>
DTXSID9022104

> <dsstox_compound_id>
DTXCID002104

> <qc_level>
DSSTox_Low

> <Canonical_QSARr>
CCCCCCCCC(C)=O

> <InChI_Code_QSARr>
InChI=1S/C10H20O/c1-3-4-5-6-7-8-9-10(2)11/h3-9H2,1-2H3

> <InChI Key_QSARr>
ZAJNGDIORYACQU-UHFFFAOYSA-N

> <Salt_Solvent>


> <Salt_Solvent_ID>
0

> <MPID>
99108

> <OH Reference>
ATKINSON,R (1989)

> <OH>
1.32E-11

> <OH Temperature>
25.0

> <LogOH>
-10.879426068794139

> <Tr_1_Tst_0>
1

$$$$
100585
  Mrv171c012241912032D          

 11 10  0  0  0  0            999 V2000
   -0.0041   -0.0383    0.0000 C   0  0  0  0  0  0  0  0  0  0  0  0
    0.7104   -0.4508    0.0000 C   0  0  0  0  0  0  0  0  0  0  0  0
    1.4248   -0.0383    0.0000 C   0  0  0  0  0  0  0  0  0  0  0  0
    2.1393   -0.4508    0.0000 C   0  0  0  0  0  0  0  0  0  0  0  0
    2.8538   -0.0383    0.0000 C   0  0  0  0  0  0  0  0  0  0  0  0
    3.5682   -0.4508    0.0000 O   0  0  0  0  0  0  0  0  0  0  0  0
    4.2827   -0.0383    0.0000 C   0  0  0  0  0  0  0  0  0  0  0  0
    4.9972   -0.4508    0.0000 C   0  0  0  0  0  0  0  0  0  0  0  0
    5.7117   -0.0383    0.0000 C   0  0  0  0  0  0  0  0  0  0  0  0
    6.4261   -0.4508    0.0000 C   0  0  0  0  0  0  0  0  0  0  0  0
    7.1406   -0.0383    0.0000 C   0  0  0  0  0  0  0  0  0  0  0  0
  1  2  1  0  0  0  0
  2  3  1  0  0  0  0
  3  4  1  0  0  0  0
  4  5  1  0  0  0  0
  5  6  1  0  0  0  0
  6  7  1  0  0  0  0
  7  8  1  0  0  0  0
  8  9  1  0  0  0  0
  9 10  1  0  0  0  0
 10 11  1  0  0  0  0
M  END
> <ChemID>
100585

> <CAS>
693-65-2

> <Original_SMILES>
CCCCCOCCCCC

> <preferred_name>
Pentyl ether

> <dsstox_substance_id>
DTXSID4022105

> <dsstox_compound_id>
DTXCID402105

> <qc_level>
DSSTox_Low

> <Canonical_QSARr>
CCCCCOCCCCC

> <InChI_Code_QSARr>
InChI=1S/C10H22O/c1-3-5-7-9-11-10-8-6-4-2/h3-10H2,1-2H3

> <InChI Key_QSARr>
AOPDRZXCEAKHHW-UHFFFAOYSA-N

> <Salt_Solvent>


> <Salt_Solvent_ID>
0

> <MPID>
99109

> <OH Reference>
KWOK,ESC & ATKINSON,R (1994)

> <OH>
3.319999999999999E-11

> <OH Temperature>
25.0

> <LogOH>
-10.47886191629596

> <Tr_1_Tst_0>
0

$$$$
100586
  Mrv171c012241912032D          

  8  9  0  0  0  0            999 V2000
    0.7846   -0.2549    0.0000 C   0  0  0  0  0  0  0  0  0  0  0  0
   -0.0000    0.0000    0.0000 C   0  0  0  0  0  0  0  0  0  0  0  0
   -0.4849   -0.6674    0.0000 C   0  0  0  0  0  0  0  0  0  0  0  0
   -0.0000   -1.3349    0.0000 C   0  0  0  0  0  0  0  0  0  0  0  0
    0.7846   -1.0799    0.0000 C   0  0  0  0  0  0  0  0  0  0  0  0
    1.5692   -1.3349    0.0000 C   0  0  0  0  0  0  0  0  0  0  0  0
    2.0542   -0.6674    0.0000 C   0  0  0  0  0  0  0  0  0  0  0  0
    1.5692    0.0000    0.0000 C   0  0  0  0  0  0  0  0  0  0  0  0
  2  1  1  0  0  0  0
  3  2  1  0  0  0  0
  4  3  1  0  0  0  0
  5  4  1  0  0  0  0
  5  1  1  0  0  0  0
  6  5  1  0  0  0  0
  7  6  1  0  0  0  0
  8  7  1  0  0  0  0
  1  8  1  0  0  0  0
M  END
> <ChemID>
100586

> <CAS>
694-72-4

> <Original_SMILES>
C1CCC2CCCC21

> <preferred_name>
Pentalene, octahydro-

> <dsstox_substance_id>
DTXSID7075054

> <dsstox_compound_id>
DTXCID1046500

> <qc_level>
Public_High

> <Canonical_QSARr>
C1CCC2CCCC21

> <InChI_Code_QSARr>
InChI=1S/C8H14/c1-3-7-5-2-6-8(7)4-1/h7-8H,1-6H2

> <InChI Key_QSARr>
AEBWATHAIVJLTA-UHFFFAOYSA-N

> <Salt_Solvent>


> <Salt_Solvent_ID>
0

> <MPID>
99110

> <OH Reference>
LEIFER,A ET AL. (1993)

> <OH>
1.1E-11

> <OH Temperature>
25.0

> <LogOH>
-10.958607314841784

> <Tr_1_Tst_0>
1

$$$$
100588
  Mrv171c012241912032D          

  6  5  0  0  0  0            999 V2000
    0.9122   -0.3253    0.0000 C   0  0  0  0  0  0  0  0  0  0  0  0
    1.3247   -1.0398    0.0000 F   0  0  0  0  0  0  0  0  0  0  0  0
    1.6266    0.0872    0.0000 F   0  0  0  0  0  0  0  0  0  0  0  0
    0.1977   -0.7378    0.0000 F   0  0  0  0  0  0  0  0  0  0  0  0
    0.4997    0.3891    0.0000 C   0  0  0  0  0  0  0  0  0  0  0  0
   -0.3253    0.3891    0.0000 N   0  0  0  0  0  0  0  0  0  0  0  0
  1  2  1  0  0  0  0
  1  3  1  0  0  0  0
  1  4  1  0  0  0  0
  1  5  1  0  0  0  0
  5  6  1  0  0  0  0
M  END
> <ChemID>
100588

> <CAS>
753-90-2

> <Original_SMILES>
NCC(F)(F)F

> <preferred_name>
Ethanamine, 2,2,2-trifluoro-

> <dsstox_substance_id>
DTXSID6061070

> <dsstox_compound_id>
DTXCID3047768

> <qc_level>
Public_High

> <Canonical_QSARr>
NCC(F)(F)F

> <InChI_Code_QSARr>
InChI=1S/C2H4F3N/c3-2(4,5)1-6/h1,6H2

> <InChI Key_QSARr>
KIPSRYDSZQRPEA-UHFFFAOYSA-N

> <Salt_Solvent>


> <Salt_Solvent_ID>
0

> <MPID>
99111

> <OH Reference>
KOCH,R ET AL. (1996)

> <OH>
9.299999999999999E-13

> <OH Temperature>
25.0

> <LogOH>
-12.03151705144607

> <Tr_1_Tst_0>
1

$$$$
100589
  Mrv171c012241912032D          

  7  6  0  0  0  0            999 V2000
    1.1786   -0.0000    0.0000 C   0  0  0  0  0  0  0  0  0  0  0  0
    2.0036   -0.0000    0.0000 O   0  0  0  0  0  0  0  0  0  0  0  0
    0.7661    0.7145    0.0000 C   0  0  0  0  0  0  0  0  0  0  0  0
    1.1786    1.4289    0.0000 C   0  0  0  0  0  0  0  0  0  0  0  0
    0.7661   -0.7145    0.0000 N   0  0  0  0  0  0  0  0  0  0  0  0
    1.1786   -1.4289    0.0000 C   0  0  0  0  0  0  0  0  0  0  0  0
   -0.0589   -0.7145    0.0000 C   0  0  0  0  0  0  0  0  0  0  0  0
  1  2  2  0  0  0  0
  1  3  1  0  0  0  0
  3  4  1  0  0  0  0
  1  5  1  0  0  0  0
  5  6  1  0  0  0  0
  5  7  1  0  0  0  0
M  END
> <ChemID>
100589

> <CAS>
758-96-3

> <Original_SMILES>
CCC(=O)N(C)C

> <preferred_name>
Propanamide, N,N-dimethyl-

> <dsstox_substance_id>
DTXSID1061077

> <dsstox_compound_id>
DTXCID6047818

> <qc_level>
Public_High

> <Canonical_QSARr>
CCC(=O)N(C)C

> <InChI_Code_QSARr>
InChI=1S/C5H11NO/c1-4-5(7)6(2)3/h4H2,1-3H3

> <InChI Key_QSARr>
MBHINSULENHCMF-UHFFFAOYSA-N

> <Salt_Solvent>


> <Salt_Solvent_ID>
0

> <MPID>
99112

> <OH Reference>
KOCH,R ET AL. (1997)

> <OH>
2.07E-11

> <OH Temperature>
27.0

> <LogOH>
-10.684029654543071

> <Tr_1_Tst_0>
0

$$$$
100590
  Mrv171c012241912032D          

 12 11  0  0  0  0            999 V2000
    1.0218   -1.3728    0.0000 C   0  0  0  0  0  0  0  0  0  0  0  0
    0.6093   -2.0873    0.0000 S   0  0  0  0  0  0  0  0  0  0  0  0
   -0.2157   -2.0873    0.0000 C   0  0  0  0  0  0  0  0  0  0  0  0
   -0.6282   -2.8017    0.0000 C   0  0  0  0  0  0  0  0  0  0  0  0
    0.6093   -0.6583    0.0000 O   0  0  0  0  0  0  0  0  0  0  0  0
    1.8468   -1.3728    0.0000 N   0  0  0  0  0  0  0  0  0  0  0  0
    2.2593   -0.6583    0.0000 C   0  0  0  0  0  0  0  0  0  0  0  0
    3.0843   -0.6583    0.0000 C   0  0  0  0  0  0  0  0  0  0  0  0
    3.4968    0.0561    0.0000 C   0  0  0  0  0  0  0  0  0  0  0  0
    2.2593   -2.0873    0.0000 C   0  0  0  0  0  0  0  0  0  0  0  0
    3.0843   -2.0873    0.0000 C   0  0  0  0  0  0  0  0  0  0  0  0
    3.4968   -2.8017    0.0000 C   0  0  0  0  0  0  0  0  0  0  0  0
  1  2  1  0  0  0  0
  2  3  1  0  0  0  0
  3  4  1  0  0  0  0
  1  5  2  0  0  0  0
  1  6  1  0  0  0  0
  6  7  1  0  0  0  0
  7  8  1  0  0  0  0
  8  9  1  0  0  0  0
  6 10  1  0  0  0  0
 10 11  1  0  0  0  0
 11 12  1  0  0  0  0
M  END
> <ChemID>
100590

> <CAS>
759-94-4

> <Original_SMILES>
CCSC(=O)N(CCC)CCC

> <preferred_name>
EPTC

> <dsstox_substance_id>
DTXSID1024091

> <dsstox_compound_id>
DTXCID504091

> <qc_level>
DSSTox_Low

> <Canonical_QSARr>
CCSC(=O)N(CCC)CCC

> <InChI_Code_QSARr>
InChI=1S/C9H19NOS/c1-4-7-10(8-5-2)9(11)12-6-3/h4-8H2,1-3H3

> <InChI Key_QSARr>
GUVLYNGULCJVDO-UHFFFAOYSA-N

> <Salt_Solvent>


> <Salt_Solvent_ID>
0

> <MPID>
99113

> <OH Reference>
KWOK,ESC (1993)

> <OH>
3.18E-11

> <OH Temperature>
25.0

> <LogOH>
-10.497572880015559

> <Tr_1_Tst_0>
1

$$$$
100591
  Mrv171c012241912032D          

  7  6  0  0  0  0            999 V2000
    1.8382   -1.1273    0.0000 O   0  0  0  0  0  0  0  0  0  0  0  0
    1.1237   -1.5398    0.0000 C   0  0  0  0  0  0  0  0  0  0  0  0
    1.1237   -2.3648    0.0000 O   0  0  0  0  0  0  0  0  0  0  0  0
    1.8382   -0.3023    0.0000 C   0  0  0  0  0  0  0  0  0  0  0  0
    1.8382    0.5227    0.0000 C   0  0  0  0  0  0  0  0  0  0  0  0
    2.6632   -0.3023    0.0000 C   0  0  0  0  0  0  0  0  0  0  0  0
    1.0132   -0.3023    0.0000 C   0  0  0  0  0  0  0  0  0  0  0  0
  1  2  1  0  0  0  0
  2  3  2  0  0  0  0
  1  4  1  0  0  0  0
  4  5  1  0  0  0  0
  4  6  1  0  0  0  0
  4  7  1  0  0  0  0
M  END
> <ChemID>
100591

> <CAS>
762-75-4

> <Original_SMILES>
CC(C)(C)OC=O

> <preferred_name>
tert-Butyl formate

> <dsstox_substance_id>
DTXSID4024690

> <dsstox_compound_id>
DTXCID304690

> <qc_level>
DSSTox_Low

> <Canonical_QSARr>
CC(C)(C)OC=O

> <InChI_Code_QSARr>
InChI=1S/C5H10O2/c1-5(2,3)7-4-6/h4H,1-3H3

> <InChI Key_QSARr>
RUPAXCPQAAOIPB-UHFFFAOYSA-N

> <Salt_Solvent>


> <Salt_Solvent_ID>
0

> <MPID>
99114

> <OH Reference>
KWOK,ESC & ATKINSON,R (1994)

> <OH>
7.37E-13

> <OH Temperature>
25.0

> <LogOH>
-12.132532512140969

> <Tr_1_Tst_0>
1

$$$$
100592
  Mrv171c012241912032D          

  6  5  0  0  0  0            999 V2000
    1.8651   -1.1329    0.0000 C   0  0  0  0  0  0  0  0  0  0  0  0
    2.2776   -1.8474    0.0000 C   0  0  0  0  0  0  0  0  0  0  0  0
    2.2776   -0.4184    0.0000 C   0  0  0  0  0  0  0  0  0  0  0  0
    1.0401   -1.1329    0.0000 C   0  0  0  0  0  0  0  0  0  0  0  0
    0.6276   -0.4184    0.0000 C   0  0  0  0  0  0  0  0  0  0  0  0
   -0.1974   -0.4184    0.0000 C   0  0  0  0  0  0  0  0  0  0  0  0
  1  2  2  0  0  0  0
  1  3  1  0  0  0  0
  1  4  1  0  0  0  0
  4  5  1  0  0  0  0
  5  6  1  0  0  0  0
M  END
> <ChemID>
100592

> <CAS>
6094-02-6

> <Original_SMILES>
CCCC(C)=C

> <preferred_name>
2-Methylbut-1-ene

> <dsstox_substance_id>
DTXSID9052505

> <dsstox_compound_id>
DTXCID3031078

> <qc_level>
DSSTox_High

> <Canonical_QSARr>
CCCC(C)=C

> <InChI_Code_QSARr>
InChI=1S/C6H12/c1-4-5-6(2)3/h2,4-5H2,1,3H3

> <InChI Key_QSARr>
WWUVJRULCWHUSA-UHFFFAOYSA-N

> <Salt_Solvent>


> <Salt_Solvent_ID>
0

> <MPID>
99115

> <OH Reference>
KWOK,ESC & ATKINSON,R (1994)

> <OH>
6.299999999999999E-11

> <OH Temperature>
25.0

> <LogOH>
-10.20065945054641

> <Tr_1_Tst_0>
1

$$$$
100593
  Mrv171c012241912032D          

  6  5  0  0  0  0            999 V2000
    3.3036    0.3941    0.0000 C   0  0  0  0  0  0  0  0  0  0  0  0
    2.8911    1.1086    0.0000 C   0  0  0  0  0  0  0  0  0  0  0  0
    3.3036    1.8231    0.0000 C   0  0  0  0  0  0  0  0  0  0  0  0
    2.8911   -0.3204    0.0000 C   0  0  0  0  0  0  0  0  0  0  0  0
    3.3036   -1.0348    0.0000 C   0  0  0  0  0  0  0  0  0  0  0  0
    2.0661   -0.3204    0.0000 C   0  0  0  0  0  0  0  0  0  0  0  0
  1  2  1  0  0  0  0
  2  3  2  0  0  0  0
  1  4  1  0  0  0  0
  4  5  2  0  0  0  0
  4  6  1  0  0  0  0
M  END
> <ChemID>
100593

> <CAS>
763-30-4

> <Original_SMILES>
CC(=C)CC=C

> <preferred_name>
1,4-Pentadiene, 2-methyl-

> <dsstox_substance_id>
DTXSID80227172

> <dsstox_compound_id>
DTXCID80149663

> <qc_level>
Public_Medium

> <Canonical_QSARr>
CC(=C)CC=C

> <InChI_Code_QSARr>
InChI=1S/C6H10/c1-4-5-6(2)3/h4H,1-2,5H2,3H3

> <InChI Key_QSARr>
DRWYRROCDFQZQF-UHFFFAOYSA-N

> <Salt_Solvent>


> <Salt_Solvent_ID>
0

> <MPID>
99116

> <OH Reference>
KWOK,ESC & ATKINSON,R (1994)

> <OH>
7.900000000000001E-11

> <OH Temperature>
25.0

> <LogOH>
-10.102372908709546

> <Tr_1_Tst_0>
0

$$$$
100594
  Mrv171c012241912032D          

 10  9  0  0  0  0            999 V2000
    2.0742   -0.9548    0.0000 C   0  0  0  0  0  0  0  0  0  0  0  0
    2.0742   -1.7798    0.0000 O   0  0  0  0  0  0  0  0  0  0  0  0
    1.3597   -0.5423    0.0000 O   0  0  0  0  0  0  0  0  0  0  0  0
    0.6452   -0.9548    0.0000 C   0  0  0  0  0  0  0  0  0  0  0  0
   -0.0692   -0.5423    0.0000 C   0  0  0  0  0  0  0  0  0  0  0  0
    2.7887   -0.5423    0.0000 C   0  0  0  0  0  0  0  0  0  0  0  0
    3.5031   -0.9548    0.0000 C   0  0  0  0  0  0  0  0  0  0  0  0
    4.2176   -0.5423    0.0000 O   0  0  0  0  0  0  0  0  0  0  0  0
    4.9321   -0.9548    0.0000 C   0  0  0  0  0  0  0  0  0  0  0  0
    5.6465   -0.5423    0.0000 C   0  0  0  0  0  0  0  0  0  0  0  0
  1  2  2  0  0  0  0
  1  3  1  0  0  0  0
  3  4  1  0  0  0  0
  4  5  1  0  0  0  0
  1  6  1  0  0  0  0
  6  7  1  0  0  0  0
  7  8  1  0  0  0  0
  8  9  1  0  0  0  0
  9 10  1  0  0  0  0
M  END
> <ChemID>
100594

> <CAS>
763-69-9

> <Original_SMILES>
CCOC(=O)CCOCC

> <preferred_name>
Ethyl 3-ethoxypropionate

> <dsstox_substance_id>
DTXSID0027309

> <dsstox_compound_id>
DTXCID907309

> <qc_level>
DSSTox_Low

> <Canonical_QSARr>
CCOC(=O)CCOCC

> <InChI_Code_QSARr>
InChI=1S/C7H14O3/c1-3-9-6-5-7(8)10-4-2/h3-6H2,1-2H3

> <InChI Key_QSARr>
BHXIWUJLHYHGSJ-UHFFFAOYSA-N

> <Salt_Solvent>


> <Salt_Solvent_ID>
0

> <MPID>
99117

> <OH Reference>
BAXLEY,JS ET AL. (1997)

> <OH>
2.29E-11

> <OH Temperature>
24.0

> <LogOH>
-10.64016451766013

> <Tr_1_Tst_0>
1

$$$$
100595
  Mrv171c012241912032D          

  8  7  0  0  0  0            999 V2000
    3.2317   -2.1033    0.0000 C   0  0  0  0  0  0  0  0  0  0  0  0
    2.8192   -1.3889    0.0000 C   0  0  0  0  0  0  0  0  0  0  0  0
    1.9942   -1.3889    0.0000 C   0  0  0  0  0  0  0  0  0  0  0  0
    1.5817   -0.6744    0.0000 C   0  0  0  0  0  0  0  0  0  0  0  0
    0.7567   -0.6744    0.0000 C   0  0  0  0  0  0  0  0  0  0  0  0
    0.3442   -1.3889    0.0000 C   0  0  0  0  0  0  0  0  0  0  0  0
    0.3442    0.0401    0.0000 C   0  0  0  0  0  0  0  0  0  0  0  0
    3.2317   -0.6744    0.0000 C   0  0  0  0  0  0  0  0  0  0  0  0
  1  2  1  0  0  0  0
  2  3  2  0  0  0  0
  3  4  1  0  0  0  0
  4  5  2  0  0  0  0
  5  6  1  0  0  0  0
  5  7  1  0  0  0  0
  2  8  1  0  0  0  0
M  END
> <ChemID>
100595

> <CAS>
764-13-6

> <Original_SMILES>
CC(C)=CC=C(C)C

> <preferred_name>
2,5-Dimethyl-2,4-hexadiene

> <dsstox_substance_id>
DTXSID3022116

> <dsstox_compound_id>
DTXCID102116

> <qc_level>
DSSTox_Low

> <Canonical_QSARr>
CC(C)=CC=C(C)C

> <InChI_Code_QSARr>
InChI=1S/C8H14/c1-7(2)5-6-8(3)4/h5-6H,1-4H3

> <InChI Key_QSARr>
DZPCYXCBXGQBRN-UHFFFAOYSA-N

> <Salt_Solvent>


> <Salt_Solvent_ID>
0

> <MPID>
99118

> <OH Reference>
ATKINSON,R (1989)

> <OH>
2.1E-10

> <OH Temperature>
25.0

> <LogOH>
-9.677780705266088

> <Tr_1_Tst_0>
1

$$$$
100597
  Mrv171c012241912032D          

 10 10  0  0  0  0            999 V2000
    1.2860    1.2375    0.0000 C   0  0  0  0  0  0  0  0  0  0  0  0
    1.2860    2.0625    0.0000 C   0  0  0  0  0  0  0  0  0  0  0  0
    0.5716    2.4750    0.0000 C   0  0  0  0  0  0  0  0  0  0  0  0
   -0.1429    2.0625    0.0000 C   0  0  0  0  0  0  0  0  0  0  0  0
    0.5716    3.3000    0.0000 C   0  0  0  0  0  0  0  0  0  0  0  0
    0.5716    0.8250    0.0000 C   0  0  0  0  0  0  0  0  0  0  0  0
    0.5716   -0.0000    0.0000 C   0  0  0  0  0  0  0  0  0  0  0  0
    1.2860   -0.4125    0.0000 C   0  0  0  0  0  0  0  0  0  0  0  0
    2.0005    0.0000    0.0000 C   0  0  0  0  0  0  0  0  0  0  0  0
    2.0005    0.8250    0.0000 C   0  0  0  0  0  0  0  0  0  0  0  0
  1  2  1  0  0  0  0
  2  3  2  0  0  0  0
  3  4  1  0  0  0  0
  3  5  1  0  0  0  0
  6  1  1  0  0  0  0
  7  6  2  0  0  0  0
  8  7  1  0  0  0  0
  9  8  2  0  0  0  0
 10  9  1  0  0  0  0
  1 10  2  0  0  0  0
M  END
> <ChemID>
100597

> <CAS>
768-49-0

> <Original_SMILES>
CC(C)=Cc1ccccc1

> <preferred_name>
(2-Methyl-1-propenyl)benzene

> <dsstox_substance_id>
DTXSID0061111

> <dsstox_compound_id>
DTXCID9047918

> <qc_level>
Public_High

> <Canonical_QSARr>
CC(C)=CC1C=CC=CC=1

> <InChI_Code_QSARr>
InChI=1S/C10H12/c1-9(2)8-10-6-4-3-5-7-10/h3-8H,1-2H3

> <InChI Key_QSARr>
BTOVVHWKPVSLBI-UHFFFAOYSA-N

> <Salt_Solvent>


> <Salt_Solvent_ID>
0

> <MPID>
99119

> <OH Reference>
ATKINSON,R (1989)

> <OH>
3.3E-11

> <OH Temperature>
25.0

> <LogOH>
-10.481486060122124

> <Tr_1_Tst_0>
1

$$$$
100598
  Mrv171c012241912032D          

  6  5  0  0  0  0            999 V2000
    1.1503   -0.3891    0.0000 C   0  0  0  0  0  0  0  0  0  0  0  0
    1.1503   -1.2141    0.0000 C   0  0  0  0  0  0  0  0  0  0  0  0
    0.4358   -1.6266    0.0000 O   0  0  0  0  0  0  0  0  0  0  0  0
    1.1503    0.4359    0.0000 Cl  0  0  0  0  0  0  0  0  0  0  0  0
    1.9753   -0.3891    0.0000 F   0  0  0  0  0  0  0  0  0  0  0  0
    0.3253   -0.3891    0.0000 F   0  0  0  0  0  0  0  0  0  0  0  0
  1  2  1  0  0  0  0
  2  3  2  0  0  0  0
  1  4  1  0  0  0  0
  1  5  1  0  0  0  0
  1  6  1  0  0  0  0
M  END
> <ChemID>
100598

> <CAS>
811-96-1

> <Original_SMILES>
O=CC(F)(F)Cl

> <preferred_name>
Acetaldehyde, chlorodifluoro-

> <dsstox_substance_id>
DTXSID3073929

> <dsstox_compound_id>
DTXCID5048211

> <qc_level>
Public_High

> <Canonical_QSARr>
O=CC(F)(F)Cl

> <InChI_Code_QSARr>
InChI=1S/C2HClF2O/c3-2(4,5)1-6/h1H

> <InChI Key_QSARr>
PRGCVNDIGVIGBQ-UHFFFAOYSA-N

> <Salt_Solvent>


> <Salt_Solvent_ID>
0

> <MPID>
99120

> <OH Reference>
SCOLLARD,DJ ET AL. (1993)

> <OH>
8.2E-13

> <OH Temperature>
25.0

> <LogOH>
-12.086186147616287

> <Tr_1_Tst_0>
0

$$$$
100599
  Mrv171c012241912032D          

  6  5  0  0  0  0            999 V2000
    0.3559   -1.7453    0.0000 F   0  0  0  0  0  0  0  0  0  0  0  0
    1.0703   -1.3328    0.0000 C   0  0  0  0  0  0  0  0  0  0  0  0
    1.0703   -0.5078    0.0000 C   0  0  0  0  0  0  0  0  0  0  0  0
    1.0703    0.3172    0.0000 F   0  0  0  0  0  0  0  0  0  0  0  0
    1.8953   -0.5078    0.0000 F   0  0  0  0  0  0  0  0  0  0  0  0
    0.2453   -0.5078    0.0000 F   0  0  0  0  0  0  0  0  0  0  0  0
  1  2  1  0  0  0  0
  2  3  1  0  0  0  0
  3  4  1  0  0  0  0
  3  5  1  0  0  0  0
  3  6  1  0  0  0  0
M  END
> <ChemID>
100599

> <CAS>
811-97-2

> <Original_SMILES>
FCC(F)(F)F

> <preferred_name>
1,1,1,2-Tetrafluoroethane

> <dsstox_substance_id>
DTXSID1021324

> <dsstox_compound_id>
DTXCID901324

> <qc_level>
DSSTox_Low

> <Canonical_QSARr>
FCC(F)(F)F

> <InChI_Code_QSARr>
InChI=1S/C2H2F4/c3-1-2(4,5)6/h1H2

> <InChI Key_QSARr>
LVGUZGTVOIAKKC-UHFFFAOYSA-N

> <Salt_Solvent>


> <Salt_Solvent_ID>
0

> <MPID>
99121

> <OH Reference>
KWOK,ESC & ATKINSON,R (1994)

> <OH>
4.899999999999999E-15

> <OH Temperature>
25.0

> <LogOH>
-14.309803919971483

> <Tr_1_Tst_0>
1

$$$$
100601
  Mrv171c012241912032D          

  6  5  0  0  0  0            999 V2000
    2.0625    0.7145    0.0000 C   0  0  0  0  0  0  0  0  0  0  0  0
    1.2375    0.7145    0.0000 C   0  0  0  0  0  0  0  0  0  0  0  0
    0.8250    0.0000    0.0000 C   0  0  0  0  0  0  0  0  0  0  0  0
    0.0000    0.0000    0.0000 C   0  0  0  0  0  0  0  0  0  0  0  0
   -0.4125   -0.7145    0.0000 C   0  0  0  0  0  0  0  0  0  0  0  0
    0.0000   -1.4289    0.0000 C   0  0  0  0  0  0  0  0  0  0  0  0
  1  2  2  0  0  0  0
  3  2  1  4  0  0  0
  3  4  2  0  0  0  0
  4  5  1  0  0  0  0
  5  6  2  0  0  0  0
M  END
> <ChemID>
100601

> <CAS>
2235-12-3

> <Original_SMILES>
C=CC=CC=C

> <preferred_name>
1,3,5-Hexatriene

> <dsstox_substance_id>
DTXSID3062283

> <dsstox_compound_id>
DTXCID6036671

> <qc_level>
Public_High

> <Canonical_QSARr>
C=CC=CC=C

> <InChI_Code_QSARr>
InChI=1S/C6H8/c1-3-5-6-4-2/h3-6H,1-2H2

> <InChI Key_QSARr>
AFVDZBIIBXWASR-UHFFFAOYSA-N

> <Salt_Solvent>


> <Salt_Solvent_ID>
0

> <MPID>
99122|99178

> <OH Reference>
ATKINSON,R (1989)

> <OH>
5.5555E-11

> <OH Temperature>
25.0

> <LogOH>
-10.25527684806985

> <Tr_1_Tst_0>
1

$$$$
100602
  Mrv171c012241912032D          

 10  9  0  0  0  0            999 V2000
    0.0016   -0.6634    0.0000 C   0  0  0  0  0  0  0  0  0  0  0  0
    0.7160   -1.0759    0.0000 C   0  0  0  0  0  0  0  0  0  0  0  0
    1.4305   -0.6634    0.0000 C   0  0  0  0  0  0  0  0  0  0  0  0
    2.1450   -1.0759    0.0000 C   0  0  0  0  0  0  0  0  0  0  0  0
    2.8595   -0.6634    0.0000 C   0  0  0  0  0  0  0  0  0  0  0  0
    3.5739   -1.0759    0.0000 C   0  0  0  0  0  0  0  0  0  0  0  0
    4.2884   -0.6634    0.0000 C   0  0  0  0  0  0  0  0  0  0  0  0
    5.0029   -1.0759    0.0000 C   0  0  0  0  0  0  0  0  0  0  0  0
    5.7173   -0.6634    0.0000 C   0  0  0  0  0  0  0  0  0  0  0  0
    5.0029   -1.9009    0.0000 O   0  0  0  0  0  0  0  0  0  0  0  0
  1  2  1  0  0  0  0
  2  3  1  0  0  0  0
  3  4  1  0  0  0  0
  4  5  1  0  0  0  0
  5  6  1  0  0  0  0
  6  7  1  0  0  0  0
  7  8  1  0  0  0  0
  8  9  1  0  0  0  0
  8 10  2  0  0  0  0
M  END
> <ChemID>
100602

> <CAS>
821-55-6

> <Original_SMILES>
CCCCCCCC(C)=O

> <preferred_name>
2-Nonanone

> <dsstox_substance_id>
DTXSID2022125

> <dsstox_compound_id>
DTXCID002125

> <qc_level>
DSSTox_Low

> <Canonical_QSARr>
CCCCCCCC(C)=O

> <InChI_Code_QSARr>
InChI=1S/C9H18O/c1-3-4-5-6-7-8-9(2)10/h3-8H2,1-2H3

> <InChI Key_QSARr>
VKCYHJWLYTUGCC-UHFFFAOYSA-N

> <Salt_Solvent>


> <Salt_Solvent_ID>
0

> <MPID>
99123

> <OH Reference>
ATKINSON,R (1989)

> <OH>
1.22E-11

> <OH Temperature>
25.0

> <LogOH>
-10.913640169325236

> <Tr_1_Tst_0>
1

$$$$
100604
  Mrv171c012241912032D          

 14 15  0  0  0  0            999 V2000
    0.6117   -3.1817    0.0000 O   0  5  0  0  0  0  0  0  0  0  0  0
    1.3262   -2.7692    0.0000 N   0  3  0  0  0  0  0  0  0  0  0  0
    1.3262   -1.9442    0.0000 C   0  0  0  0  0  0  0  0  0  0  0  0
    0.6117   -1.5317    0.0000 C   0  0  0  0  0  0  0  0  0  0  0  0
   -0.1027   -1.9442    0.0000 C   0  0  0  0  0  0  0  0  0  0  0  0
    0.6117   -0.7067    0.0000 C   0  0  0  0  0  0  0  0  0  0  0  0
    1.3262   -0.2942    0.0000 C   0  0  0  0  0  0  0  0  0  0  0  0
    2.0407   -0.7067    0.0000 C   0  0  0  0  0  0  0  0  0  0  0  0
    2.7552   -0.2942    0.0000 C   0  0  0  0  0  0  0  0  0  0  0  0
    3.4696   -0.7067    0.0000 C   0  0  0  0  0  0  0  0  0  0  0  0
    3.4696   -1.5317    0.0000 C   0  0  0  0  0  0  0  0  0  0  0  0
    2.7552   -1.9442    0.0000 C   0  0  0  0  0  0  0  0  0  0  0  0
    2.0407   -1.5317    0.0000 C   0  0  0  0  0  0  0  0  0  0  0  0
    2.0407   -3.1817    0.0000 O   0  0  0  0  0  0  0  0  0  0  0  0
  1  2  1  0  0  0  0
  2  3  1  0  0  0  0
  4  3  1  0  0  0  0
  4  5  1  0  0  0  0
  6  4  2  0  0  0  0
  7  6  1  0  0  0  0
  8  7  2  0  0  0  0
  8  9  1  0  0  0  0
  9 10  2  0  0  0  0
 10 11  1  0  0  0  0
 11 12  2  0  0  0  0
 12 13  1  0  0  0  0
  3 13  2  0  0  0  0
 13  8  1  0  0  0  0
  2 14  2  0  0  0  0
M  CHG  2   1  -1   2   1
M  END
> <ChemID>
100604

> <CAS>
881-03-8

> <Original_SMILES>
Cc1ccc2ccccc2c1[N+]([O-])=O

> <preferred_name>
1-Nitro-2-methylnaphthalene

> <dsstox_substance_id>
DTXSID2025761

> <dsstox_compound_id>
DTXCID105761

> <qc_level>
DSSTox_Low

> <Canonical_QSARr>
CC1=CC=C2C=CC=CC2=C1[N+]([O-])=O

> <InChI_Code_QSARr>
InChI=1S/C11H9NO2/c1-8-6-7-9-4-2-3-5-10(9)11(8)12(13)14/h2-7H,1H3

> <InChI Key_QSARr>
IZNWACYOILBFEG-UHFFFAOYSA-N

> <Salt_Solvent>


> <Salt_Solvent_ID>
0

> <MPID>
99124

> <OH Reference>
ATKINSON,R (1989); <8E-12

> <OH>
8.000000000000001E-12

> <OH Temperature>
25.0

> <LogOH>
-11.09691001300805

> <Tr_1_Tst_0>
1

$$$$
100605
  Mrv171c012241912032D          

 10  9  0  0  0  0            999 V2000
    1.4413   -0.7697    0.0000 C   0  0  0  0  0  0  0  0  0  0  0  0
    1.4413   -1.5947    0.0000 C   0  0  0  0  0  0  0  0  0  0  0  0
    0.7268   -2.0072    0.0000 C   0  0  0  0  0  0  0  0  0  0  0  0
    0.0124   -2.4197    0.0000 F   0  0  0  0  0  0  0  0  0  0  0  0
    1.1393   -2.7217    0.0000 F   0  0  0  0  0  0  0  0  0  0  0  0
    0.3143   -1.2928    0.0000 F   0  0  0  0  0  0  0  0  0  0  0  0
    2.1558   -2.0072    0.0000 O   0  0  0  0  0  0  0  0  0  0  0  0
    1.4413    0.0553    0.0000 F   0  0  0  0  0  0  0  0  0  0  0  0
    2.2663   -0.7697    0.0000 F   0  0  0  0  0  0  0  0  0  0  0  0
    0.6163   -0.7697    0.0000 F   0  0  0  0  0  0  0  0  0  0  0  0
  1  2  1  0  0  0  0
  2  3  1  0  0  0  0
  3  4  1  0  0  0  0
  3  5  1  0  0  0  0
  3  6  1  0  0  0  0
  2  7  1  0  0  0  0
  1  8  1  0  0  0  0
  1  9  1  0  0  0  0
  1 10  1  0  0  0  0
M  END
> <ChemID>
100605

> <CAS>
920-66-1

> <Original_SMILES>
OC(C(F)(F)F)C(F)(F)F

> <preferred_name>
1,1,1,3,3,3-Hexafluoro-2-propanol

> <dsstox_substance_id>
DTXSID1022134

> <dsstox_compound_id>
DTXCID902134

> <qc_level>
DSSTox_Low

> <Canonical_QSARr>
OC(C(F)(F)F)C(F)(F)F

> <InChI_Code_QSARr>
InChI=1S/C3H2F6O/c4-2(5,6)1(10)3(7,8)9/h1,10H

> <InChI Key_QSARr>
BYEAHWXPCBROCE-UHFFFAOYSA-N

> <Salt_Solvent>


> <Salt_Solvent_ID>
0

> <MPID>
99125

> <OH Reference>
TOKUHASHI,K ET AL. (1999)

> <OH>
2.58E-14

> <OH Temperature>
25.0

> <LogOH>
-13.588380294036762

> <Tr_1_Tst_0>
1

$$$$
100607
  Mrv171c012241912032D          

  9  8  0  0  0  0            999 V2000
    3.5005   -0.5545    0.0000 O   0  0  0  0  0  0  0  0  0  0  0  0
    3.0880    0.1600    0.0000 C   0  0  0  0  0  0  0  0  0  0  0  0
    3.5005    0.8745    0.0000 C   0  0  0  0  0  0  0  0  0  0  0  0
    3.9130    1.5889    0.0000 C   0  0  0  0  0  0  0  0  0  0  0  0
    2.7860    1.2870    0.0000 C   0  0  0  0  0  0  0  0  0  0  0  0
    4.2149    0.4620    0.0000 C   0  0  0  0  0  0  0  0  0  0  0  0
    3.0880   -1.2690    0.0000 N   0  3  0  0  0  0  0  0  0  0  0  0
    3.5005   -1.9834    0.0000 O   0  0  0  0  0  0  0  0  0  0  0  0
    2.2630   -1.2690    0.0000 O   0  5  0  0  0  0  0  0  0  0  0  0
  1  2  1  0  0  0  0
  2  3  1  0  0  0  0
  3  4  1  0  0  0  0
  3  5  1  0  0  0  0
  3  6  1  0  0  0  0
  1  7  1  0  0  0  0
  7  8  2  0  0  0  0
  7  9  1  0  0  0  0
M  CHG  2   7   1   9  -1
M  END
> <ChemID>
100607

> <CAS>
926-42-1

> <Original_SMILES>
CC(C)(C)CO[N+]([O-])=O

> <preferred_name>
1-Propanol, 2,2-dimethyl-, nitrate

> <dsstox_substance_id>
DTXSID50239060

> <dsstox_compound_id>
DTXCID70161551

> <qc_level>
Public_Medium

> <Canonical_QSARr>
CC(C)(C)CO[N+]([O-])=O

> <InChI_Code_QSARr>
InChI=1S/C5H11NO3/c1-5(2,3)4-9-6(7)8/h4H2,1-3H3

> <InChI Key_QSARr>
YJGBGWFCCCQXIM-UHFFFAOYSA-N

> <Salt_Solvent>


> <Salt_Solvent_ID>
0

> <MPID>
99126

> <OH Reference>
KWOK,ESC & ATKINSON,R (1994)

> <OH>
8.5E-13

> <OH Temperature>
25.0

> <LogOH>
-12.070581074285696

> <Tr_1_Tst_0>
1

$$$$
100608
  Mrv171c012241912032D          

  6  5  0  0  0  0            999 V2000
    1.2375    0.7145    0.0000 C   0  0  0  0  0  0  0  0  0  0  0  0
    0.8250    0.0000    0.0000 C   0  0  0  0  0  0  0  0  0  0  0  0
    0.0000    0.0000    0.0000 C   0  0  0  0  0  0  0  0  0  0  0  0
   -0.4125   -0.7145    0.0000 C   0  0  0  0  0  0  0  0  0  0  0  0
    0.0000   -1.4289    0.0000 C   0  0  0  0  0  0  0  0  0  0  0  0
   -1.2375   -0.7145    0.0000 C   0  0  0  0  0  0  0  0  0  0  0  0
  2  1  1  4  0  0  0
  2  3  2  0  0  0  0
  3  4  1  0  0  0  0
  4  5  1  0  0  0  0
  4  6  2  0  0  0  0
M  END
> <ChemID>
100608

> <CAS>
1118-58-7

> <Original_SMILES>
CC=CC(C)=C

> <preferred_name>
1,3-Pentadiene, 2-methyl-

> <dsstox_substance_id>
DTXSID3061506

> <dsstox_compound_id>
DTXCID6033241

> <qc_level>
Public_High

> <Canonical_QSARr>
CC=CC(C)=C

> <InChI_Code_QSARr>
InChI=1S/C6H10/c1-4-5-6(2)3/h4-5H,2H2,1,3H3

> <InChI Key_QSARr>
RCJMVGJKROQDCB-UHFFFAOYSA-N

> <Salt_Solvent>


> <Salt_Solvent_ID>
0

> <MPID>
99127

> <OH Reference>
ATKINSON,R (1989)

> <OH>
1.36E-10

> <OH Temperature>
25.0

> <LogOH>
-9.866461091629784

> <Tr_1_Tst_0>
0

$$$$
100609
  Mrv171c012241912032D          

  6  5  0  0  0  0            999 V2000
    0.6187    0.5954    0.0000 C   0  0  0  0  0  0  0  0  0  0  0  0
    1.0312   -0.1191    0.0000 C   0  0  0  0  0  0  0  0  0  0  0  0
    1.8562   -0.1191    0.0000 C   0  0  0  0  0  0  0  0  0  0  0  0
   -0.2063    0.5954    0.0000 C   0  0  0  0  0  0  0  0  0  0  0  0
   -0.6188   -0.1191    0.0000 C   0  0  0  0  0  0  0  0  0  0  0  0
   -0.6188    1.3099    0.0000 C   0  0  0  0  0  0  0  0  0  0  0  0
  1  2  1  0  0  0  0
  2  3  2  0  0  0  0
  1  4  2  0  0  0  0
  4  5  1  0  0  0  0
  4  6  1  0  0  0  0
M  END
> <ChemID>
100609

> <CAS>
926-56-7

> <Original_SMILES>
CC(C)=CC=C

> <preferred_name>
1,3-Pentadiene, 4-methyl-

> <dsstox_substance_id>
DTXSID5061291

> <dsstox_compound_id>
DTXCID9048803

> <qc_level>
Public_High

> <Canonical_QSARr>
CC(C)=CC=C

> <InChI_Code_QSARr>
InChI=1S/C6H10/c1-4-5-6(2)3/h4-5H,1H2,2-3H3

> <InChI Key_QSARr>
CJSBUWDGPXGFGA-UHFFFAOYSA-N

> <Salt_Solvent>


> <Salt_Solvent_ID>
0

> <MPID>
99128

> <OH Reference>
ATKINSON,R (1989)

> <OH>
1.31E-10

> <OH Temperature>
25.0

> <LogOH>
-9.882728704344236

> <Tr_1_Tst_0>
1

$$$$
100610
  Mrv171c012241912032D          

  8  7  0  0  0  0            999 V2000
    4.1504    0.6188    0.0000 O   0  0  0  0  0  0  0  0  0  0  0  0
    3.4360    0.2063    0.0000 C   0  0  0  0  0  0  0  0  0  0  0  0
    2.7215    0.6188    0.0000 C   0  0  0  0  0  0  0  0  0  0  0  0
    2.0070    0.2063    0.0000 C   0  0  0  0  0  0  0  0  0  0  0  0
    1.2926    0.6188    0.0000 C   0  0  0  0  0  0  0  0  0  0  0  0
    4.8649    0.2063    0.0000 N   0  3  0  0  0  0  0  0  0  0  0  0
    5.5794    0.6188    0.0000 O   0  0  0  0  0  0  0  0  0  0  0  0
    4.8649   -0.6187    0.0000 O   0  5  0  0  0  0  0  0  0  0  0  0
  1  2  1  0  0  0  0
  2  3  1  0  0  0  0
  3  4  1  0  0  0  0
  4  5  1  0  0  0  0
  1  6  1  0  0  0  0
  6  7  2  0  0  0  0
  6  8  1  0  0  0  0
M  CHG  2   6   1   8  -1
M  END
> <ChemID>
100610

> <CAS>
928-45-0

> <Original_SMILES>
CCCCO[N+]([O-])=O

> <preferred_name>
Butyl nitrate

> <dsstox_substance_id>
DTXSID70239143

> <dsstox_compound_id>
DTXCID90161634

> <qc_level>
Public_Medium

> <Canonical_QSARr>
CCCCO[N+]([O-])=O

> <InChI_Code_QSARr>
InChI=1S/C4H9NO3/c1-2-3-4-8-5(6)7/h2-4H2,1H3

> <InChI Key_QSARr>
QQHZPQUHCAKSOL-UHFFFAOYSA-N

> <Salt_Solvent>


> <Salt_Solvent_ID>
0

> <MPID>
99129

> <OH Reference>
ATKINSON,R (1994)

> <OH>
1.71E-12

> <OH Temperature>
25.0

> <LogOH>
-11.767003889607853

> <Tr_1_Tst_0>
1

$$$$
100612
  Mrv171c012241912032D          

  7  6  0  0  0  0            999 V2000
    2.0625    0.7145    0.0000 C   0  0  0  0  0  0  0  0  0  0  0  0
    1.2375    0.7145    0.0000 C   0  0  0  0  0  0  0  0  0  0  0  0
    0.8250    0.0000    0.0000 C   0  0  0  0  0  0  0  0  0  0  0  0
    0.0000    0.0000    0.0000 C   0  0  0  0  0  0  0  0  0  0  0  0
   -0.4125   -0.7145    0.0000 C   0  0  0  0  0  0  0  0  0  0  0  0
   -1.2375   -0.7145    0.0000 C   0  0  0  0  0  0  0  0  0  0  0  0
   -1.6500   -1.4289    0.0000 O   0  0  0  0  0  0  0  0  0  0  0  0
  1  2  1  0  0  0  0
  3  2  1  4  0  0  0
  3  4  2  0  0  0  0
  4  5  1  0  0  0  0
  5  6  1  0  0  0  0
  6  7  1  0  0  0  0
M  END
> <ChemID>
100612

> <CAS>
928-96-1

> <Original_SMILES>
CC/C=C\CCO

> <preferred_name>
(Z)-3-Hexen-1-ol

> <dsstox_substance_id>
DTXSID6022137

> <dsstox_compound_id>
DTXCID102137

> <qc_level>
DSSTox_Low

> <Canonical_QSARr>
CCC=CCCO

> <InChI_Code_QSARr>
InChI=1S/C6H12O/c1-2-3-4-5-6-7/h3-4,7H,2,5-6H2,1H3

> <InChI Key_QSARr>
UFLHIIWVXFIJGU-UHFFFAOYSA-N

> <Salt_Solvent>


> <Salt_Solvent_ID>
0

> <MPID>
99130

> <OH Reference>
ATKINSON,R ET AL. (1995)

> <OH>
1.1E-10

> <OH Temperature>
23.0

> <LogOH>
-9.95860731484176

> <Tr_1_Tst_0>
0

$$$$
100613
  Mrv171c012241912032D          

  6  6  0  0  0  0            999 V2000
    2.0544   -0.8830    0.0000 O   0  0  0  0  0  0  0  0  0  0  0  0
    2.8794   -0.8830    0.0000 C   0  0  0  0  0  0  0  0  0  0  0  0
    3.1344   -0.0984    0.0000 C   0  0  0  0  0  0  0  0  0  0  0  0
    2.4669    0.3865    0.0000 C   0  0  0  0  0  0  0  0  0  0  0  0
    2.4669    1.2115    0.0000 C   0  0  0  0  0  0  0  0  0  0  0  0
    1.7995   -0.0984    0.0000 C   0  0  0  0  0  0  0  0  0  0  0  0
  2  1  1  0  0  0  0
  3  2  2  0  0  0  0
  4  3  1  0  0  0  0
  4  5  1  0  0  0  0
  6  4  2  0  0  0  0
  1  6  1  0  0  0  0
M  END
> <ChemID>
100613

> <CAS>
930-27-8

> <Original_SMILES>
Cc1cocc1

> <preferred_name>
3-Methylfuran

> <dsstox_substance_id>
DTXSID10239228

> <dsstox_compound_id>
DTXCID30161719

> <qc_level>
Public_Medium

> <Canonical_QSARr>
CC1=COC=C1

> <InChI_Code_QSARr>
InChI=1S/C5H6O/c1-5-2-3-6-4-5/h2-4H,1H3

> <InChI Key_QSARr>
KJRRQXYWFQKJIP-UHFFFAOYSA-N

> <Salt_Solvent>


> <Salt_Solvent_ID>
0

> <MPID>
99131

> <OH Reference>
ATKINSON,R (1989)

> <OH>
9.350000000000001E-11

> <OH Temperature>
25.0

> <LogOH>
-10.029188389127478

> <Tr_1_Tst_0>
1

$$$$
100615
  Mrv171c012241912032D          

  8  9  0  0  0  0            999 V2000
    1.7499   -0.9212    0.0000 C   0  0  0  0  0  0  0  0  0  0  0  0
    1.0354   -0.5087    0.0000 C   0  0  0  0  0  0  0  0  0  0  0  0
    1.0354    0.3163    0.0000 C   0  0  0  0  0  0  0  0  0  0  0  0
    1.7499    0.7288    0.0000 C   0  0  0  0  0  0  0  0  0  0  0  0
    2.4643    0.3163    0.0000 C   0  0  0  0  0  0  0  0  0  0  0  0
    2.4643   -0.5087    0.0000 C   0  0  0  0  0  0  0  0  0  0  0  0
    1.6124    0.1788    0.0000 C   0  0  0  0  0  0  0  0  0  0  0  0
    1.6124   -0.3712    0.0000 C   0  0  0  0  0  0  0  0  0  0  0  0
  2  1  1  0  0  0  0
  3  2  2  0  0  0  0
  4  3  1  0  0  0  0
  4  5  1  0  0  0  0
  5  6  1  0  0  0  0
  6  1  1  0  0  0  0
  7  4  1  0  0  0  0
  8  7  1  0  0  0  0
  1  8  1  0  0  0  0
M  END
> <ChemID>
100615

> <CAS>
931-64-6

> <Original_SMILES>
C1CC2CCC1C=C2

> <preferred_name>
Bicyclo(2.2.2)oct-2-ene

> <dsstox_substance_id>
DTXSID40239271

> <dsstox_compound_id>
DTXCID60161762

> <qc_level>
Public_Medium

> <Canonical_QSARr>
C1CC2CCC1C=C2

> <InChI_Code_QSARr>
InChI=1S/C8H12/c1-2-8-5-3-7(1)4-6-8/h1-2,7-8H,3-6H2

> <InChI Key_QSARr>
VIQRCOQXIHFJND-UHFFFAOYSA-N

> <Salt_Solvent>


> <Salt_Solvent_ID>
0

> <MPID>
99132

> <OH Reference>
KWOK,ESC & ATKINSON,R (1994)

> <OH>
4.099999999999999E-11

> <OH Temperature>
25.0

> <LogOH>
-10.387216143280245

> <Tr_1_Tst_0>
1

$$$$
100616
  Mrv171c012241912032D          

  7  6  0  0  0  0            999 V2000
    2.1154   -2.0537    0.0000 C   0  0  0  0  0  0  0  0  0  0  0  0
    1.4009   -1.6412    0.0000 O   0  0  0  0  0  0  0  0  0  0  0  0
    1.4009   -0.8162    0.0000 C   0  0  0  0  0  0  0  0  0  0  0  0
    1.4009    0.0088    0.0000 C   0  0  0  0  0  0  0  0  0  0  0  0
    0.6864    0.4213    0.0000 C   0  0  0  0  0  0  0  0  0  0  0  0
    2.2259   -0.8162    0.0000 C   0  0  0  0  0  0  0  0  0  0  0  0
    0.5759   -0.8162    0.0000 C   0  0  0  0  0  0  0  0  0  0  0  0
  1  2  1  0  0  0  0
  2  3  1  0  0  0  0
  3  4  1  0  0  0  0
  4  5  1  0  0  0  0
  3  6  1  0  0  0  0
  3  7  1  0  0  0  0
M  END
> <ChemID>
100616

> <CAS>
994-05-8

> <Original_SMILES>
CCC(C)(C)OC

> <preferred_name>
tert-Amyl methyl ether

> <dsstox_substance_id>
DTXSID8024521

> <dsstox_compound_id>
DTXCID404521

> <qc_level>
DSSTox_Low

> <Canonical_QSARr>
CCC(C)(C)OC

> <InChI_Code_QSARr>
InChI=1S/C6H14O/c1-5-6(2,3)7-4/h5H2,1-4H3

> <InChI Key_QSARr>
HVZJRWJGKQPSFL-UHFFFAOYSA-N

> <Salt_Solvent>


> <Salt_Solvent_ID>
0

> <MPID>
99133

> <OH Reference>
WALLINGTON,TJ ET AL. (1993)

> <OH>
5.5E-12

> <OH Temperature>
25.0

> <LogOH>
-11.259637310505745

> <Tr_1_Tst_0>
0

$$$$
100617
  Mrv171c012241912032D          

 10  9  0  0  0  0            999 V2000
    3.3000    1.4289    0.0000 C   0  0  0  0  0  0  0  0  0  0  0  0
    2.4750    1.4289    0.0000 C   0  0  0  0  0  0  0  0  0  0  0  0
    2.0625    0.7145    0.0000 O   0  0  0  0  0  0  0  0  0  0  0  0
    1.2375    0.7145    0.0000 C   0  0  0  0  0  0  0  0  0  0  0  0
    0.8250    1.4289    0.0000 O   0  0  0  0  0  0  0  0  0  0  0  0
    0.8250    0.0000    0.0000 C   0  0  0  0  0  0  0  0  0  0  0  0
    0.0000    0.0000    0.0000 C   0  0  0  0  0  0  0  0  0  0  0  0
   -0.4125   -0.7145    0.0000 O   0  0  0  0  0  0  0  0  0  0  0  0
   -1.2375   -0.7145    0.0000 C   0  0  0  0  0  0  0  0  0  0  0  0
   -1.6500   -1.4289    0.0000 C   0  0  0  0  0  0  0  0  0  0  0  0
  1  2  1  0  0  0  0
  2  3  1  0  0  0  0
  3  4  1  0  0  0  0
  4  5  2  0  0  0  0
  6  4  1  4  0  0  0
  6  7  2  0  0  0  0
  7  8  1  0  0  0  0
  8  9  1  0  0  0  0
  9 10  1  0  0  0  0
M  END
> <ChemID>
100617

> <CAS>
1001-26-9

> <Original_SMILES>
CCOC(=O)C=COCC

> <preferred_name>


> <dsstox_substance_id>
DTXSID10878994

> <dsstox_compound_id>
DTXCID001017016

> <qc_level>


> <Canonical_QSARr>
CCOC(=O)C=COCC

> <InChI_Code_QSARr>
InChI=1S/C7H12O3/c1-3-9-6-5-7(8)10-4-2/h5-6H,3-4H2,1-2H3

> <InChI Key_QSARr>
ITQFPVUDTFABDH-UHFFFAOYSA-N

> <Salt_Solvent>


> <Salt_Solvent_ID>
0

> <MPID>
99134

> <OH Reference>
KWOK,ESC & ATKINSON,R (1994)

> <OH>
3.32E-11

> <OH Temperature>
25.0

> <LogOH>
-10.47886191629596

> <Tr_1_Tst_0>
1

$$$$
100618
  Mrv171c012241912032D          

  9  8  0  0  0  0            999 V2000
   -1.4729   -0.0652    0.0000 N   0  3  0  0  0  0  0  0  0  0  0  0
   -0.7584   -0.4777    0.0000 O   0  0  0  0  0  0  0  0  0  0  0  0
   -0.0439   -0.0652    0.0000 C   0  0  0  0  0  0  0  0  0  0  0  0
    0.6705   -0.4777    0.0000 C   0  0  0  0  0  0  0  0  0  0  0  0
    1.3850   -0.0652    0.0000 C   0  0  0  0  0  0  0  0  0  0  0  0
    2.0995   -0.4777    0.0000 C   0  0  0  0  0  0  0  0  0  0  0  0
    2.8139   -0.0652    0.0000 C   0  0  0  0  0  0  0  0  0  0  0  0
   -2.1874   -0.4777    0.0000 O   0  0  0  0  0  0  0  0  0  0  0  0
   -1.4729    0.7598    0.0000 O   0  5  0  0  0  0  0  0  0  0  0  0
  1  2  1  0  0  0  0
  2  3  1  0  0  0  0
  3  4  1  0  0  0  0
  4  5  1  0  0  0  0
  5  6  1  0  0  0  0
  6  7  1  0  0  0  0
  1  8  2  0  0  0  0
  1  9  1  0  0  0  0
M  CHG  2   1   1   9  -1
M  END
> <ChemID>
100618

> <CAS>
1002-16-0

> <Original_SMILES>
CCCCCO[N+]([O-])=O

> <preferred_name>
Amyl nitrate

> <dsstox_substance_id>
DTXSID2058708

> <dsstox_compound_id>
DTXCID2032398

> <qc_level>
DSSTox_High

> <Canonical_QSARr>
CCCCCO[N+]([O-])=O

> <InChI_Code_QSARr>
InChI=1S/C5H11NO3/c1-2-3-4-5-9-6(7)8/h2-5H2,1H3

> <InChI Key_QSARr>
HSNWZBCBUUSSQD-UHFFFAOYSA-N

> <Salt_Solvent>


> <Salt_Solvent_ID>
0

> <MPID>
99135

> <OH Reference>
KWOK,ESC & ATKINSON,R (1994)

> <OH>
3.139999999999999E-12

> <OH Temperature>
25.0

> <LogOH>
-11.50307035192679

> <Tr_1_Tst_0>
1

$$$$
100619
  Mrv171c012241912032D          

  5  4  0  0  0  0            999 V2000
    0.8250   -0.8250    0.0000 C   0  0  0  0  0  0  0  0  0  0  0  0
    0.8250    0.0000    0.0000 Si  0  0  0  0  0  0  0  0  0  0  0  0
    0.8250    0.8250    0.0000 O   0  0  0  0  0  0  0  0  0  0  0  0
    1.6500   -0.0000    0.0000 C   0  0  0  0  0  0  0  0  0  0  0  0
    0.0000    0.0000    0.0000 C   0  0  0  0  0  0  0  0  0  0  0  0
  1  2  1  0  0  0  0
  2  3  1  0  0  0  0
  2  4  1  0  0  0  0
  2  5  1  0  0  0  0
M  END
> <ChemID>
100619

> <CAS>
1066-40-6

> <Original_SMILES>
C[Si](C)(C)O

> <preferred_name>
Trimethylsilanol

> <dsstox_substance_id>
DTXSID7061433

> <dsstox_compound_id>
DTXCID3033010

> <qc_level>
DSSTox_High

> <Canonical_QSARr>
C[Si](C)(C)O

> <InChI_Code_QSARr>
InChI=1S/C3H10OSi/c1-5(2,3)4/h4H,1-3H3

> <InChI Key_QSARr>
AAPLIUHOKVUFCC-UHFFFAOYSA-N

> <Salt_Solvent>


> <Salt_Solvent_ID>
0

> <MPID>
99136

> <OH Reference>
SOMMERIADE,R ET AL. (1993)

> <OH>
3.95E-12

> <OH Temperature>
25.0

> <LogOH>
-11.403402904373532

> <Tr_1_Tst_0>
1

$$$$
100620
  Mrv171c012241912032D          

  9  8  0  0  0  0            999 V2000
    1.2375    0.7145    0.0000 C   0  0  0  0  0  0  0  0  0  0  0  0
    1.9520    0.3020    0.0000 C   0  0  0  0  0  0  0  0  0  0  0  0
    2.6664    0.7145    0.0000 C   0  0  0  0  0  0  0  0  0  0  0  0
    0.5230    1.1270    0.0000 C   0  0  0  0  0  0  0  0  0  0  0  0
   -0.1914    0.7145    0.0000 C   0  0  0  0  0  0  0  0  0  0  0  0
    1.6500    1.4289    0.0000 C   0  0  0  0  0  0  0  0  0  0  0  0
    1.2375    2.1434    0.0000 C   0  0  0  0  0  0  0  0  0  0  0  0
    0.8250   -0.0000    0.0000 C   0  0  0  0  0  0  0  0  0  0  0  0
   -0.0000   -0.0000    0.0000 C   0  0  0  0  0  0  0  0  0  0  0  0
  1  2  1  0  0  0  0
  2  3  1  0  0  0  0
  1  4  1  0  0  0  0
  4  5  1  0  0  0  0
  1  6  1  0  0  0  0
  6  7  1  0  0  0  0
  1  8  1  0  0  0  0
  8  9  1  0  0  0  0
M  END
> <ChemID>
100620

> <CAS>
1067-20-5

> <Original_SMILES>
CCC(CC)(CC)CC

> <preferred_name>
Pentane, 3,3-diethyl-

> <dsstox_substance_id>
DTXSID1073941

> <dsstox_compound_id>
DTXCID8033015

> <qc_level>
Public_High

> <Canonical_QSARr>
CCC(CC)(CC)CC

> <InChI_Code_QSARr>
InChI=1S/C9H20/c1-5-9(6-2,7-3)8-4/h5-8H2,1-4H3

> <InChI Key_QSARr>
BGXXXYLRPIRDHJ-UHFFFAOYSA-N

> <Salt_Solvent>


> <Salt_Solvent_ID>
0

> <MPID>
99137

> <OH Reference>
NIELSEN,OJ ET AL. (1991)

> <OH>
4.95E-12

> <OH Temperature>
25.0

> <LogOH>
-11.305394801066452

> <Tr_1_Tst_0>
0

$$$$
100621
  Mrv171c012241912032D          

  9  8  0  0  0  0            999 V2000
   -0.0191   -1.0052    0.0000 C   0  0  0  0  0  0  0  0  0  0  0  0
    0.6953   -0.5927    0.0000 C   0  0  0  0  0  0  0  0  0  0  0  0
    0.6953    0.2323    0.0000 C   0  0  0  0  0  0  0  0  0  0  0  0
    1.4098   -1.0052    0.0000 C   0  0  0  0  0  0  0  0  0  0  0  0
    1.4098   -1.8302    0.0000 C   0  0  0  0  0  0  0  0  0  0  0  0
    2.1243   -0.5927    0.0000 C   0  0  0  0  0  0  0  0  0  0  0  0
    2.8388   -1.0052    0.0000 C   0  0  0  0  0  0  0  0  0  0  0  0
    3.5532   -0.5927    0.0000 C   0  0  0  0  0  0  0  0  0  0  0  0
    2.8388   -1.8302    0.0000 C   0  0  0  0  0  0  0  0  0  0  0  0
  1  2  1  0  0  0  0
  2  3  1  0  0  0  0
  2  4  1  0  0  0  0
  4  5  1  0  0  0  0
  4  6  1  0  0  0  0
  6  7  1  0  0  0  0
  7  8  1  0  0  0  0
  7  9  1  0  0  0  0
M  END
> <ChemID>
100621

> <CAS>
1069-53-0

> <Original_SMILES>
CC(C)C(C)CC(C)C

> <preferred_name>


> <dsstox_substance_id>
DTXSID70870833

> <dsstox_compound_id>
DTXCID30818519

> <qc_level>


> <Canonical_QSARr>
CC(C)C(C)CC(C)C

> <InChI_Code_QSARr>
InChI=1S/C9H20/c1-7(2)6-9(5)8(3)4/h7-9H,6H2,1-5H3

> <InChI Key_QSARr>
ODGLTLJZCVNPBU-UHFFFAOYSA-N

> <Salt_Solvent>


> <Salt_Solvent_ID>
0

> <MPID>
99138

> <OH Reference>
ATKINSON,R (1989)

> <OH>
7.880000000000001E-12

> <OH Temperature>
25.0

> <LogOH>
-11.103473782510461

> <Tr_1_Tst_0>
1

$$$$
100622
  Mrv171c012241912032D          

 11 10  0  0  0  0            999 V2000
   -0.4934   -1.3024    0.0000 C   0  0  0  0  0  0  0  0  0  0  0  0
    0.2211   -1.7149    0.0000 O   0  0  0  0  0  0  0  0  0  0  0  0
    0.9355   -1.3024    0.0000 C   0  0  0  0  0  0  0  0  0  0  0  0
    1.6500   -1.7149    0.0000 C   0  0  0  0  0  0  0  0  0  0  0  0
    2.3645   -1.3024    0.0000 C   0  0  0  0  0  0  0  0  0  0  0  0
    3.0790   -1.7149    0.0000 C   0  0  0  0  0  0  0  0  0  0  0  0
    3.7934   -1.3024    0.0000 C   0  0  0  0  0  0  0  0  0  0  0  0
    4.5079   -1.7149    0.0000 O   0  0  0  0  0  0  0  0  0  0  0  0
    5.2224   -1.3024    0.0000 C   0  0  0  0  0  0  0  0  0  0  0  0
    3.7934   -0.4774    0.0000 O   0  0  0  0  0  0  0  0  0  0  0  0
    0.9355   -0.4774    0.0000 O   0  0  0  0  0  0  0  0  0  0  0  0
  1  2  1  0  0  0  0
  2  3  1  0  0  0  0
  3  4  1  0  0  0  0
  4  5  1  0  0  0  0
  5  6  1  0  0  0  0
  6  7  1  0  0  0  0
  7  8  1  0  0  0  0
  8  9  1  0  0  0  0
  7 10  2  0  0  0  0
  3 11  2  0  0  0  0
M  END
> <ChemID>
100622

> <CAS>
1119-40-0

> <Original_SMILES>
COC(=O)CCCC(=O)OC

> <preferred_name>
Dimethyl glutarate

> <dsstox_substance_id>
DTXSID3025122

> <dsstox_compound_id>
DTXCID105122

> <qc_level>
DSSTox_High

> <Canonical_QSARr>
COC(=O)CCCC(=O)OC

> <InChI_Code_QSARr>
InChI=1S/C7H12O4/c1-10-6(8)4-3-5-7(9)11-2/h3-5H2,1-2H3

> <InChI Key_QSARr>
XTDYIOOONNVFMA-UHFFFAOYSA-N

> <Salt_Solvent>


> <Salt_Solvent_ID>
0

> <MPID>
99139

> <OH Reference>
ASCHMANN,SM & ATKINSON,R (1998)

> <OH>
3.3E-12

> <OH Temperature>
25.0

> <LogOH>
-11.481486060122105

> <Tr_1_Tst_0>
1

$$$$
100623
  Mrv171c012241912032D          

 11 10  0  0  0  0            999 V2000
   -0.0041   -0.0383    0.0000 C   0  0  0  0  0  0  0  0  0  0  0  0
    0.7104   -0.4508    0.0000 C   0  0  0  0  0  0  0  0  0  0  0  0
    1.4248   -0.0383    0.0000 C   0  0  0  0  0  0  0  0  0  0  0  0
    2.1393   -0.4508    0.0000 C   0  0  0  0  0  0  0  0  0  0  0  0
    2.8538   -0.0383    0.0000 C   0  0  0  0  0  0  0  0  0  0  0  0
    3.5682   -0.4508    0.0000 C   0  0  0  0  0  0  0  0  0  0  0  0
    4.2827   -0.0383    0.0000 C   0  0  0  0  0  0  0  0  0  0  0  0
    4.9972   -0.4508    0.0000 C   0  0  0  0  0  0  0  0  0  0  0  0
    5.7117   -0.0383    0.0000 C   0  0  0  0  0  0  0  0  0  0  0  0
    6.4261   -0.4508    0.0000 C   0  0  0  0  0  0  0  0  0  0  0  0
    7.1406   -0.0383    0.0000 C   0  0  0  0  0  0  0  0  0  0  0  0
  1  2  1  0  0  0  0
  2  3  1  0  0  0  0
  3  4  1  0  0  0  0
  4  5  1  0  0  0  0
  5  6  1  0  0  0  0
  6  7  1  0  0  0  0
  7  8  1  0  0  0  0
  8  9  1  0  0  0  0
  9 10  1  0  0  0  0
 10 11  1  0  0  0  0
M  END
> <ChemID>
100623

> <CAS>
1120-21-4

> <Original_SMILES>
CCCCCCCCCCC

> <preferred_name>
Undecane

> <dsstox_substance_id>
DTXSID9021689

> <dsstox_compound_id>
DTXCID301689

> <qc_level>
DSSTox_High

> <Canonical_QSARr>
CCCCCCCCCCC

> <InChI_Code_QSARr>
InChI=1S/C11H24/c1-3-5-7-9-11-10-8-6-4-2/h3-11H2,1-2H3

> <InChI Key_QSARr>
RSJKGSCJYJTIGS-UHFFFAOYSA-N

> <Salt_Solvent>


> <Salt_Solvent_ID>
0

> <MPID>
99140

> <OH Reference>
KWOK,ESC & ATKINSON,R (1994)

> <OH>
1.32E-11

> <OH Temperature>
25.0

> <LogOH>
-10.879426068794139

> <Tr_1_Tst_0>
1

$$$$
100625
  Mrv171c012241912032D          

 14 14  0  0  0  0            999 V2000
    3.0417   -1.3774    0.0000 C   0  0  0  0  0  0  0  0  0  0  0  0
    2.2167   -1.3774    0.0000 N   0  0  0  0  0  0  0  0  0  0  0  0
    1.8042   -0.6629    0.0000 C   0  0  0  0  0  0  0  0  0  0  0  0
    2.2167    0.0516    0.0000 C   0  0  0  0  0  0  0  0  0  0  0  0
    1.8042   -2.0919    0.0000 C   0  0  0  0  0  0  0  0  0  0  0  0
    0.9792   -2.0919    0.0000 C   0  0  0  0  0  0  0  0  0  0  0  0
    0.5667   -2.8063    0.0000 C   0  0  0  0  0  0  0  0  0  0  0  0
    0.9792   -3.5208    0.0000 C   0  0  0  0  0  0  0  0  0  0  0  0
    1.8042   -3.5208    0.0000 C   0  0  0  0  0  0  0  0  0  0  0  0
    2.2167   -2.8063    0.0000 C   0  0  0  0  0  0  0  0  0  0  0  0
    3.4542   -0.6629    0.0000 S   0  0  0  0  0  0  0  0  0  0  0  0
    4.2792   -0.6629    0.0000 C   0  0  0  0  0  0  0  0  0  0  0  0
    4.6917    0.0516    0.0000 C   0  0  0  0  0  0  0  0  0  0  0  0
    3.4542   -2.0919    0.0000 O   0  0  0  0  0  0  0  0  0  0  0  0
  1  2  1  0  0  0  0
  2  3  1  0  0  0  0
  3  4  1  0  0  0  0
  2  5  1  0  0  0  0
  6  5  1  0  0  0  0
  7  6  1  0  0  0  0
  8  7  1  0  0  0  0
  9  8  1  0  0  0  0
 10  9  1  0  0  0  0
  5 10  1  0  0  0  0
  1 11  1  0  0  0  0
 11 12  1  0  0  0  0
 12 13  1  0  0  0  0
  1 14  2  0  0  0  0
M  END
> <ChemID>
100625

> <CAS>
1134-23-2

> <Original_SMILES>
CCN(C1CCCCC1)C(=O)SCC

> <preferred_name>
Cycloate

> <dsstox_substance_id>
DTXSID6032356

> <dsstox_compound_id>
DTXCID4012356

> <qc_level>
DSSTox_Low

> <Canonical_QSARr>
CCN(C1CCCCC1)C(=O)SCC

> <InChI_Code_QSARr>
InChI=1S/C11H21NOS/c1-3-12(11(13)14-4-2)10-8-6-5-7-9-10/h10H,3-9H2,1-2H3

> <InChI Key_QSARr>
DFCAFRGABIXSDS-UHFFFAOYSA-N

> <Salt_Solvent>


> <Salt_Solvent_ID>
0

> <MPID>
99141

> <OH Reference>
KWOK,ESC ET AL. (1992)

> <OH>
3.540000000000001E-11

> <OH Temperature>
25.0

> <LogOH>
-10.450996737974203

> <Tr_1_Tst_0>
0

$$$$
100626
  Mrv171c012241912032D          

  6  5  0  0  0  0            999 V2000
    0.8250    0.0000    0.0000 C   0  0  0  0  0  0  0  0  0  0  0  0
    0.4125   -0.7145    0.0000 O   0  0  0  0  0  0  0  0  0  0  0  0
    1.6500   -0.0000    0.0000 N   0  0  0  0  0  0  0  0  0  0  0  0
    2.0625   -0.7145    0.0000 C   0  0  0  0  0  0  0  0  0  0  0  0
    0.4125    0.7145    0.0000 C   0  0  0  0  0  0  0  0  0  0  0  0
   -0.4125    0.7145    0.0000 C   0  0  0  0  0  0  0  0  0  0  0  0
  1  2  2  0  0  0  0
  1  3  1  0  0  0  0
  3  4  1  0  0  0  0
  1  5  1  0  0  0  0
  5  6  1  0  0  0  0
M  END
> <ChemID>
100626

> <CAS>
1187-58-2

> <Original_SMILES>
CCC(=O)NC

> <preferred_name>
Propanamide, N-methyl-

> <dsstox_substance_id>
DTXSID0061583

> <dsstox_compound_id>
DTXCID1033456

> <qc_level>
Public_High

> <Canonical_QSARr>
CCC(=O)NC

> <InChI_Code_QSARr>
InChI=1S/C4H9NO/c1-3-4(6)5-2/h3H2,1-2H3,(H,5,6)

> <InChI Key_QSARr>
QJQAMHYHNCADNR-UHFFFAOYSA-N

> <Salt_Solvent>


> <Salt_Solvent_ID>
0

> <MPID>
99142

> <OH Reference>
KOCH,R ET AL. (1997)

> <OH>
7.600000000000002E-12

> <OH Temperature>
27.0

> <LogOH>
-11.119186407719225

> <Tr_1_Tst_0>
1

$$$$
100627
  Mrv171c012241912032D          

 10  9  0  0  0  0            999 V2000
    2.5552   -0.4270    0.0000 C   0  0  0  0  0  0  0  0  0  0  0  0
    3.3802   -0.4270    0.0000 F   0  0  0  0  0  0  0  0  0  0  0  0
    2.5552    0.3980    0.0000 F   0  0  0  0  0  0  0  0  0  0  0  0
    2.5552   -1.2520    0.0000 F   0  0  0  0  0  0  0  0  0  0  0  0
    1.7302   -0.4270    0.0000 O   0  0  0  0  0  0  0  0  0  0  0  0
    1.3177   -1.1415    0.0000 C   0  0  0  0  0  0  0  0  0  0  0  0
    1.7302   -1.8559    0.0000 F   0  0  0  0  0  0  0  0  0  0  0  0
    0.4927   -1.1415    0.0000 C   0  0  0  0  0  0  0  0  0  0  0  0
    0.0802   -1.8559    0.0000 F   0  0  0  0  0  0  0  0  0  0  0  0
    0.0802   -0.4270    0.0000 F   0  0  0  0  0  0  0  0  0  0  0  0
  1  2  1  0  0  0  0
  1  3  1  0  0  0  0
  1  4  1  0  0  0  0
  1  5  1  0  0  0  0
  5  6  1  0  0  0  0
  6  7  1  0  0  0  0
  6  8  2  0  0  0  0
  8  9  1  0  0  0  0
  8 10  1  0  0  0  0
M  END
> <ChemID>
100627

> <CAS>
1187-93-5

> <Original_SMILES>
FC(F)=C(F)OC(F)(F)F

> <preferred_name>
Trifluoro(trifluoromethoxy)ethylene

> <dsstox_substance_id>
DTXSID3051599

> <dsstox_compound_id>
DTXCID1030151

> <qc_level>
DSSTox_Low

> <Canonical_QSARr>
FC(F)=C(F)OC(F)(F)F

> <InChI_Code_QSARr>
InChI=1S/C3F6O/c4-1(5)2(6)10-3(7,8)9

> <InChI Key_QSARr>
BLTXWCKMNMYXEA-UHFFFAOYSA-N

> <Salt_Solvent>


> <Salt_Solvent_ID>
0

> <MPID>
99143

> <OH Reference>
LI,Z ET AL. (2000)

> <OH>
3.58E-12

> <OH Temperature>
25.0

> <LogOH>
-11.446116973356107

> <Tr_1_Tst_0>
1

$$$$
100628
  Mrv171c012241912032D          

  5  5  0  0  0  0            999 V2000
    0.4125    0.9958    0.0000 C   0  0  0  0  0  0  0  0  0  0  0  0
    0.4125    1.8208    0.0000 O   0  0  0  0  0  0  0  0  0  0  0  0
   -0.1709    0.4125    0.0000 C   0  0  0  0  0  0  0  0  0  0  0  0
    0.4125   -0.1709    0.0000 C   0  0  0  0  0  0  0  0  0  0  0  0
    0.9959    0.4125    0.0000 C   0  0  0  0  0  0  0  0  0  0  0  0
  1  2  2  0  0  0  0
  3  1  1  0  0  0  0
  4  3  1  0  0  0  0
  5  4  1  0  0  0  0
  1  5  1  0  0  0  0
M  END
> <ChemID>
100628

> <CAS>
1191-95-3

> <Original_SMILES>
O=C1CCC1

> <preferred_name>
Cyclobutanone

> <dsstox_substance_id>
DTXSID9061592

> <dsstox_compound_id>
DTXCID7033490

> <qc_level>
Public_High

> <Canonical_QSARr>
O=C1CCC1

> <InChI_Code_QSARr>
InChI=1S/C4H6O/c5-4-2-1-3-4/h1-3H2

> <InChI Key_QSARr>
SHQSVMDWKBRBGB-UHFFFAOYSA-N

> <Salt_Solvent>


> <Salt_Solvent_ID>
0

> <MPID>
99144

> <OH Reference>
ATKINSON,R (1989)

> <OH>
8.700000000000003E-13

> <OH Temperature>
25.0

> <LogOH>
-12.0604807473814

> <Tr_1_Tst_0>
1

$$$$
100630
  Mrv171c012241912032D          

 10  9  0  0  0  0            999 V2000
    4.6185    0.1510    0.0000 F   0  0  0  0  0  0  0  0  0  0  0  0
    3.7935    0.1510    0.0000 C   0  0  0  0  0  0  0  0  0  0  0  0
    3.7935    0.9760    0.0000 C   0  0  0  0  0  0  0  0  0  0  0  0
    3.0790    1.3885    0.0000 F   0  0  0  0  0  0  0  0  0  0  0  0
    4.5079    1.3885    0.0000 F   0  0  0  0  0  0  0  0  0  0  0  0
    3.7935   -0.6740    0.0000 O   0  0  0  0  0  0  0  0  0  0  0  0
    4.5079   -1.0865    0.0000 C   0  0  0  0  0  0  0  0  0  0  0  0
    4.5079   -1.9115    0.0000 C   0  0  0  0  0  0  0  0  0  0  0  0
    5.2224   -2.3240    0.0000 C   0  0  0  0  0  0  0  0  0  0  0  0
    2.9685    0.1510    0.0000 F   0  0  0  0  0  0  0  0  0  0  0  0
  1  2  1  0  0  0  0
  2  3  1  0  0  0  0
  3  4  1  0  0  0  0
  3  5  1  0  0  0  0
  2  6  1  0  0  0  0
  6  7  1  0  0  0  0
  7  8  1  0  0  0  0
  8  9  2  0  0  0  0
  2 10  1  0  0  0  0
M  END
> <ChemID>
100630

> <CAS>
1428-33-7

> <Original_SMILES>
C=CCOC(F)(F)C(F)F

> <preferred_name>
3-(1,1,2,2-Tetrafluoroethoxy)propene

> <dsstox_substance_id>
DTXSID90162186

> <dsstox_compound_id>
DTXCID7084677

> <qc_level>
Public_Medium

> <Canonical_QSARr>
C=CCOC(F)(F)C(F)F

> <InChI_Code_QSARr>
InChI=1S/C5H6F4O/c1-2-3-10-5(8,9)4(6)7/h2,4H,1,3H2

> <InChI Key_QSARr>
DTDFWYZVBJYVPL-UHFFFAOYSA-N

> <Salt_Solvent>


> <Salt_Solvent_ID>
0

> <MPID>
99145

> <OH Reference>
HEATHFIELD,AE ET AL. (1998)

> <OH>
1.9E-11

> <OH Temperature>
25.0

> <LogOH>
-10.721246399047168

> <Tr_1_Tst_0>
1

$$$$
100631
  Mrv171c012241912032D          

  3  2  0  0  0  0            999 V2000
    1.9520   -1.1270    0.0000 C   0  0  0  0  0  0  0  0  0  0  0  0
    1.2375   -0.7145    0.0000 F   0  0  0  0  0  0  0  0  0  0  0  0
    2.6665   -0.7145    0.0000 O   0  0  0  0  0  0  0  0  0  0  0  0
  1  2  1  0  0  0  0
  1  3  2  0  0  0  0
M  END
> <ChemID>
100631

> <CAS>
1493-02-3

> <Original_SMILES>
O=CF

> <preferred_name>
Formyl fluoride

> <dsstox_substance_id>
DTXSID6073946

> <dsstox_compound_id>
DTXCID7034836

> <qc_level>
Public_High

> <Canonical_QSARr>
O=CF

> <InChI_Code_QSARr>
InChI=1S/CHFO/c2-1-3/h1H

> <InChI Key_QSARr>
NHGVZTMBVDFPHJ-UHFFFAOYSA-N

> <Salt_Solvent>


> <Salt_Solvent_ID>
0

> <MPID>
99146

> <OH Reference>
WALLINGTON,TJ & HURLEY,MD (1993)

> <OH>
4.0E-15

> <OH Temperature>
25.0

> <LogOH>
-14.397940008672037

> <Tr_1_Tst_0>
1

$$$$
100632
  Mrv171c012241912032D          

  4  3  0  0  0  0            999 V2000
    0.8250   -0.0000    0.0000 C   0  0  0  0  0  0  0  0  0  0  0  0
    1.2375    0.7145    0.0000 Br  0  0  0  0  0  0  0  0  0  0  0  0
    1.2375   -0.7145    0.0000 F   0  0  0  0  0  0  0  0  0  0  0  0
   -0.0000   -0.0000    0.0000 F   0  0  0  0  0  0  0  0  0  0  0  0
  1  2  1  0  0  0  0
  1  3  1  0  0  0  0
  1  4  1  0  0  0  0
M  END
> <ChemID>
100632

> <CAS>
1511-62-2

> <Original_SMILES>
FC(F)Br

> <preferred_name>
Bromodifluoromethane

> <dsstox_substance_id>
DTXSID5061740

> <dsstox_compound_id>
DTXCID6034895

> <qc_level>
Public_High

> <Canonical_QSARr>
FC(F)Br

> <InChI_Code_QSARr>
InChI=1S/CHBrF2/c2-1(3)4/h1H

> <InChI Key_QSARr>
GRCDJFHYVYUNHM-UHFFFAOYSA-N

> <Salt_Solvent>


> <Salt_Solvent_ID>
0

> <MPID>
99147

> <OH Reference>
TALUKDAR,R ET AL. (1991)

> <OH>
1.0E-14

> <OH Temperature>
25.0

> <LogOH>
-13.99999999999998

> <Tr_1_Tst_0>
1

$$$$
100634
  Mrv171c012241912032D          

  5  4  0  0  0  0            999 V2000
    1.2375    0.7145    0.0000 C   0  0  0  0  0  0  0  0  0  0  0  0
    0.8250    0.0000    0.0000 C   0  0  0  0  0  0  0  0  0  0  0  0
    0.0000    0.0000    0.0000 C   0  0  0  0  0  0  0  0  0  0  0  0
   -0.4125   -0.7145    0.0000 C   0  0  0  0  0  0  0  0  0  0  0  0
    0.0000   -1.4289    0.0000 C   0  0  0  0  0  0  0  0  0  0  0  0
  2  1  1  4  0  0  0
  2  3  2  0  0  0  0
  3  4  1  0  0  0  0
  4  5  2  0  0  0  0
M  END
> <ChemID>
100634

> <CAS>
1574-41-0|2004-70-8

> <Original_SMILES>
C/C=C\C=C

> <preferred_name>
(3Z)-1,3-Pentadiene|(3E)-1,3-Pentadiene

> <dsstox_substance_id>
DTXSID60858741|DTXSID50858710

> <dsstox_compound_id>
DTXCID60809475|DTXCID707160

> <qc_level>
DSSTox_Low

> <Canonical_QSARr>
CC=CC=C

> <InChI_Code_QSARr>
InChI=1S/C5H8/c1-3-5-4-2/h3-5H,1H2,2H3

> <InChI Key_QSARr>
PMJHHCWVYXUKFD-UHFFFAOYSA-N

> <Salt_Solvent>


> <Salt_Solvent_ID>
0

> <MPID>
99148|99159

> <OH Reference>
ATKINSON,R (1989)

> <OH>
1.03068E-10

> <OH Temperature>
25.0

> <LogOH>
-9.98687615121113

> <Tr_1_Tst_0>
0

$$$$
100635
  Mrv171c012241912032D          

  9  8  0  0  0  0            999 V2000
    3.0790   -0.0229    0.0000 O   0  0  0  0  0  0  0  0  0  0  0  0
    2.3645    0.3896    0.0000 C   0  0  0  0  0  0  0  0  0  0  0  0
    1.6500   -0.0229    0.0000 C   0  0  0  0  0  0  0  0  0  0  0  0
    2.3645    1.2146    0.0000 O   0  0  0  0  0  0  0  0  0  0  0  0
    3.7935    0.3896    0.0000 C   0  0  0  0  0  0  0  0  0  0  0  0
    4.5079   -0.0229    0.0000 C   0  0  0  0  0  0  0  0  0  0  0  0
    5.2224    0.3896    0.0000 C   0  0  0  0  0  0  0  0  0  0  0  0
    5.9369   -0.0229    0.0000 C   0  0  0  0  0  0  0  0  0  0  0  0
    6.6513    0.3896    0.0000 C   0  0  0  0  0  0  0  0  0  0  0  0
  1  2  1  0  0  0  0
  2  3  1  0  0  0  0
  2  4  2  0  0  0  0
  1  5  1  0  0  0  0
  5  6  1  0  0  0  0
  6  7  1  0  0  0  0
  7  8  1  0  0  0  0
  8  9  2  0  0  0  0
M  END
> <ChemID>
100635

> <CAS>
1576-85-8

> <Original_SMILES>
CC(=O)OCCCC=C

> <preferred_name>
4-Pentenyl acetate

> <dsstox_substance_id>
DTXSID60166292

> <dsstox_compound_id>
DTXCID2088783

> <qc_level>
Public_Medium

> <Canonical_QSARr>
CC(=O)OCCCC=C

> <InChI_Code_QSARr>
InChI=1S/C7H12O2/c1-3-4-5-6-9-7(2)8/h3H,1,4-6H2,2H3

> <InChI Key_QSARr>
LVHDNIMNOMRZMF-UHFFFAOYSA-N

> <Salt_Solvent>


> <Salt_Solvent_ID>
0

> <MPID>
99149

> <OH Reference>
KWOK,ESC & ATKINSON,R (1994)

> <OH>
4.34E-11

> <OH Temperature>
25.0

> <LogOH>
-10.362510270487494

> <Tr_1_Tst_0>
1

$$$$
100638
  Mrv171c012241912032D          

  6  5  0  0  0  0            999 V2000
    1.5715   -1.5488    0.0000 C   0  0  0  0  0  0  0  0  0  0  0  0
    1.1590   -0.8343    0.0000 C   0  0  0  0  0  0  0  0  0  0  0  0
    1.8735   -0.4218    0.0000 C   0  0  0  0  0  0  0  0  0  0  0  0
    0.4446   -1.2468    0.0000 C   0  0  0  0  0  0  0  0  0  0  0  0
    0.7465   -0.1198    0.0000 O   0  0  0  0  0  0  0  0  0  0  0  0
   -0.0785   -0.1198    0.0000 C   0  0  0  0  0  0  0  0  0  0  0  0
  1  2  1  0  0  0  0
  2  3  1  0  0  0  0
  2  4  1  0  0  0  0
  2  5  1  0  0  0  0
  5  6  1  0  0  0  0
M  END
> <ChemID>
100638

> <CAS>
1634-04-4

> <Original_SMILES>
COC(C)(C)C

> <preferred_name>
Methyl tert-butyl ether

> <dsstox_substance_id>
DTXSID3020833

> <dsstox_compound_id>
DTXCID30833

> <qc_level>
DSSTox_Low

> <Canonical_QSARr>
COC(C)(C)C

> <InChI_Code_QSARr>
InChI=1S/C5H12O/c1-5(2,3)6-4/h1-4H3

> <InChI Key_QSARr>
BZLVMXJERCGZMT-UHFFFAOYSA-N

> <Salt_Solvent>


> <Salt_Solvent_ID>
0

> <MPID>
99150

> <OH Reference>
KWOK,ESC & ATKINSON,R (1994)

> <OH>
2.939999999999999E-12

> <OH Temperature>
25.0

> <LogOH>
-11.53165266958786

> <Tr_1_Tst_0>
1

$$$$
100639
  Mrv171c012241912032D          

  6  5  0  0  0  0            999 V2000
    1.2332   -0.8247    0.0000 C   0  0  0  0  0  0  0  0  0  0  0  0
    1.6457   -1.5392    0.0000 F   0  0  0  0  0  0  0  0  0  0  0  0
    1.9477   -0.4122    0.0000 F   0  0  0  0  0  0  0  0  0  0  0  0
    0.5187   -1.2372    0.0000 Cl  0  0  0  0  0  0  0  0  0  0  0  0
    0.8207   -0.1103    0.0000 C   0  0  0  0  0  0  0  0  0  0  0  0
   -0.0043   -0.1103    0.0000 Cl  0  0  0  0  0  0  0  0  0  0  0  0
  1  2  1  0  0  0  0
  1  3  1  0  0  0  0
  1  4  1  0  0  0  0
  1  5  1  0  0  0  0
  5  6  1  0  0  0  0
M  END
> <ChemID>
100639

> <CAS>
1649-08-7

> <Original_SMILES>
FC(F)(Cl)CCl

> <preferred_name>
1,2-Dichloro-1,1-difluoroethane

> <dsstox_substance_id>
DTXSID5031393

> <dsstox_compound_id>
DTXCID3011393

> <qc_level>
DSSTox_Low

> <Canonical_QSARr>
FC(F)(Cl)CCl

> <InChI_Code_QSARr>
InChI=1S/C2H2Cl2F2/c3-1-2(4,5)6/h1H2

> <InChI Key_QSARr>
SKDFWEPBABSFMG-UHFFFAOYSA-N

> <Salt_Solvent>


> <Salt_Solvent_ID>
0

> <MPID>
99151

> <OH Reference>
KWOK,ESC & ATKINSON,R (1994)

> <OH>
1.6E-14

> <OH Temperature>
25.0

> <LogOH>
-13.795880017344071

> <Tr_1_Tst_0>
0

$$$$
100640
  Mrv171c012241912032D          

  7  6  0  0  0  0            999 V2000
    1.2375    0.7145    0.0000 O   0  0  0  0  0  0  0  0  0  0  0  0
    0.8250    1.4289    0.0000 C   0  0  0  0  0  0  0  0  0  0  0  0
    1.2375    2.1434    0.0000 F   0  0  0  0  0  0  0  0  0  0  0  0
   -0.0000    1.4289    0.0000 F   0  0  0  0  0  0  0  0  0  0  0  0
    0.8250   -0.0000    0.0000 C   0  0  0  0  0  0  0  0  0  0  0  0
    1.2375   -0.7145    0.0000 F   0  0  0  0  0  0  0  0  0  0  0  0
   -0.0000   -0.0000    0.0000 F   0  0  0  0  0  0  0  0  0  0  0  0
  1  2  1  0  0  0  0
  2  3  1  0  0  0  0
  2  4  1  0  0  0  0
  1  5  1  0  0  0  0
  5  6  1  0  0  0  0
  5  7  1  0  0  0  0
M  END
> <ChemID>
100640

> <CAS>
1691-17-4

> <Original_SMILES>
FC(F)OC(F)F

> <preferred_name>
Methane, oxybis[difluoro-

> <dsstox_substance_id>
DTXSID2073271

> <dsstox_compound_id>
DTXCID9035418

> <qc_level>
Public_High

> <Canonical_QSARr>
FC(F)OC(F)F

> <InChI_Code_QSARr>
InChI=1S/C2H2F4O/c3-1(4)7-2(5)6/h1-2H

> <InChI Key_QSARr>
IOCGMLSHRBHNCM-UHFFFAOYSA-N

> <Salt_Solvent>


> <Salt_Solvent_ID>
0

> <MPID>
99152

> <OH Reference>
GARLAND,NL ET AL. (1993)

> <OH>
3.000000000000001E-15

> <OH Temperature>
25.0

> <LogOH>
-14.522878745280346

> <Tr_1_Tst_0>
1

$$$$
100642
  Mrv171c012241912032D          

  7  6  0  0  0  0            999 V2000
    0.8250    1.4289    0.0000 C   0  0  0  0  0  0  0  0  0  0  0  0
    1.2375    2.1434    0.0000 C   0  0  0  0  0  0  0  0  0  0  0  0
   -0.0000    1.4289    0.0000 C   0  0  0  0  0  0  0  0  0  0  0  0
    1.2375    0.7145    0.0000 O   0  0  0  0  0  0  0  0  0  0  0  0
    0.8250   -0.0000    0.0000 N   0  3  0  0  0  0  0  0  0  0  0  0
    1.2375   -0.7145    0.0000 O   0  5  0  0  0  0  0  0  0  0  0  0
   -0.0000   -0.0000    0.0000 O   0  0  0  0  0  0  0  0  0  0  0  0
  1  2  1  0  0  0  0
  1  3  1  0  0  0  0
  1  4  1  0  0  0  0
  4  5  1  0  0  0  0
  5  6  1  0  0  0  0
  5  7  2  0  0  0  0
M  CHG  2   5   1   6  -1
M  END
> <ChemID>
100642

> <CAS>
1712-64-7

> <Original_SMILES>
CC(C)O[N+]([O-])=O

> <preferred_name>
Nitric acid, 1-methylethyl ester

> <dsstox_substance_id>
DTXSID5061908

> <dsstox_compound_id>
DTXCID2035483

> <qc_level>
Public_High

> <Canonical_QSARr>
CC(C)O[N+]([O-])=O

> <InChI_Code_QSARr>
InChI=1S/C3H7NO3/c1-3(2)7-4(5)6/h3H,1-2H3

> <InChI Key_QSARr>
GAPFWGOSHOCNBM-UHFFFAOYSA-N

> <Salt_Solvent>


> <Salt_Solvent_ID>
0

> <MPID>
99153

> <OH Reference>
KWOK,ESC & ATKINSON,R (1994)

> <OH>
4.899999999999999E-13

> <OH Temperature>
25.0

> <LogOH>
-12.309803919971479

> <Tr_1_Tst_0>
1

$$$$
100643
  Mrv171c012241912032D          

  5  4  0  0  0  0            999 V2000
    0.8250   -1.6500    0.0000 F   0  0  0  0  0  0  0  0  0  0  0  0
    0.8250   -0.8250    0.0000 C   0  0  0  0  0  0  0  0  0  0  0  0
    0.8250    0.0000    0.0000 Cl  0  0  0  0  0  0  0  0  0  0  0  0
    1.6500   -0.8250    0.0000 C   0  0  0  0  0  0  0  0  0  0  0  0
    0.0000   -0.8250    0.0000 Cl  0  0  0  0  0  0  0  0  0  0  0  0
  1  2  1  0  0  0  0
  2  3  1  0  0  0  0
  2  4  1  0  0  0  0
  2  5  1  0  0  0  0
M  END
> <ChemID>
100643

> <CAS>
1717-00-6

> <Original_SMILES>
CC(F)(Cl)Cl

> <preferred_name>
1,1-Dichloro-1-fluoroethane

> <dsstox_substance_id>
DTXSID2020422

> <dsstox_compound_id>
DTXCID40422

> <qc_level>
DSSTox_Low

> <Canonical_QSARr>
CC(F)(Cl)Cl

> <InChI_Code_QSARr>
InChI=1S/C2H3Cl2F/c1-2(3,4)5/h1H3

> <InChI Key_QSARr>
FRCHKSNAZZFGCA-UHFFFAOYSA-N

> <Salt_Solvent>


> <Salt_Solvent_ID>
0

> <MPID>
99154

> <OH Reference>
HUDER,K & DEMORE,WB (1993)

> <OH>
5.9E-15

> <OH Temperature>
25.0

> <LogOH>
-14.22914798835785

> <Tr_1_Tst_0>
0

$$$$
100644
  Mrv171c012241912032D          

 12 13  0  0  0  0            999 V2000
    0.4763   -0.4125    0.0000 C   0  0  0  0  0  0  0  0  0  0  0  0
   -0.2382    0.0000    0.0000 C   0  0  0  0  0  0  0  0  0  0  0  0
   -0.9526   -0.4125    0.0000 C   0  0  0  0  0  0  0  0  0  0  0  0
   -0.9526   -1.2375    0.0000 C   0  0  0  0  0  0  0  0  0  0  0  0
   -0.2382   -1.6500    0.0000 C   0  0  0  0  0  0  0  0  0  0  0  0
    0.4763   -1.2375    0.0000 C   0  0  0  0  0  0  0  0  0  0  0  0
    1.1908   -1.6500    0.0000 C   0  0  0  0  0  0  0  0  0  0  0  0
    1.1908   -2.4750    0.0000 Cl  0  0  0  0  0  0  0  0  0  0  0  0
    1.9052   -1.2375    0.0000 C   0  0  0  0  0  0  0  0  0  0  0  0
    1.9052   -0.4125    0.0000 C   0  0  0  0  0  0  0  0  0  0  0  0
    1.1908    0.0000    0.0000 C   0  0  0  0  0  0  0  0  0  0  0  0
    1.1908    0.8250    0.0000 Cl  0  0  0  0  0  0  0  0  0  0  0  0
  2  1  1  0  0  0  0
  3  2  2  0  0  0  0
  4  3  1  0  0  0  0
  5  4  2  0  0  0  0
  6  5  1  0  0  0  0
  6  1  1  0  0  0  0
  7  6  2  0  0  0  0
  7  8  1  0  0  0  0
  9  7  1  0  0  0  0
 10  9  2  0  0  0  0
 11 10  1  0  0  0  0
  1 11  2  0  0  0  0
 11 12  1  0  0  0  0
M  END
> <ChemID>
100644

> <CAS>
1825-31-6

> <Original_SMILES>
Clc1ccc(Cl)c2ccccc12

> <preferred_name>
Naphthalene, 1,4-dichloro-

> <dsstox_substance_id>
DTXSID6061999

> <dsstox_compound_id>
DTXCID7035802

> <qc_level>
Public_High

> <Canonical_QSARr>
ClC1C=CC(Cl)=C2C=CC=CC=12

> <InChI_Code_QSARr>
InChI=1S/C10H6Cl2/c11-9-5-6-10(12)8-4-2-1-3-7(8)9/h1-6H

> <InChI Key_QSARr>
JDPKCYMVSKDOGS-UHFFFAOYSA-N

> <Salt_Solvent>


> <Salt_Solvent_ID>
0

> <MPID>
99155

> <OH Reference>
ATKINSON,R (1989)

> <OH>
5.8E-12

> <OH Temperature>
25.0

> <LogOH>
-11.236572006437074

> <Tr_1_Tst_0>
1

$$$$
100646
  Mrv171c012241912032D          

  6  5  0  0  0  0            999 V2000
    0.8267   -1.6671    0.0000 C   0  0  0  0  0  0  0  0  0  0  0  0
    1.2392   -0.9526    0.0000 C   0  0  0  0  0  0  0  0  0  0  0  0
    2.0642   -0.9526    0.0000 C   0  0  0  0  0  0  0  0  0  0  0  0
    2.4767   -1.6671    0.0000 Cl  0  0  0  0  0  0  0  0  0  0  0  0
    0.8267   -0.2381    0.0000 C   0  0  0  0  0  0  0  0  0  0  0  0
    0.0017   -0.2381    0.0000 Cl  0  0  0  0  0  0  0  0  0  0  0  0
  1  2  2  0  0  0  0
  2  3  1  0  0  0  0
  3  4  1  0  0  0  0
  2  5  1  0  0  0  0
  5  6  1  0  0  0  0
M  END
> <ChemID>
100646

> <CAS>
1871-57-4

> <Original_SMILES>
C=C(CCl)CCl

> <preferred_name>
3-Chloro-2-chloromethyl-1-propene

> <dsstox_substance_id>
DTXSID3022166

> <dsstox_compound_id>
DTXCID602166

> <qc_level>
DSSTox_Low

> <Canonical_QSARr>
C=C(CCl)CCl

> <InChI_Code_QSARr>
InChI=1S/C4H6Cl2/c1-4(2-5)3-6/h1-3H2

> <InChI Key_QSARr>
XJFZOSUFGSANIF-UHFFFAOYSA-N

> <Salt_Solvent>


> <Salt_Solvent_ID>
0

> <MPID>
99156

> <OH Reference>
ATKINSON,R (1989)

> <OH>
3.349999999999999E-11

> <OH Temperature>
25.0

> <LogOH>
-10.474955192963142

> <Tr_1_Tst_0>
1

$$$$
100647
  Mrv171c012241912032D          

  6  5  0  0  0  0            999 V2000
    2.2627   -0.4119    0.0000 C   0  0  0  0  0  0  0  0  0  0  0  0
    2.6752   -1.1264    0.0000 S   0  0  0  0  0  0  0  0  0  0  0  0
    1.4377   -0.4119    0.0000 C   0  0  0  0  0  0  0  0  0  0  0  0
    1.0252   -1.1264    0.0000 C   0  0  0  0  0  0  0  0  0  0  0  0
    1.0252    0.3025    0.0000 C   0  0  0  0  0  0  0  0  0  0  0  0
    0.2002    0.3025    0.0000 C   0  0  0  0  0  0  0  0  0  0  0  0
  1  2  1  0  0  0  0
  1  3  1  0  0  0  0
  3  4  1  0  0  0  0
  3  5  1  0  0  0  0
  5  6  1  0  0  0  0
M  END
> <ChemID>
100647

> <CAS>
1878-18-8

> <Original_SMILES>
CCC(C)CS

> <preferred_name>


> <dsstox_substance_id>
DTXSID50862771

> <dsstox_compound_id>
DTXCID60811492

> <qc_level>


> <Canonical_QSARr>
CCC(C)CS

> <InChI_Code_QSARr>
InChI=1S/C5H12S/c1-3-5(2)4-6/h5-6H,3-4H2,1-2H3

> <InChI Key_QSARr>
WGQKBCSACFQGQY-UHFFFAOYSA-N

> <Salt_Solvent>


> <Salt_Solvent_ID>
0

> <MPID>
99157

> <OH Reference>
ATKINSON,R (1989)

> <OH>
5.4E-11

> <OH Temperature>
25.0

> <LogOH>
-10.267606240177042

> <Tr_1_Tst_0>
0

$$$$
100648
  Mrv171c012241912032D          

  9  8  0  0  0  0            999 V2000
    0.6908    0.0360    0.0000 C   0  0  0  0  0  0  0  0  0  0  0  0
    1.1033    0.7504    0.0000 F   0  0  0  0  0  0  0  0  0  0  0  0
   -0.0237    0.4485    0.0000 F   0  0  0  0  0  0  0  0  0  0  0  0
    1.4053   -0.3765    0.0000 F   0  0  0  0  0  0  0  0  0  0  0  0
    0.2783   -0.6785    0.0000 C   0  0  0  0  0  0  0  0  0  0  0  0
    0.6908   -1.3930    0.0000 O   0  0  0  0  0  0  0  0  0  0  0  0
    0.2783   -2.1075    0.0000 C   0  0  0  0  0  0  0  0  0  0  0  0
    0.6908   -2.8219    0.0000 F   0  0  0  0  0  0  0  0  0  0  0  0
   -0.5467   -2.1075    0.0000 F   0  0  0  0  0  0  0  0  0  0  0  0
  1  2  1  0  0  0  0
  1  3  1  0  0  0  0
  1  4  1  0  0  0  0
  1  5  1  0  0  0  0
  5  6  1  0  0  0  0
  6  7  1  0  0  0  0
  7  8  1  0  0  0  0
  7  9  1  0  0  0  0
M  END
> <ChemID>
100648

> <CAS>
1885-48-9

> <Original_SMILES>
FC(F)OCC(F)(F)F

> <preferred_name>
Ethane, 2-(difluoromethoxy)-1,1,1-trifluoro-

> <dsstox_substance_id>
DTXSID5073951

> <dsstox_compound_id>
DTXCID0035954

> <qc_level>
Public_High

> <Canonical_QSARr>
FC(F)OCC(F)(F)F

> <InChI_Code_QSARr>
InChI=1S/C3H3F5O/c4-2(5)9-1-3(6,7)8/h2H,1H2

> <InChI Key_QSARr>
ZASBKNPRLPFSCA-UHFFFAOYSA-N

> <Salt_Solvent>


> <Salt_Solvent_ID>
0

> <MPID>
99158

> <OH Reference>
KWOK,ESC & ATKINSON,R (1994)

> <OH>
1.2E-14

> <OH Temperature>
25.0

> <LogOH>
-13.920818753952378

> <Tr_1_Tst_0>
1

$$$$
100650
  Mrv171c012241912032D          

 14 15  0  0  0  0            999 V2000
    2.8573   -1.6488    0.0000 C   0  0  0  0  0  0  0  0  0  0  0  0
    2.1428   -1.2363    0.0000 C   0  0  0  0  0  0  0  0  0  0  0  0
    2.1428   -0.4113    0.0000 C   0  0  0  0  0  0  0  0  0  0  0  0
    1.4283    0.0012    0.0000 C   0  0  0  0  0  0  0  0  0  0  0  0
    1.4283    0.8262    0.0000 Cl  0  0  0  0  0  0  0  0  0  0  0  0
    0.7138   -0.4113    0.0000 C   0  0  0  0  0  0  0  0  0  0  0  0
    0.7138   -1.2363    0.0000 C   0  0  0  0  0  0  0  0  0  0  0  0
    1.4283   -1.6488    0.0000 C   0  0  0  0  0  0  0  0  0  0  0  0
    2.8573   -2.4738    0.0000 C   0  0  0  0  0  0  0  0  0  0  0  0
    3.5717   -2.8863    0.0000 C   0  0  0  0  0  0  0  0  0  0  0  0
    3.5717   -3.7113    0.0000 Cl  0  0  0  0  0  0  0  0  0  0  0  0
    4.2862   -2.4738    0.0000 C   0  0  0  0  0  0  0  0  0  0  0  0
    4.2862   -1.6488    0.0000 C   0  0  0  0  0  0  0  0  0  0  0  0
    3.5717   -1.2363    0.0000 C   0  0  0  0  0  0  0  0  0  0  0  0
  1  2  1  0  0  0  0
  3  2  2  0  0  0  0
  4  3  1  0  0  0  0
  4  5  1  0  0  0  0
  6  4  2  0  0  0  0
  7  6  1  0  0  0  0
  8  7  2  0  0  0  0
  2  8  1  0  0  0  0
  9  1  2  0  0  0  0
 10  9  1  0  0  0  0
 10 11  1  0  0  0  0
 12 10  2  0  0  0  0
 13 12  1  0  0  0  0
 14 13  2  0  0  0  0
  1 14  1  0  0  0  0
M  END
> <ChemID>
100650

> <CAS>
2050-67-1

> <Original_SMILES>
Clc1cc(ccc1)-c1cc(Cl)ccc1

> <preferred_name>
Clophen A 30

> <dsstox_substance_id>
DTXSID70872817

> <dsstox_compound_id>
DTXCID60339

> <qc_level>
DSSTox_Low

> <Canonical_QSARr>
ClC1C=C(C=CC=1)C1=CC(Cl)=CC=C1

> <InChI_Code_QSARr>
InChI=1S/C12H8Cl2/c13-11-5-1-3-9(7-11)10-4-2-6-12(14)8-10/h1-8H

> <InChI Key_QSARr>
KTXUOWUHFLBZPW-UHFFFAOYSA-N

> <Salt_Solvent>


> <Salt_Solvent_ID>
0

> <MPID>
99160

> <OH Reference>
KWOK,ESC ET AL. (1995)

> <OH>
4.099999999999999E-12

> <OH Temperature>
24.0

> <LogOH>
-11.38721614328027

> <Tr_1_Tst_0>
1

$$$$
100651
  Mrv171c012241912032D          

 14 15  0  0  0  0            999 V2000
    2.8871   -0.2994    0.0000 C   0  0  0  0  0  0  0  0  0  0  0  0
    3.6016    0.1131    0.0000 C   0  0  0  0  0  0  0  0  0  0  0  0
    3.6016    0.9381    0.0000 C   0  0  0  0  0  0  0  0  0  0  0  0
    2.8871    1.3506    0.0000 C   0  0  0  0  0  0  0  0  0  0  0  0
    2.8871    2.1756    0.0000 Cl  0  0  0  0  0  0  0  0  0  0  0  0
    2.1726    0.9381    0.0000 C   0  0  0  0  0  0  0  0  0  0  0  0
    2.1726    0.1131    0.0000 C   0  0  0  0  0  0  0  0  0  0  0  0
    2.8871   -1.1244    0.0000 C   0  0  0  0  0  0  0  0  0  0  0  0
    2.1726   -1.5369    0.0000 C   0  0  0  0  0  0  0  0  0  0  0  0
    2.1726   -2.3619    0.0000 C   0  0  0  0  0  0  0  0  0  0  0  0
    2.8871   -2.7744    0.0000 C   0  0  0  0  0  0  0  0  0  0  0  0
    2.8871   -3.5994    0.0000 Cl  0  0  0  0  0  0  0  0  0  0  0  0
    3.6016   -2.3619    0.0000 C   0  0  0  0  0  0  0  0  0  0  0  0
    3.6016   -1.5369    0.0000 C   0  0  0  0  0  0  0  0  0  0  0  0
  2  1  2  0  0  0  0
  3  2  1  0  0  0  0
  4  3  2  0  0  0  0
  4  5  1  0  0  0  0
  6  4  1  0  0  0  0
  7  6  2  0  0  0  0
  1  7  1  0  0  0  0
  1  8  1  0  0  0  0
  9  8  1  0  0  0  0
 10  9  2  0  0  0  0
 11 10  1  0  0  0  0
 11 12  1  0  0  0  0
 13 11  2  0  0  0  0
 14 13  1  0  0  0  0
  8 14  2  0  0  0  0
M  END
> <ChemID>
100651

> <CAS>
2050-68-2

> <Original_SMILES>
Clc1ccc(cc1)-c1ccc(Cl)cc1

> <preferred_name>
4,4'-Dichlorobiphenyl

> <dsstox_substance_id>
DTXSID0022515

> <dsstox_compound_id>
DTXCID502515

> <qc_level>
DSSTox_High

> <Canonical_QSARr>
ClC1C=CC(=CC=1)C1C=CC(Cl)=CC=1

> <InChI_Code_QSARr>
InChI=1S/C12H8Cl2/c13-11-5-1-9(2-6-11)10-3-7-12(14)8-4-10/h1-8H

> <InChI Key_QSARr>
YTBRNEUEFCNVHC-UHFFFAOYSA-N

> <Salt_Solvent>


> <Salt_Solvent_ID>
0

> <MPID>
99161

> <OH Reference>
ANDERSON,PN & HITES,RA (1996)

> <OH>
2.0E-12

> <OH Temperature>
25.0

> <LogOH>
-11.698970004336017

> <Tr_1_Tst_0>
1

$$$$
100652
  Mrv171c012241912032D          

 13 14  0  0  0  0            999 V2000
    2.3045   -1.6232    0.0000 C   0  0  0  0  0  0  0  0  0  0  0  0
    2.3045   -2.4482    0.0000 C   0  0  0  0  0  0  0  0  0  0  0  0
    3.0190   -2.8607    0.0000 C   0  0  0  0  0  0  0  0  0  0  0  0
    3.7334   -2.4482    0.0000 C   0  0  0  0  0  0  0  0  0  0  0  0
    3.7334   -1.6232    0.0000 C   0  0  0  0  0  0  0  0  0  0  0  0
    3.0190   -1.2107    0.0000 C   0  0  0  0  0  0  0  0  0  0  0  0
    3.0190   -0.3857    0.0000 Cl  0  0  0  0  0  0  0  0  0  0  0  0
    1.5900   -1.2107    0.0000 C   0  0  0  0  0  0  0  0  0  0  0  0
    1.5900   -0.3857    0.0000 C   0  0  0  0  0  0  0  0  0  0  0  0
    0.8755    0.0268    0.0000 C   0  0  0  0  0  0  0  0  0  0  0  0
    0.1611   -0.3857    0.0000 C   0  0  0  0  0  0  0  0  0  0  0  0
    0.1611   -1.2107    0.0000 C   0  0  0  0  0  0  0  0  0  0  0  0
    0.8755   -1.6232    0.0000 C   0  0  0  0  0  0  0  0  0  0  0  0
  2  1  1  0  0  0  0
  3  2  2  0  0  0  0
  4  3  1  0  0  0  0
  5  4  2  0  0  0  0
  6  5  1  0  0  0  0
  1  6  2  0  0  0  0
  6  7  1  0  0  0  0
  1  8  1  0  0  0  0
  9  8  1  0  0  0  0
 10  9  2  0  0  0  0
 11 10  1  0  0  0  0
 12 11  2  0  0  0  0
 13 12  1  0  0  0  0
  8 13  2  0  0  0  0
M  END
> <ChemID>
100652

> <CAS>
2051-60-7

> <Original_SMILES>
Clc1ccccc1-c1ccccc1

> <preferred_name>
2-Chlorobiphenyl

> <dsstox_substance_id>
DTXSID6040298

> <dsstox_compound_id>
DTXCID4020298

> <qc_level>
DSSTox_Low

> <Canonical_QSARr>
ClC1C=CC=CC=1C1C=CC=CC=1

> <InChI_Code_QSARr>
InChI=1S/C12H9Cl/c13-12-9-5-4-8-11(12)10-6-2-1-3-7-10/h1-9H

> <InChI Key_QSARr>
LAXBNTIAOJWAOP-UHFFFAOYSA-N

> <Salt_Solvent>


> <Salt_Solvent_ID>
0

> <MPID>
99162

> <OH Reference>
KWOK,ESC & ATKINSON,R (1994)

> <OH>
2.82E-12

> <OH Temperature>
25.0

> <LogOH>
-11.549750891680626

> <Tr_1_Tst_0>
0

$$$$
100653
  Mrv171c012241912032D          

 13 14  0  0  0  0            999 V2000
    2.1802   -1.2881    0.0000 C   0  0  0  0  0  0  0  0  0  0  0  0
    2.8947   -1.7006    0.0000 C   0  0  0  0  0  0  0  0  0  0  0  0
    3.6092   -1.2881    0.0000 C   0  0  0  0  0  0  0  0  0  0  0  0
    3.6092   -0.4631    0.0000 C   0  0  0  0  0  0  0  0  0  0  0  0
    2.8947   -0.0506    0.0000 C   0  0  0  0  0  0  0  0  0  0  0  0
    2.8947    0.7744    0.0000 Cl  0  0  0  0  0  0  0  0  0  0  0  0
    2.1802   -0.4631    0.0000 C   0  0  0  0  0  0  0  0  0  0  0  0
    1.4658   -1.7006    0.0000 C   0  0  0  0  0  0  0  0  0  0  0  0
    0.7513   -1.2881    0.0000 C   0  0  0  0  0  0  0  0  0  0  0  0
    0.0368   -1.7006    0.0000 C   0  0  0  0  0  0  0  0  0  0  0  0
    0.0368   -2.5256    0.0000 C   0  0  0  0  0  0  0  0  0  0  0  0
    0.7513   -2.9381    0.0000 C   0  0  0  0  0  0  0  0  0  0  0  0
    1.4658   -2.5256    0.0000 C   0  0  0  0  0  0  0  0  0  0  0  0
  2  1  1  0  0  0  0
  3  2  2  0  0  0  0
  4  3  1  0  0  0  0
  5  4  2  0  0  0  0
  5  6  1  0  0  0  0
  7  5  1  0  0  0  0
  1  7  2  0  0  0  0
  1  8  1  0  0  0  0
  9  8  2  0  0  0  0
 10  9  1  0  0  0  0
 11 10  2  0  0  0  0
 12 11  1  0  0  0  0
 13 12  2  0  0  0  0
  8 13  1  0  0  0  0
M  END
> <ChemID>
100653

> <CAS>
2051-61-8

> <Original_SMILES>
Clc1cc(ccc1)-c1ccccc1

> <preferred_name>
3-Chlorobiphenyl

> <dsstox_substance_id>
DTXSID1040299

> <dsstox_compound_id>
DTXCID9020299

> <qc_level>
DSSTox_Low

> <Canonical_QSARr>
ClC1C=C(C=CC=1)C1C=CC=CC=1

> <InChI_Code_QSARr>
InChI=1S/C12H9Cl/c13-12-8-4-7-11(9-12)10-5-2-1-3-6-10/h1-9H

> <InChI Key_QSARr>
NMWSKOLWZZWHPL-UHFFFAOYSA-N

> <Salt_Solvent>


> <Salt_Solvent_ID>
0

> <MPID>
99163

> <OH Reference>
KWOK,ESC & ATKINSON,R (1994)

> <OH>
5.28E-12

> <OH Temperature>
25.0

> <LogOH>
-11.277366077466196

> <Tr_1_Tst_0>
1

$$$$
100654
  Mrv171c012241912032D          

 13 14  0  0  0  0            999 V2000
    2.6609   -0.5244    0.0000 C   0  0  0  0  0  0  0  0  0  0  0  0
    3.3754   -0.1119    0.0000 C   0  0  0  0  0  0  0  0  0  0  0  0
    3.3754    0.7131    0.0000 C   0  0  0  0  0  0  0  0  0  0  0  0
    2.6609    1.1256    0.0000 C   0  0  0  0  0  0  0  0  0  0  0  0
    2.6609    1.9506    0.0000 Cl  0  0  0  0  0  0  0  0  0  0  0  0
    1.9464    0.7131    0.0000 C   0  0  0  0  0  0  0  0  0  0  0  0
    1.9464   -0.1119    0.0000 C   0  0  0  0  0  0  0  0  0  0  0  0
    2.6609   -1.3494    0.0000 C   0  0  0  0  0  0  0  0  0  0  0  0
    1.9464   -1.7619    0.0000 C   0  0  0  0  0  0  0  0  0  0  0  0
    1.9464   -2.5869    0.0000 C   0  0  0  0  0  0  0  0  0  0  0  0
    2.6609   -2.9994    0.0000 C   0  0  0  0  0  0  0  0  0  0  0  0
    3.3754   -2.5869    0.0000 C   0  0  0  0  0  0  0  0  0  0  0  0
    3.3754   -1.7619    0.0000 C   0  0  0  0  0  0  0  0  0  0  0  0
  2  1  1  0  0  0  0
  3  2  2  0  0  0  0
  4  3  1  0  0  0  0
  4  5  1  0  0  0  0
  6  4  2  0  0  0  0
  7  6  1  0  0  0  0
  1  7  2  0  0  0  0
  1  8  1  0  0  0  0
  9  8  1  0  0  0  0
 10  9  2  0  0  0  0
 11 10  1  0  0  0  0
 12 11  2  0  0  0  0
 13 12  1  0  0  0  0
  8 13  2  0  0  0  0
M  END
> <ChemID>
100654

> <CAS>
2051-62-9

> <Original_SMILES>
Clc1ccc(cc1)-c1ccccc1

> <preferred_name>
4-Chlorobiphenyl

> <dsstox_substance_id>
DTXSID3040300

> <dsstox_compound_id>
DTXCID1020300

> <qc_level>
DSSTox_High

> <Canonical_QSARr>
ClC1C=CC(=CC=1)C1C=CC=CC=1

> <InChI_Code_QSARr>
InChI=1S/C12H9Cl/c13-12-8-6-11(7-9-12)10-4-2-1-3-5-10/h1-9H

> <InChI Key_QSARr>
FPWNLURCHDRMHC-UHFFFAOYSA-N

> <Salt_Solvent>


> <Salt_Solvent_ID>
0

> <MPID>
99164

> <OH Reference>
ATKINSON,R (1989)

> <OH>
3.86E-12

> <OH Temperature>
25.0

> <LogOH>
-11.41341269532824

> <Tr_1_Tst_0>
1

$$$$
100655
  Mrv171c012241912032D          

 10 10  0  0  0  0            999 V2000
    1.8857   -0.0567    0.0000 N   0  3  0  0  0  0  0  0  0  0  0  0
    1.1712   -0.4692    0.0000 O   0  0  0  0  0  0  0  0  0  0  0  0
    1.1712   -1.2942    0.0000 C   0  0  0  0  0  0  0  0  0  0  0  0
    0.4567   -1.7067    0.0000 C   0  0  0  0  0  0  0  0  0  0  0  0
    0.4567   -2.5317    0.0000 C   0  0  0  0  0  0  0  0  0  0  0  0
    1.1712   -2.9442    0.0000 C   0  0  0  0  0  0  0  0  0  0  0  0
    1.8857   -2.5317    0.0000 C   0  0  0  0  0  0  0  0  0  0  0  0
    1.8857   -1.7067    0.0000 C   0  0  0  0  0  0  0  0  0  0  0  0
    1.8857    0.7683    0.0000 O   0  0  0  0  0  0  0  0  0  0  0  0
    2.6002   -0.4692    0.0000 O   0  5  0  0  0  0  0  0  0  0  0  0
  1  2  1  0  0  0  0
  2  3  1  0  0  0  0
  4  3  1  0  0  0  0
  5  4  1  0  0  0  0
  6  5  1  0  0  0  0
  7  6  1  0  0  0  0
  8  7  1  0  0  0  0
  3  8  1  0  0  0  0
  1  9  2  0  0  0  0
  1 10  1  0  0  0  0
M  CHG  2   1   1  10  -1
M  END
> <ChemID>
100655

> <CAS>
2108-66-9

> <Original_SMILES>
[O-][N+](=O)OC1CCCCC1

> <preferred_name>


> <dsstox_substance_id>
DTXSID70878834

> <dsstox_compound_id>
DTXCID201016864

> <qc_level>


> <Canonical_QSARr>
[O-][N+](=O)OC1CCCCC1

> <InChI_Code_QSARr>
InChI=1S/C6H11NO3/c8-7(9)10-6-4-2-1-3-5-6/h6H,1-5H2

> <InChI Key_QSARr>
HLYOOCIMLHNMOG-UHFFFAOYSA-N

> <Salt_Solvent>


> <Salt_Solvent_ID>
0

> <MPID>
99165

> <OH Reference>
KWOK,ESC & ATKINSON,R (1994)

> <OH>
3.3E-12

> <OH Temperature>
25.0

> <LogOH>
-11.481486060122105

> <Tr_1_Tst_0>
1

$$$$
100656
  Mrv171c012241912032D          

  9  8  0  0  0  0            999 V2000
   -0.0098   -0.6415    0.0000 C   0  0  0  0  0  0  0  0  0  0  0  0
    0.7047   -0.2290    0.0000 C   0  0  0  0  0  0  0  0  0  0  0  0
    1.4191   -0.6415    0.0000 C   0  0  0  0  0  0  0  0  0  0  0  0
    2.1336   -0.2290    0.0000 C   0  0  0  0  0  0  0  0  0  0  0  0
    2.1336    0.5960    0.0000 C   0  0  0  0  0  0  0  0  0  0  0  0
    2.8481   -0.6415    0.0000 C   0  0  0  0  0  0  0  0  0  0  0  0
    3.5626   -0.2290    0.0000 C   0  0  0  0  0  0  0  0  0  0  0  0
    4.2770   -0.6415    0.0000 C   0  0  0  0  0  0  0  0  0  0  0  0
    4.9915   -0.2290    0.0000 C   0  0  0  0  0  0  0  0  0  0  0  0
  1  2  1  0  0  0  0
  2  3  1  0  0  0  0
  3  4  1  0  0  0  0
  4  5  1  0  0  0  0
  4  6  1  0  0  0  0
  6  7  1  0  0  0  0
  7  8  1  0  0  0  0
  8  9  1  0  0  0  0
M  END
> <ChemID>
100656

> <CAS>
2216-34-4

> <Original_SMILES>
CC(CCC)CCCC

> <preferred_name>


> <dsstox_substance_id>
DTXSID90862876

> <dsstox_compound_id>
DTXCID10811583

> <qc_level>


> <Canonical_QSARr>
CC(CCC)CCCC

> <InChI_Code_QSARr>
InChI=1S/C9H20/c1-4-6-8-9(3)7-5-2/h9H,4-8H2,1-3H3

> <InChI Key_QSARr>
DOGIHOCMZJUJNR-UHFFFAOYSA-N

> <Salt_Solvent>


> <Salt_Solvent_ID>
0

> <MPID>
99166

> <OH Reference>
ATKINSON,R (1989)

> <OH>
9.719999999999997E-12

> <OH Temperature>
25.0

> <LogOH>
-11.012333735073724

> <Tr_1_Tst_0>
0

$$$$
100657
  Mrv171c012241912032D          

  8  7  0  0  0  0            999 V2000
    0.5231    1.1270    0.0000 C   0  0  0  0  0  0  0  0  0  0  0  0
   -0.1914    0.7145    0.0000 O   0  0  0  0  0  0  0  0  0  0  0  0
    0.5231    1.9520    0.0000 C   0  0  0  0  0  0  0  0  0  0  0  0
    1.2375    0.7145    0.0000 O   0  0  0  0  0  0  0  0  0  0  0  0
    1.9520    1.1270    0.0000 O   0  0  0  0  0  0  0  0  0  0  0  0
    2.6665    0.7145    0.0000 N   0  3  0  0  0  0  0  0  0  0  0  0
    3.3809    1.1270    0.0000 O   0  5  0  0  0  0  0  0  0  0  0  0
    2.6665   -0.1105    0.0000 O   0  0  0  0  0  0  0  0  0  0  0  0
  1  2  2  0  0  0  0
  1  3  1  0  0  0  0
  1  4  1  0  0  0  0
  4  5  1  0  0  0  0
  5  6  1  0  0  0  0
  6  7  1  0  0  0  0
  6  8  2  0  0  0  0
M  CHG  2   6   1   7  -1
M  END
> <ChemID>
100657

> <CAS>
2278-22-0

> <Original_SMILES>
CC(=O)OO[N+]([O-])=O

> <preferred_name>
Peroxyacetyl nitrate

> <dsstox_substance_id>
DTXSID4062301

> <dsstox_compound_id>
DTXCID1036751

> <qc_level>
Public_High

> <Canonical_QSARr>
CC(=O)OO[N+]([O-])=O

> <InChI_Code_QSARr>
InChI=1S/C2H3NO5/c1-2(4)7-8-3(5)6/h1H3

> <InChI Key_QSARr>
VGQXTTSVLMQFHM-UHFFFAOYSA-N

> <Salt_Solvent>


> <Salt_Solvent_ID>
0

> <MPID>
99167

> <OH Reference>
ATKINSON,R (1989)

> <OH>
1.0E-13

> <OH Temperature>
25.0

> <LogOH>
-13.000000000000002

> <Tr_1_Tst_0>
1

$$$$
100658
  Mrv171c012241912032D          

  5  4  0  0  0  0            999 V2000
    0.8250    0.0000    0.0000 C   0  0  0  0  0  0  0  0  0  0  0  0
    0.8250   -0.8250    0.0000 I   0  0  0  0  0  0  0  0  0  0  0  0
    0.8250    0.8250    0.0000 F   0  0  0  0  0  0  0  0  0  0  0  0
    1.6500   -0.0000    0.0000 F   0  0  0  0  0  0  0  0  0  0  0  0
    0.0000    0.0000    0.0000 F   0  0  0  0  0  0  0  0  0  0  0  0
  1  2  1  0  0  0  0
  1  3  1  0  0  0  0
  1  4  1  0  0  0  0
  1  5  1  0  0  0  0
M  END
> <ChemID>
100658

> <CAS>
2314-97-8

> <Original_SMILES>
FC(F)(F)I

> <preferred_name>
Trifluoroiodomethane

> <dsstox_substance_id>
DTXSID2062325

> <dsstox_compound_id>
DTXCID8036815

> <qc_level>
Public_High

> <Canonical_QSARr>
FC(F)(F)I

> <InChI_Code_QSARr>
InChI=1S/CF3I/c2-1(3,4)5

> <InChI Key_QSARr>
VPAYJEUHKVESSD-UHFFFAOYSA-N

> <Salt_Solvent>


> <Salt_Solvent_ID>
0

> <MPID>
99168

> <OH Reference>
BERRY,RJ ET AL. (1998)

> <OH>
5.2E-14

> <OH Temperature>
25.0

> <LogOH>
-13.283996656365218

> <Tr_1_Tst_0>
1

$$$$
100659
  Mrv171c012241912032D          

  6  5  0  0  0  0            999 V2000
    2.0625    0.7145    0.0000 O   0  0  0  0  0  0  0  0  0  0  0  0
    1.2375    0.7145    0.0000 C   0  0  0  0  0  0  0  0  0  0  0  0
    0.8250    0.0000    0.0000 C   0  0  0  0  0  0  0  0  0  0  0  0
    0.0000    0.0000    0.0000 C   0  0  0  0  0  0  0  0  0  0  0  0
   -0.4125   -0.7145    0.0000 C   0  0  0  0  0  0  0  0  0  0  0  0
    0.0000   -1.4289    0.0000 O   0  0  0  0  0  0  0  0  0  0  0  0
  1  2  2  0  0  0  0
  3  2  1  4  0  0  0
  3  4  2  0  0  0  0
  4  5  1  0  0  0  0
  5  6  2  0  0  0  0
M  END
> <ChemID>
100659

> <CAS>
2363-83-9|3675-13-6

> <Original_SMILES>
O=C/C=C/C=O

> <preferred_name>


> <dsstox_substance_id>
DTXSID00878721|DTXSID40878720

> <dsstox_compound_id>


> <qc_level>


> <Canonical_QSARr>
O=CC=CC=O

> <InChI_Code_QSARr>
InChI=1S/C4H4O2/c5-3-1-2-4-6/h1-4H

> <InChI Key_QSARr>
JGEMYUOFGVHXKV-UHFFFAOYSA-N

> <Salt_Solvent>


> <Salt_Solvent_ID>
0

> <MPID>
99169|99193

> <OH Reference>
BIERBACH,A ET AL. (1994)

> <OH>
3.81E-11

> <OH Temperature>
25.0

> <LogOH>
-10.419075024324384

> <Tr_1_Tst_0>
1

$$$$
100660
  Mrv171c012241912032D          

 11 10  0  0  0  0            999 V2000
    0.3120   -0.4624    0.0000 C   0  0  0  0  0  0  0  0  0  0  0  0
    1.0265   -0.8749    0.0000 C   0  0  0  0  0  0  0  0  0  0  0  0
    1.7409   -0.4624    0.0000 C   0  0  0  0  0  0  0  0  0  0  0  0
    2.4554   -0.8749    0.0000 O   0  0  0  0  0  0  0  0  0  0  0  0
    3.1699   -0.4624    0.0000 C   0  0  0  0  0  0  0  0  0  0  0  0
    3.8843   -0.8749    0.0000 C   0  0  0  0  0  0  0  0  0  0  0  0
    4.5988   -0.4624    0.0000 O   0  0  0  0  0  0  0  0  0  0  0  0
    5.3133   -0.8749    0.0000 C   0  0  0  0  0  0  0  0  0  0  0  0
    6.0277   -0.4624    0.0000 C   0  0  0  0  0  0  0  0  0  0  0  0
    1.7409    0.3626    0.0000 O   0  0  0  0  0  0  0  0  0  0  0  0
    1.0265   -1.6999    0.0000 C   0  0  0  0  0  0  0  0  0  0  0  0
  1  2  2  0  0  0  0
  2  3  1  0  0  0  0
  3  4  1  0  0  0  0
  4  5  1  0  0  0  0
  5  6  1  0  0  0  0
  6  7  1  0  0  0  0
  7  8  1  0  0  0  0
  8  9  1  0  0  0  0
  3 10  2  0  0  0  0
  2 11  1  0  0  0  0
M  END
> <ChemID>
100660

> <CAS>
2370-63-0

> <Original_SMILES>
CC(=C)C(=O)OCCOCC

> <preferred_name>
2-Ethoxyethyl methacrylate

> <dsstox_substance_id>
DTXSID1022186

> <dsstox_compound_id>
DTXCID202186

> <qc_level>
DSSTox_Low

> <Canonical_QSARr>
CC(=C)C(=O)OCCOCC

> <InChI_Code_QSARr>
InChI=1S/C8H14O3/c1-4-10-5-6-11-8(9)7(2)3/h2,4-6H2,1,3H3

> <InChI Key_QSARr>
SFPNZPQIIAJXGL-UHFFFAOYSA-N

> <Salt_Solvent>


> <Salt_Solvent_ID>
0

> <MPID>
99170

> <OH Reference>
KWOK,ESC & ATKINSON,R (1994)

> <OH>
2.8E-11

> <OH Temperature>
25.0

> <LogOH>
-10.55284196865776

> <Tr_1_Tst_0>
0

$$$$
100662
  Mrv171c012241912032D          

 16 17  0  0  0  0            999 V2000
    2.8858   -1.0170    0.0000 C   0  0  0  0  0  0  0  0  0  0  0  0
    3.6002   -0.6045    0.0000 C   0  0  0  0  0  0  0  0  0  0  0  0
    3.6002    0.2205    0.0000 C   0  0  0  0  0  0  0  0  0  0  0  0
    2.8858    0.6330    0.0000 C   0  0  0  0  0  0  0  0  0  0  0  0
    2.8858    1.4580    0.0000 Cl  0  0  0  0  0  0  0  0  0  0  0  0
    2.1713    0.2205    0.0000 C   0  0  0  0  0  0  0  0  0  0  0  0
    2.1713   -0.6045    0.0000 C   0  0  0  0  0  0  0  0  0  0  0  0
    1.4568   -1.0170    0.0000 Cl  0  0  0  0  0  0  0  0  0  0  0  0
    2.8858   -1.8420    0.0000 C   0  0  0  0  0  0  0  0  0  0  0  0
    2.1713   -2.2545    0.0000 C   0  0  0  0  0  0  0  0  0  0  0  0
    2.1713   -3.0795    0.0000 C   0  0  0  0  0  0  0  0  0  0  0  0
    2.8858   -3.4920    0.0000 C   0  0  0  0  0  0  0  0  0  0  0  0
    2.8858   -4.3170    0.0000 Cl  0  0  0  0  0  0  0  0  0  0  0  0
    3.6002   -3.0795    0.0000 C   0  0  0  0  0  0  0  0  0  0  0  0
    3.6002   -2.2545    0.0000 C   0  0  0  0  0  0  0  0  0  0  0  0
    4.3147   -1.8420    0.0000 Cl  0  0  0  0  0  0  0  0  0  0  0  0
  2  1  1  0  0  0  0
  3  2  2  0  0  0  0
  4  3  1  0  0  0  0
  4  5  1  0  0  0  0
  6  4  2  0  0  0  0
  7  6  1  0  0  0  0
  1  7  2  0  0  0  0
  7  8  1  0  0  0  0
  1  9  1  0  0  0  0
 10  9  1  0  0  0  0
 11 10  2  0  0  0  0
 12 11  1  0  0  0  0
 12 13  1  0  0  0  0
 14 12  2  0  0  0  0
 15 14  1  0  0  0  0
  9 15  2  0  0  0  0
 15 16  1  0  0  0  0
M  END
> <ChemID>
100662

> <CAS>
2437-79-8

> <Original_SMILES>
Clc1cc(Cl)c(cc1)-c1ccc(Cl)cc1Cl

> <preferred_name>
2,2',4,4'-Tetrachlorobiphenyl

> <dsstox_substance_id>
DTXSID0022513

> <dsstox_compound_id>
DTXCID702513

> <qc_level>
DSSTox_Low

> <Canonical_QSARr>
ClC1=CC(Cl)=C(C=C1)C1C=CC(Cl)=CC=1Cl

> <InChI_Code_QSARr>
InChI=1S/C12H6Cl4/c13-7-1-3-9(11(15)5-7)10-4-2-8(14)6-12(10)16/h1-6H

> <InChI Key_QSARr>
QORAVNMWUNPXAO-UHFFFAOYSA-N

> <Salt_Solvent>


> <Salt_Solvent_ID>
0

> <MPID>
99171

> <OH Reference>
ANDERSON,PN & HITES,RA (1996A)

> <OH>
1.0E-12

> <OH Temperature>
25.0

> <LogOH>
-11.999999999999979

> <Tr_1_Tst_0>
1

$$$$
100664
  Mrv171c012241912032D          

  7  6  0  0  0  0            999 V2000
    0.6153   -0.8231    0.0000 C   0  0  0  0  0  0  0  0  0  0  0  0
   -0.0992   -1.2356    0.0000 O   0  0  0  0  0  0  0  0  0  0  0  0
    1.3298   -1.2356    0.0000 C   0  0  0  0  0  0  0  0  0  0  0  0
    2.0442   -0.8231    0.0000 C   0  0  0  0  0  0  0  0  0  0  0  0
    2.7587   -1.2356    0.0000 O   0  0  0  0  0  0  0  0  0  0  0  0
    3.4732   -0.8231    0.0000 C   0  0  0  0  0  0  0  0  0  0  0  0
    2.0442    0.0019    0.0000 C   0  0  0  0  0  0  0  0  0  0  0  0
  1  2  1  0  0  0  0
  1  3  1  0  0  0  0
  3  4  1  0  0  0  0
  4  5  1  0  0  0  0
  5  6  1  0  0  0  0
  4  7  1  0  0  0  0
M  END
> <ChemID>
100664

> <CAS>
2517-43-3

> <Original_SMILES>
COC(C)CCO

> <preferred_name>
3-Methoxybutan-1-ol

> <dsstox_substance_id>
DTXSID0044812

> <dsstox_compound_id>
DTXCID8024812

> <qc_level>
DSSTox_Low

> <Canonical_QSARr>
COC(C)CCO

> <InChI_Code_QSARr>
InChI=1S/C5H12O2/c1-5(7-2)3-4-6/h5-6H,3-4H2,1-2H3

> <InChI Key_QSARr>
JSGVZVOGOQILFM-UHFFFAOYSA-N

> <Salt_Solvent>


> <Salt_Solvent_ID>
0

> <MPID>
99172

> <OH Reference>
ATKINSON,R (1989)

> <OH>
2.36E-11

> <OH Temperature>
25.0

> <LogOH>
-10.627087997029898

> <Tr_1_Tst_0>
1

$$$$
100665
  Mrv171c012241912032D          

  7  6  0  0  0  0            999 V2000
    0.9629   -0.9003    0.0000 P   0  0  0  0  0  0  0  0  0  0  0  0
    1.6774   -0.4878    0.0000 Cl  0  0  0  0  0  0  0  0  0  0  0  0
    0.2484   -1.3128    0.0000 S   0  0  0  0  0  0  0  0  0  0  0  0
    1.3754   -1.6148    0.0000 O   0  0  0  0  0  0  0  0  0  0  0  0
    2.2004   -1.6148    0.0000 C   0  0  0  0  0  0  0  0  0  0  0  0
    0.5504   -0.1858    0.0000 O   0  0  0  0  0  0  0  0  0  0  0  0
   -0.2746   -0.1858    0.0000 C   0  0  0  0  0  0  0  0  0  0  0  0
  1  2  1  0  0  0  0
  1  3  2  0  0  0  0
  1  4  1  0  0  0  0
  4  5  1  0  0  0  0
  1  6  1  0  0  0  0
  6  7  1  0  0  0  0
M  END
> <ChemID>
100665

> <CAS>
2524-03-0

> <Original_SMILES>
COP(=S)(Cl)OC

> <preferred_name>
O,O-Dimethyl chlorothiophosphate

> <dsstox_substance_id>
DTXSID0027486

> <dsstox_compound_id>
DTXCID307486

> <qc_level>
DSSTox_Low

> <Canonical_QSARr>
COP(=S)(Cl)OC

> <InChI_Code_QSARr>
InChI=1S/C2H6ClO2PS/c1-4-6(3,7)5-2/h1-2H3

> <InChI Key_QSARr>
XFBJRFNXPUCPKU-UHFFFAOYSA-N

> <Salt_Solvent>


> <Salt_Solvent_ID>
0

> <MPID>
99173

> <OH Reference>
ATKINSON,R ET AL. (1988)

> <OH>
5.9E-11

> <OH Temperature>
23.0

> <LogOH>
-10.229147988357843

> <Tr_1_Tst_0>
0

$$$$
100666
  Mrv171c012241912032D          

  9  9  0  0  0  0            999 V2000
    3.0789    1.4437    0.0000 O   0  5  0  0  0  0  0  0  0  0  0  0
    2.3645    1.0312    0.0000 N   0  3  0  0  0  0  0  0  0  0  0  0
    2.3645    0.2062    0.0000 C   0  0  0  0  0  0  0  0  0  0  0  0
    1.6500   -0.2063    0.0000 C   0  0  0  0  0  0  0  0  0  0  0  0
    1.6500   -1.0313    0.0000 C   0  0  0  0  0  0  0  0  0  0  0  0
    2.3645   -1.4438    0.0000 C   0  0  0  0  0  0  0  0  0  0  0  0
    3.0789   -1.0313    0.0000 C   0  0  0  0  0  0  0  0  0  0  0  0
    3.0789   -0.2063    0.0000 C   0  0  0  0  0  0  0  0  0  0  0  0
    1.6500    1.4437    0.0000 O   0  0  0  0  0  0  0  0  0  0  0  0
  1  2  1  0  0  0  0
  2  3  1  0  0  0  0
  4  3  2  0  0  0  0
  5  4  1  0  0  0  0
  6  5  1  0  0  0  0
  7  6  1  0  0  0  0
  8  7  1  0  0  0  0
  3  8  1  0  0  0  0
  2  9  2  0  0  0  0
M  CHG  2   1  -1   2   1
M  END
> <ChemID>
100666

> <CAS>
2562-37-0

> <Original_SMILES>
[O-][N+](=O)C1CCCCC=1

> <preferred_name>
1-Nitrocyclohex-1-ene

> <dsstox_substance_id>
DTXSID40180294

> <dsstox_compound_id>
DTXCID50102785

> <qc_level>
Public_Medium

> <Canonical_QSARr>
[O-][N+](=O)C1CCCCC=1

> <InChI_Code_QSARr>
InChI=1S/C6H9NO2/c8-7(9)6-4-2-1-3-5-6/h4H,1-3,5H2

> <InChI Key_QSARr>
DJBRXNRKYAWTBL-UHFFFAOYSA-N

> <Salt_Solvent>


> <Salt_Solvent_ID>
0

> <MPID>
99174

> <OH Reference>
ATKINSON,R (1994)

> <OH>
4.37E-11

> <OH Temperature>
25.0

> <LogOH>
-10.359518563029575

> <Tr_1_Tst_0>
1

$$$$
100667
  Mrv171c012241912032D          

  3  2  0  0  0  0            999 V2000
    1.6499    0.4620    0.0000 Cl  0  0  0  0  0  0  0  0  0  0  0  0
    2.3644    0.0495    0.0000 C   0  0  0  0  0  0  0  0  0  0  0  0
    3.0789    0.4620    0.0000 O   0  0  0  0  0  0  0  0  0  0  0  0
  1  2  1  0  0  0  0
  2  3  2  0  0  0  0
M  END
> <ChemID>
100667

> <CAS>
2565-30-2

> <Original_SMILES>
O=CCl

> <preferred_name>
Formyl chloride

> <dsstox_substance_id>
DTXSID30180344

> <dsstox_compound_id>
DTXCID40102835

> <qc_level>
Public_Medium

> <Canonical_QSARr>
O=CCl

> <InChI_Code_QSARr>
InChI=1S/CHClO/c2-1-3/h1H

> <InChI Key_QSARr>
GFAUNYMRSKVDJL-UHFFFAOYSA-N

> <Salt_Solvent>


> <Salt_Solvent_ID>
0

> <MPID>
99175

> <OH Reference>
KWOK,ESC & ATKINSON,R (1994)

> <OH>
3.2E-13

> <OH Temperature>
25.0

> <LogOH>
-12.494850021680088

> <Tr_1_Tst_0>
1

$$$$
100668
  Mrv171c012241912032D          

 11 10  0  0  0  0            999 V2000
    7.8082    2.8580    0.0000 C   0  0  0  0  0  0  0  0  0  0  0  0
    7.0938    3.2705    0.0000 O   0  0  0  0  0  0  0  0  0  0  0  0
    6.3793    2.8580    0.0000 C   0  0  0  0  0  0  0  0  0  0  0  0
    5.6648    3.2705    0.0000 C   0  0  0  0  0  0  0  0  0  0  0  0
    4.9503    2.8580    0.0000 C   0  0  0  0  0  0  0  0  0  0  0  0
    4.2359    3.2705    0.0000 C   0  0  0  0  0  0  0  0  0  0  0  0
    8.5227    3.2705    0.0000 O   0  0  0  0  0  0  0  0  0  0  0  0
    9.2372    2.8580    0.0000 C   0  0  0  0  0  0  0  0  0  0  0  0
    9.9516    3.2705    0.0000 C   0  0  0  0  0  0  0  0  0  0  0  0
   10.6661    2.8580    0.0000 C   0  0  0  0  0  0  0  0  0  0  0  0
   11.3806    3.2705    0.0000 C   0  0  0  0  0  0  0  0  0  0  0  0
  1  2  1  0  0  0  0
  2  3  1  0  0  0  0
  3  4  1  0  0  0  0
  4  5  1  0  0  0  0
  5  6  1  0  0  0  0
  1  7  1  0  0  0  0
  7  8  1  0  0  0  0
  8  9  1  0  0  0  0
  9 10  1  0  0  0  0
 10 11  1  0  0  0  0
M  END
> <ChemID>
100668

> <CAS>
2568-90-3

> <Original_SMILES>
CCCCOCOCCCC

> <preferred_name>
Butane, 1,1'-[methylenebis(oxy)]bis-

> <dsstox_substance_id>
DTXSID3062528

> <dsstox_compound_id>
DTXCID1037359

> <qc_level>
Public_High

> <Canonical_QSARr>
CCCCOCOCCCC

> <InChI_Code_QSARr>
InChI=1S/C9H20O2/c1-3-5-7-10-9-11-8-6-4-2/h3-9H2,1-2H3

> <InChI Key_QSARr>
QLCJOAMJPCOIDI-UHFFFAOYSA-N

> <Salt_Solvent>


> <Salt_Solvent_ID>
0

> <MPID>
99176

> <OH Reference>
BECKER,KH ET AL. (1999)

> <OH>
3.389999999999999E-11

> <OH Temperature>
25.0

> <LogOH>
-10.469800301796898

> <Tr_1_Tst_0>
1

$$$$
100669
  Mrv171c012241912032D          

 11 10  0  0  0  0            999 V2000
    1.3892   -1.8900    0.0000 C   0  0  0  0  0  0  0  0  0  0  0  0
    0.6747   -2.3025    0.0000 O   0  0  0  0  0  0  0  0  0  0  0  0
   -0.0398   -1.8900    0.0000 C   0  0  0  0  0  0  0  0  0  0  0  0
   -0.0398   -1.0650    0.0000 C   0  0  0  0  0  0  0  0  0  0  0  0
   -0.7542   -2.3025    0.0000 C   0  0  0  0  0  0  0  0  0  0  0  0
   -1.4687   -1.8900    0.0000 C   0  0  0  0  0  0  0  0  0  0  0  0
    2.1037   -2.3025    0.0000 O   0  0  0  0  0  0  0  0  0  0  0  0
    2.8181   -1.8900    0.0000 C   0  0  0  0  0  0  0  0  0  0  0  0
    2.8181   -1.0650    0.0000 C   0  0  0  0  0  0  0  0  0  0  0  0
    3.5326   -2.3025    0.0000 C   0  0  0  0  0  0  0  0  0  0  0  0
    4.2471   -1.8900    0.0000 C   0  0  0  0  0  0  0  0  0  0  0  0
  1  2  1  0  0  0  0
  2  3  1  0  0  0  0
  3  4  1  0  0  0  0
  3  5  1  0  0  0  0
  5  6  1  0  0  0  0
  1  7  1  0  0  0  0
  7  8  1  0  0  0  0
  8  9  1  0  0  0  0
  8 10  1  0  0  0  0
 10 11  1  0  0  0  0
M  END
> <ChemID>
100669

> <CAS>
2568-92-5

> <Original_SMILES>
CC(CC)OCOC(C)CC

> <preferred_name>


> <dsstox_substance_id>
DTXSID30875844

> <dsstox_compound_id>
DTXCID401013961

> <qc_level>


> <Canonical_QSARr>
CC(CC)OCOC(C)CC

> <InChI_Code_QSARr>
InChI=1S/C9H20O2/c1-5-8(3)10-7-11-9(4)6-2/h8-9H,5-7H2,1-4H3

> <InChI Key_QSARr>
YJBUXLCNFNPNEB-UHFFFAOYSA-N

> <Salt_Solvent>


> <Salt_Solvent_ID>
0

> <MPID>
99177

> <OH Reference>
BECKER,KH ET AL. (1999)

> <OH>
4.25E-11

> <OH Temperature>
23.0

> <LogOH>
-10.371611069949697

> <Tr_1_Tst_0>
0

$$$$
100672
  Mrv171c012241912032D          

  7  6  0  0  0  0            999 V2000
    0.7176   -0.4688    0.0000 C   0  0  0  0  0  0  0  0  0  0  0  0
    0.0031   -0.0563    0.0000 O   0  0  0  0  0  0  0  0  0  0  0  0
    1.4320   -0.0563    0.0000 C   0  0  0  0  0  0  0  0  0  0  0  0
    2.1465   -0.4688    0.0000 O   0  0  0  0  0  0  0  0  0  0  0  0
    2.8610   -0.0563    0.0000 C   0  0  0  0  0  0  0  0  0  0  0  0
    3.5754   -0.4688    0.0000 C   0  0  0  0  0  0  0  0  0  0  0  0
    4.2899   -0.0563    0.0000 C   0  0  0  0  0  0  0  0  0  0  0  0
  1  2  1  0  0  0  0
  1  3  1  0  0  0  0
  3  4  1  0  0  0  0
  4  5  1  0  0  0  0
  5  6  1  0  0  0  0
  6  7  1  0  0  0  0
M  END
> <ChemID>
100672

> <CAS>
2807-30-9

> <Original_SMILES>
CCCOCCO

> <preferred_name>
2-Propoxyethanol

> <dsstox_substance_id>
DTXSID1027500

> <dsstox_compound_id>
DTXCID707500

> <qc_level>
DSSTox_Low

> <Canonical_QSARr>
CCCOCCO

> <InChI_Code_QSARr>
InChI=1S/C5H12O2/c1-2-4-7-5-3-6/h6H,2-5H2,1H3

> <InChI Key_QSARr>
YEYKMVJDLWJFOA-UHFFFAOYSA-N

> <Salt_Solvent>


> <Salt_Solvent_ID>
0

> <MPID>
99179

> <OH Reference>
KWOK,ESC & ATKINSON,R (1994)

> <OH>
2.140000000000001E-11

> <OH Temperature>
25.0

> <LogOH>
-10.66958622665079

> <Tr_1_Tst_0>
1

$$$$
100673
  Mrv171c012241912032D          

  7  6  0  0  0  0            999 V2000
    1.0018   -0.8709    0.0000 C   0  0  0  0  0  0  0  0  0  0  0  0
    1.4143   -0.1564    0.0000 F   0  0  0  0  0  0  0  0  0  0  0  0
    0.2873   -0.4584    0.0000 F   0  0  0  0  0  0  0  0  0  0  0  0
    1.7163   -1.2834    0.0000 F   0  0  0  0  0  0  0  0  0  0  0  0
    0.5893   -1.5854    0.0000 C   0  0  0  0  0  0  0  0  0  0  0  0
    1.0018   -2.2998    0.0000 F   0  0  0  0  0  0  0  0  0  0  0  0
   -0.2357   -1.5854    0.0000 Cl  0  0  0  0  0  0  0  0  0  0  0  0
  1  2  1  0  0  0  0
  1  3  1  0  0  0  0
  1  4  1  0  0  0  0
  1  5  1  0  0  0  0
  5  6  1  0  0  0  0
  5  7  1  0  0  0  0
M  END
> <ChemID>
100673

> <CAS>
2837-89-0

> <Original_SMILES>
FC(Cl)C(F)(F)F

> <preferred_name>
2-Chloro-1,1,1,2-tetrafluoroethane

> <dsstox_substance_id>
DTXSID7029245

> <dsstox_compound_id>
DTXCID509245

> <qc_level>
DSSTox_Low

> <Canonical_QSARr>
FC(Cl)C(F)(F)F

> <InChI_Code_QSARr>
InChI=1S/C2HClF4/c3-1(4)2(5,6)7/h1H

> <InChI Key_QSARr>
BOUGCJDAQLKBQH-UHFFFAOYSA-N

> <Salt_Solvent>


> <Salt_Solvent_ID>
0

> <MPID>
99180

> <OH Reference>
KWOK,ESC & ATKINSON,R (1994)

> <OH>
9.500000000000002E-15

> <OH Temperature>
25.0

> <LogOH>
-14.022276394711156

> <Tr_1_Tst_0>
1

$$$$
100674
  Mrv171c012241912032D          

  8  7  0  0  0  0            999 V2000
    1.1342   -1.2289    0.0000 P   0  0  0  0  0  0  0  0  0  0  0  0
    1.8487   -1.6414    0.0000 S   0  0  0  0  0  0  0  0  0  0  0  0
    2.5632   -1.2289    0.0000 C   0  0  0  0  0  0  0  0  0  0  0  0
    1.5467   -0.5144    0.0000 S   0  0  0  0  0  0  0  0  0  0  0  0
    0.4198   -0.8164    0.0000 O   0  0  0  0  0  0  0  0  0  0  0  0
   -0.2947   -1.2289    0.0000 C   0  0  0  0  0  0  0  0  0  0  0  0
    0.7217   -1.9433    0.0000 O   0  0  0  0  0  0  0  0  0  0  0  0
   -0.1033   -1.9433    0.0000 C   0  0  0  0  0  0  0  0  0  0  0  0
  1  2  1  0  0  0  0
  2  3  1  0  0  0  0
  1  4  2  0  0  0  0
  1  5  1  0  0  0  0
  5  6  1  0  0  0  0
  1  7  1  0  0  0  0
  7  8  1  0  0  0  0
M  END
> <ChemID>
100674

> <CAS>
2953-29-9

> <Original_SMILES>
CSP(=S)(OC)OC

> <preferred_name>
O,O,S- Trimethyl dithiophosphate

> <dsstox_substance_id>
DTXSID2042226

> <dsstox_compound_id>
DTXCID0022226

> <qc_level>
DSSTox_Low

> <Canonical_QSARr>
CSP(=S)(OC)OC

> <InChI_Code_QSARr>
InChI=1S/C3H9O2PS2/c1-4-6(7,5-2)8-3/h1-3H3

> <InChI Key_QSARr>
ILDHFYGNYDICFB-UHFFFAOYSA-N

> <Salt_Solvent>


> <Salt_Solvent_ID>
0

> <MPID>
99181

> <OH Reference>
ATKINSON,R (1989)

> <OH>
5.599999999999999E-11

> <OH Temperature>
25.0

> <LogOH>
-10.2518119729938

> <Tr_1_Tst_0>
1

$$$$
100675
  Mrv171c012241912032D          

  7  6  0  0  0  0            999 V2000
    3.4168   -0.8460    0.0000 S   0  0  0  0  0  0  0  0  0  0  0  0
    3.0043   -1.5605    0.0000 C   0  0  0  0  0  0  0  0  0  0  0  0
    3.0043   -0.1315    0.0000 C   0  0  0  0  0  0  0  0  0  0  0  0
    3.4168    0.5829    0.0000 N   0  0  0  0  0  0  0  0  0  0  0  0
    3.0043    1.2974    0.0000 C   0  0  0  0  0  0  0  0  0  0  0  0
    4.2418    0.5829    0.0000 C   0  0  0  0  0  0  0  0  0  0  0  0
    2.1793   -0.1315    0.0000 O   0  0  0  0  0  0  0  0  0  0  0  0
  1  2  1  0  0  0  0
  1  3  1  0  0  0  0
  3  4  1  0  0  0  0
  4  5  1  0  0  0  0
  4  6  1  0  0  0  0
  3  7  2  0  0  0  0
M  END
> <ChemID>
100675

> <CAS>
3013-02-3

> <Original_SMILES>
CSC(=O)N(C)C

> <preferred_name>
Carbamothioic acid, dimethyl-, S-methyl ester

> <dsstox_substance_id>
DTXSID60184219

> <dsstox_compound_id>
DTXCID20106710

> <qc_level>
Public_Medium

> <Canonical_QSARr>
CSC(=O)N(C)C

> <InChI_Code_QSARr>
InChI=1S/C4H9NOS/c1-5(2)4(6)7-3/h1-3H3

> <InChI Key_QSARr>
GCOMUEMCOXVZNI-UHFFFAOYSA-N

> <Salt_Solvent>


> <Salt_Solvent_ID>
0

> <MPID>
99182

> <OH Reference>
KWOK,ESC ET AL. (1992)

> <OH>
1.33E-11

> <OH Temperature>
25.0

> <LogOH>
-10.876148359032896

> <Tr_1_Tst_0>
0

$$$$
100676
  Mrv171c012241912032D          

  3  2  0  0  0  0            999 V2000
    2.3644   -0.2062    0.0000 O   0  0  0  0  0  0  0  0  0  0  0  0
    1.6500    0.2063    0.0000 C   0  0  0  0  0  0  0  0  0  0  0  0
    3.0789    0.2063    0.0000 O   0  0  0  0  0  0  0  0  0  0  0  0
  1  2  1  0  0  0  0
  1  3  1  0  0  0  0
M  END
> <ChemID>
100676

> <CAS>
3031-73-0

> <Original_SMILES>
COO

> <preferred_name>
Methyl hydroperoxide

> <dsstox_substance_id>
DTXSID10184401

> <dsstox_compound_id>
DTXCID80106892

> <qc_level>
Public_Medium

> <Canonical_QSARr>
COO

> <InChI_Code_QSARr>
InChI=1S/CH4O2/c1-3-2/h2H,1H3

> <InChI Key_QSARr>
MEUKEBNAABNAEX-UHFFFAOYSA-N

> <Salt_Solvent>


> <Salt_Solvent_ID>
0

> <MPID>
99183

> <OH Reference>
ATKINSON,R (1989)

> <OH>
5.54E-12

> <OH Temperature>
25.0

> <LogOH>
-11.256490235271588

> <Tr_1_Tst_0>
1

$$$$
100677
  Mrv171c012241912032D          

  9  9  0  0  0  0            999 V2000
   -0.3572    0.4861    0.0000 C   0  0  0  0  0  0  0  0  0  0  0  0
   -0.8875    1.1181    0.0000 C   0  0  0  0  0  0  0  0  0  0  0  0
    0.1731    1.1181    0.0000 C   0  0  0  0  0  0  0  0  0  0  0  0
   -1.0717    0.0736    0.0000 C   0  0  0  0  0  0  0  0  0  0  0  0
   -1.0717   -0.7514    0.0000 C   0  0  0  0  0  0  0  0  0  0  0  0
   -0.3572   -1.1639    0.0000 C   0  0  0  0  0  0  0  0  0  0  0  0
    0.3572   -0.7514    0.0000 C   0  0  0  0  0  0  0  0  0  0  0  0
    1.0717   -1.1639    0.0000 C   0  0  0  0  0  0  0  0  0  0  0  0
    0.3572    0.0736    0.0000 C   0  0  0  0  0  0  0  0  0  0  0  0
  1  2  1  0  0  0  0
  1  3  1  0  0  0  0
  4  1  1  0  0  0  0
  5  4  1  0  0  0  0
  6  5  1  0  0  0  0
  7  6  1  0  0  0  0
  7  8  1  0  0  0  0
  9  7  1  0  0  0  0
  1  9  1  0  0  0  0
M  END
> <ChemID>
100677

> <CAS>
3073-66-3

> <Original_SMILES>
CC1CC(C)(C)CCC1

> <preferred_name>
1,1,3-Trimethylcyclohexane

> <dsstox_substance_id>
DTXSID60858746

> <dsstox_compound_id>
DTXCID40809478

> <qc_level>
DSSTox_Low

> <Canonical_QSARr>
CC1CC(C)(C)CCC1

> <InChI_Code_QSARr>
InChI=1S/C9H18/c1-8-5-4-6-9(2,3)7-8/h8H,4-7H2,1-3H3

> <InChI Key_QSARr>
PYOLJOJPIPCRDP-UHFFFAOYSA-N

> <Salt_Solvent>


> <Salt_Solvent_ID>
0

> <MPID>
99184

> <OH Reference>
ATKINSON,R (1989)

> <OH>
8.729999999999995E-12

> <OH Temperature>
25.0

> <LogOH>
-11.058985756294414

> <Tr_1_Tst_0>
1

$$$$
100678
  Mrv171c012241912032D          

  7  7  0  0  0  0            999 V2000
    0.3637    1.1143    0.0000 C   0  0  0  0  0  0  0  0  0  0  0  0
    0.3637    1.9393    0.0000 C   0  0  0  0  0  0  0  0  0  0  0  0
    1.0781    2.3518    0.0000 C   0  0  0  0  0  0  0  0  0  0  0  0
   -0.3038    0.6294    0.0000 O   0  0  0  0  0  0  0  0  0  0  0  0
   -0.0488   -0.1553    0.0000 C   0  0  0  0  0  0  0  0  0  0  0  0
    0.7762   -0.1553    0.0000 C   0  0  0  0  0  0  0  0  0  0  0  0
    1.0311    0.6294    0.0000 C   0  0  0  0  0  0  0  0  0  0  0  0
  1  2  1  0  0  0  0
  2  3  1  0  0  0  0
  4  1  1  0  0  0  0
  5  4  1  0  0  0  0
  6  5  2  0  0  0  0
  7  6  1  0  0  0  0
  1  7  2  0  0  0  0
M  END
> <ChemID>
100678

> <CAS>
3208-16-0

> <Original_SMILES>
CCc1ccco1

> <preferred_name>
Furan, 2-ethyl-

> <dsstox_substance_id>
DTXSID7062906

> <dsstox_compound_id>
DTXCID6038451

> <qc_level>
Public_High

> <Canonical_QSARr>
CCC1=CC=CO1

> <InChI_Code_QSARr>
InChI=1S/C6H8O/c1-2-6-4-3-5-7-6/h3-5H,2H2,1H3

> <InChI Key_QSARr>
HLPIHRDZBHXTFJ-UHFFFAOYSA-N

> <Salt_Solvent>


> <Salt_Solvent_ID>
0

> <MPID>
99185

> <OH Reference>
BIERBACH,A ET AL. (1992)

> <OH>
1.08E-10

> <OH Temperature>
27.0

> <LogOH>
-9.966576244513037

> <Tr_1_Tst_0>
1

$$$$
100679
  Mrv171c012241912032D          

  9  8  0  0  0  0            999 V2000
   -0.0095   -0.6415    0.0000 C   0  0  0  0  0  0  0  0  0  0  0  0
    0.7050   -0.2290    0.0000 C   0  0  0  0  0  0  0  0  0  0  0  0
    0.7050    0.5960    0.0000 C   0  0  0  0  0  0  0  0  0  0  0  0
    1.4194   -0.6415    0.0000 C   0  0  0  0  0  0  0  0  0  0  0  0
    2.1339   -0.2290    0.0000 C   0  0  0  0  0  0  0  0  0  0  0  0
    2.8484   -0.6415    0.0000 C   0  0  0  0  0  0  0  0  0  0  0  0
    3.5628   -0.2290    0.0000 C   0  0  0  0  0  0  0  0  0  0  0  0
    4.2773   -0.6415    0.0000 C   0  0  0  0  0  0  0  0  0  0  0  0
    4.9918   -0.2290    0.0000 C   0  0  0  0  0  0  0  0  0  0  0  0
  1  2  1  0  0  0  0
  2  3  1  0  0  0  0
  2  4  1  0  0  0  0
  4  5  1  0  0  0  0
  5  6  1  0  0  0  0
  6  7  1  0  0  0  0
  7  8  1  0  0  0  0
  8  9  1  0  0  0  0
M  END
> <ChemID>
100679

> <CAS>
3221-61-2

> <Original_SMILES>
CCCCCCC(C)C

> <preferred_name>


> <dsstox_substance_id>
DTXSID30863125

> <dsstox_compound_id>
DTXCID20811791

> <qc_level>


> <Canonical_QSARr>
CCCCCCC(C)C

> <InChI_Code_QSARr>
InChI=1S/C9H20/c1-4-5-6-7-8-9(2)3/h9H,4-8H2,1-3H3

> <InChI Key_QSARr>
ZUBZATZOEPUUQF-UHFFFAOYSA-N

> <Salt_Solvent>


> <Salt_Solvent_ID>
0

> <MPID>
99186

> <OH Reference>
ATKINSON,R (1989)

> <OH>
1.01E-11

> <OH Temperature>
25.0

> <LogOH>
-10.995678626217341

> <Tr_1_Tst_0>
0

$$$$
100680
  Mrv171c012241912032D          

  9 10  0  0  0  0            999 V2000
   -0.2421    0.3329    0.0000 C   0  0  0  0  0  0  0  0  0  0  0  0
   -1.0267    0.5879    0.0000 C   0  0  0  0  0  0  0  0  0  0  0  0
   -1.5116   -0.0796    0.0000 C   0  0  0  0  0  0  0  0  0  0  0  0
   -1.0267   -0.7470    0.0000 C   0  0  0  0  0  0  0  0  0  0  0  0
   -0.2421   -0.4921    0.0000 C   0  0  0  0  0  0  0  0  0  0  0  0
    0.4724   -0.9046    0.0000 C   0  0  0  0  0  0  0  0  0  0  0  0
    1.1869   -0.4921    0.0000 C   0  0  0  0  0  0  0  0  0  0  0  0
    1.1869    0.3329    0.0000 C   0  0  0  0  0  0  0  0  0  0  0  0
    0.4724    0.7454    0.0000 C   0  0  0  0  0  0  0  0  0  0  0  0
  2  1  1  0  0  0  0
  3  2  1  0  0  0  0
  4  3  1  0  0  0  0
  5  4  1  0  0  0  0
  5  1  1  0  0  0  0
  6  5  1  0  0  0  0
  7  6  1  0  0  0  0
  8  7  1  0  0  0  0
  9  8  1  0  0  0  0
  1  9  1  0  0  0  0
M  END
> <ChemID>
100680

> <CAS>
3296-50-2

> <Original_SMILES>
C1CC[C@@H]2CCCC[C@H]21

> <preferred_name>
trans-Octahydro-1H-indene

> <dsstox_substance_id>
DTXSID20858747

> <dsstox_compound_id>
DTXCID50809489

> <qc_level>
DSSTox_High

> <Canonical_QSARr>
C1CCC2CCCCC21

> <InChI_Code_QSARr>
InChI=1S/C9H16/c1-2-5-9-7-3-6-8(9)4-1/h8-9H,1-7H2

> <InChI Key_QSARr>
BNRNAKTVFSZAFA-UHFFFAOYSA-N

> <Salt_Solvent>


> <Salt_Solvent_ID>
0

> <MPID>
99187|99204

> <OH Reference>
KWOK,ESC & ATKINSON,R (1994)

> <OH>
1.74E-11

> <OH Temperature>
25.0

> <LogOH>
-10.759450751717415

> <Tr_1_Tst_0>
1

$$$$
100681
  Mrv171c012241912032D          

 10  9  0  0  0  0            999 V2000
    3.3000    0.0000    0.0000 C   0  0  0  0  0  0  0  0  0  0  0  0
    2.4750    0.0000    0.0000 C   0  0  0  0  0  0  0  0  0  0  0  0
    2.0625   -0.7145    0.0000 C   0  0  0  0  0  0  0  0  0  0  0  0
    2.0625    0.7145    0.0000 C   0  0  0  0  0  0  0  0  0  0  0  0
    1.2375    0.7145    0.0000 C   0  0  0  0  0  0  0  0  0  0  0  0
    0.8250    0.0000    0.0000 C   0  0  0  0  0  0  0  0  0  0  0  0
    0.0000    0.0000    0.0000 C   0  0  0  0  0  0  0  0  0  0  0  0
   -0.4125    0.7145    0.0000 C   0  0  0  0  0  0  0  0  0  0  0  0
   -0.4125   -0.7145    0.0000 C   0  0  0  0  0  0  0  0  0  0  0  0
    0.0000   -1.4289    0.0000 C   0  0  0  0  0  0  0  0  0  0  0  0
  1  2  1  0  0  0  0
  2  3  1  0  0  0  0
  2  4  2  0  0  0  0
  4  5  1  0  0  0  0
  6  5  1  4  0  0  0
  6  7  2  0  0  0  0
  7  8  1  0  0  0  0
  7  9  1  0  0  0  0
  9 10  2  0  0  0  0
M  END
> <ChemID>
100681

> <CAS>
3338-55-4|3779-61-1|13877-91-3

> <Original_SMILES>
CC(C)=CC/C=C(/C)\C=C

> <preferred_name>
(Z)-3,7-Dimethylocta-1,3,6,-triene|Ocimene (E)|Ocimene

> <dsstox_substance_id>
DTXSID3052018|DTXSID8040567|DTXSID70274135

> <dsstox_compound_id>
DTXCID0030582|DTXCID6020567|DTXCID1027051

> <qc_level>
DSSTox_High

> <Canonical_QSARr>
CC(C)=CCC=C(C)C=C

> <InChI_Code_QSARr>
InChI=1S/C10H16/c1-5-10(4)8-6-7-9(2)3/h5,7-8H,1,6H2,2-4H3

> <InChI Key_QSARr>
IHPKGUQCSIINRJ-UHFFFAOYSA-N

> <Salt_Solvent>


> <Salt_Solvent_ID>
0

> <MPID>
99188|99196|99233

> <OH Reference>


> <OH>
2.52E-10

> <OH Temperature>
25.0

> <LogOH>
-9.598599459218445

> <Tr_1_Tst_0>
1

$$$$
100682
  Mrv171c012241912032D          

 10 11  0  0  0  0            999 V2000
    2.8631   -1.7084    0.0000 C   0  0  0  0  0  0  0  0  0  0  0  0
    2.3782   -1.0410    0.0000 C   0  0  0  0  0  0  0  0  0  0  0  0
    1.5935   -1.2959    0.0000 C   0  0  0  0  0  0  0  0  0  0  0  0
    1.2580   -0.5423    0.0000 C   0  0  0  0  0  0  0  0  0  0  0  0
    0.4375   -0.4560    0.0000 C   0  0  0  0  0  0  0  0  0  0  0  0
    1.7429    0.1252    0.0000 C   0  0  0  0  0  0  0  0  0  0  0  0
    0.8791   -1.7084    0.0000 C   0  0  0  0  0  0  0  0  0  0  0  0
    1.5935   -2.1209    0.0000 C   0  0  0  0  0  0  0  0  0  0  0  0
    2.3782   -2.3759    0.0000 C   0  0  0  0  0  0  0  0  0  0  0  0
    2.6331   -3.1605    0.0000 C   0  0  0  0  0  0  0  0  0  0  0  0
  2  1  1  0  0  0  0
  3  2  1  0  0  0  0
  3  4  1  0  0  0  0
  4  5  1  0  0  0  0
  4  6  1  0  0  0  0
  3  7  1  0  0  0  0
  7  8  1  0  0  0  0
  8  3  1  0  0  0  0
  9  8  1  0  0  0  0
  1  9  1  0  0  0  0
  9 10  2  0  0  0  0
M  END
> <ChemID>
100682

> <CAS>
3387-41-5

> <Original_SMILES>
CC(C)C12CCC(=C)C1C2

> <preferred_name>


> <dsstox_substance_id>
DTXSID70863164

> <dsstox_compound_id>
DTXCID301341343

> <qc_level>


> <Canonical_QSARr>
CC(C)C12CCC(=C)C1C2

> <InChI_Code_QSARr>
InChI=1S/C10H16/c1-7(2)10-5-4-8(3)9(10)6-10/h7,9H,3-6H2,1-2H3

> <InChI Key_QSARr>
NDVASEGYNIMXJL-UHFFFAOYSA-N

> <Salt_Solvent>


> <Salt_Solvent_ID>
0

> <MPID>
99189

> <OH Reference>
ATKINSON,R ET AL. (1990A)

> <OH>
1.17E-10

> <OH Temperature>
25.0

> <LogOH>
-9.931814138253841

> <Tr_1_Tst_0>
1

$$$$
100683
  Mrv171c012241912032D          

  7  6  0  0  0  0            999 V2000
    2.3844   -1.8144    0.0000 C   0  0  0  0  0  0  0  0  0  0  0  0
    1.9719   -1.1000    0.0000 C   0  0  0  0  0  0  0  0  0  0  0  0
    2.3844   -0.3855    0.0000 O   0  0  0  0  0  0  0  0  0  0  0  0
    1.1469   -1.1000    0.0000 C   0  0  0  0  0  0  0  0  0  0  0  0
    0.7344   -1.8144    0.0000 C   0  0  0  0  0  0  0  0  0  0  0  0
    0.7344   -0.3855    0.0000 C   0  0  0  0  0  0  0  0  0  0  0  0
   -0.0906   -0.3855    0.0000 O   0  0  0  0  0  0  0  0  0  0  0  0
  1  2  1  0  0  0  0
  2  3  2  0  0  0  0
  2  4  1  0  0  0  0
  4  5  1  0  0  0  0
  4  6  1  0  0  0  0
  6  7  1  0  0  0  0
M  END
> <ChemID>
100683

> <CAS>
NOCAS_871018

> <Original_SMILES>
CC(CO)C(C)=O

> <preferred_name>


> <dsstox_substance_id>
DTXSID80871018

> <dsstox_compound_id>
DTXCID10818693

> <qc_level>


> <Canonical_QSARr>
CC(CO)C(C)=O

> <InChI_Code_QSARr>
InChI=1S/C5H10O2/c1-4(3-6)5(2)7/h4,6H,3H2,1-2H3

> <InChI Key_QSARr>
VVSRECWZBBJOTG-UHFFFAOYSA-N

> <Salt_Solvent>


> <Salt_Solvent_ID>
0

> <MPID>
99190

> <OH Reference>
ASCHMANN,SM ET AL. (2000)

> <OH>
1.62E-11

> <OH Temperature>
23.0

> <LogOH>
-10.790484985457363

> <Tr_1_Tst_0>
0

$$$$
100684
  Mrv171c012241912032D          

  6  6  0  0  0  0            999 V2000
    2.6763   -0.3118    0.0000 C   0  0  0  0  0  0  0  0  0  0  0  0
    2.6763    0.5132    0.0000 C   0  0  0  0  0  0  0  0  0  0  0  0
    3.3908    0.9257    0.0000 C   0  0  0  0  0  0  0  0  0  0  0  0
    1.9618    0.9257    0.0000 C   0  0  0  0  0  0  0  0  0  0  0  0
    2.2638   -1.0263    0.0000 C   0  0  0  0  0  0  0  0  0  0  0  0
    3.0888   -1.0263    0.0000 C   0  0  0  0  0  0  0  0  0  0  0  0
  1  2  1  0  0  0  0
  2  3  1  0  0  0  0
  2  4  1  0  0  0  0
  5  1  1  0  0  0  0
  6  5  1  0  0  0  0
  1  6  1  0  0  0  0
M  END
> <ChemID>
100684

> <CAS>
3638-35-5

> <Original_SMILES>
CC(C)C1CC1

> <preferred_name>
Cyclopropane, (1-methylethyl)-

> <dsstox_substance_id>
DTXSID20189907

> <dsstox_compound_id>
DTXCID40112398

> <qc_level>
Public_Medium

> <Canonical_QSARr>
CC(C)C1CC1

> <InChI_Code_QSARr>
InChI=1S/C6H12/c1-5(2)6-3-4-6/h5-6H,3-4H2,1-2H3

> <InChI Key_QSARr>
HPBROFGYTXOJIO-UHFFFAOYSA-N

> <Salt_Solvent>


> <Salt_Solvent_ID>
0

> <MPID>
99191

> <OH Reference>
ATKINSON,R (1989)

> <OH>
2.839999999999998E-12

> <OH Temperature>
25.0

> <LogOH>
-11.546681659952947

> <Tr_1_Tst_0>
1

$$$$
100685
  Mrv171c012241912032D          

  5  4  0  0  0  0            999 V2000
    0.8250    1.4289    0.0000 C   0  0  0  0  0  0  0  0  0  0  0  0
    1.2375    0.7145    0.0000 C   0  0  0  0  0  0  0  0  0  0  0  0
    0.8250    0.0000    0.0000 N   0  3  0  0  0  0  0  0  0  0  0  0
    1.2375   -0.7145    0.0000 O   0  5  0  0  0  0  0  0  0  0  0  0
    0.0000    0.0000    0.0000 O   0  0  0  0  0  0  0  0  0  0  0  0
  1  2  2  0  0  0  0
  2  3  1  0  0  0  0
  3  4  1  0  0  0  0
  3  5  2  0  0  0  0
M  CHG  2   3   1   4  -1
M  END
> <ChemID>
100685

> <CAS>
3638-64-0

> <Original_SMILES>
C=C[N+]([O-])=O

> <preferred_name>
Ethene, nitro-

> <dsstox_substance_id>
DTXSID0075235

> <dsstox_compound_id>
DTXCID8039166

> <qc_level>
Public_High

> <Canonical_QSARr>
C=C[N+]([O-])=O

> <InChI_Code_QSARr>
InChI=1S/C2H3NO2/c1-2-3(4)5/h2H,1H2

> <InChI Key_QSARr>
RPMXALUWKZHYOV-UHFFFAOYSA-N

> <Salt_Solvent>


> <Salt_Solvent_ID>
0

> <MPID>
99192

> <OH Reference>
ATKINSON,R (1994)

> <OH>
1.2E-12

> <OH Temperature>
25.0

> <LogOH>
-11.920818753952377

> <Tr_1_Tst_0>
1

$$$$
100687
  Mrv171c012241912032D          

 10  9  0  0  0  0            999 V2000
   -2.3349    1.1270    0.0000 C   0  0  0  0  0  0  0  0  0  0  0  0
   -1.6204    0.7145    0.0000 C   0  0  0  0  0  0  0  0  0  0  0  0
   -0.9059    1.1270    0.0000 C   0  0  0  0  0  0  0  0  0  0  0  0
   -0.1914    0.7145    0.0000 C   0  0  0  0  0  0  0  0  0  0  0  0
    0.5230    1.1270    0.0000 C   0  0  0  0  0  0  0  0  0  0  0  0
    1.2375    0.7145    0.0000 C   0  0  0  0  0  0  0  0  0  0  0  0
    1.9520    1.1270    0.0000 O   0  0  0  0  0  0  0  0  0  0  0  0
    2.6664    0.7145    0.0000 C   0  0  0  0  0  0  0  0  0  0  0  0
    3.3809    1.1270    0.0000 C   0  0  0  0  0  0  0  0  0  0  0  0
    2.6664   -0.1105    0.0000 O   0  0  0  0  0  0  0  0  0  0  0  0
  1  2  1  0  0  0  0
  3  2  1  4  0  0  0
  3  4  2  0  0  0  0
  4  5  1  0  0  0  0
  5  6  1  0  0  0  0
  6  7  1  0  0  0  0
  7  8  1  0  0  0  0
  8  9  1  0  0  0  0
  8 10  2  0  0  0  0
M  END
> <ChemID>
100687

> <CAS>
3681-71-8

> <Original_SMILES>
CC/C=C\CCOC(C)=O

> <preferred_name>
(3Z)-3-Hexenyl acetate

> <dsstox_substance_id>
DTXSID0041484

> <dsstox_compound_id>
DTXCID8021484

> <qc_level>
DSSTox_Low

> <Canonical_QSARr>
CCC=CCCOC(C)=O

> <InChI_Code_QSARr>
InChI=1S/C8H14O2/c1-3-4-5-6-7-10-8(2)9/h4-5H,3,6-7H2,1-2H3

> <InChI Key_QSARr>
NPFVOOAXDOBMCE-UHFFFAOYSA-N

> <Salt_Solvent>


> <Salt_Solvent_ID>
0

> <MPID>
99194

> <OH Reference>
ATKINSON,R ET AL. (1995)

> <OH>
7.8E-11

> <OH Temperature>
25.0

> <LogOH>
-10.107905397309537

> <Tr_1_Tst_0>
1

$$$$
100688
  Mrv171c012241912032D          

  6  5  0  0  0  0            999 V2000
    0.8242    0.2371    0.0000 C   0  0  0  0  0  0  0  0  0  0  0  0
    1.2367   -0.4773    0.0000 N   0  0  0  0  0  0  0  0  0  0  0  0
    0.8242   -1.1918    0.0000 O   0  0  0  0  0  0  0  0  0  0  0  0
    2.0617   -0.4773    0.0000 C   0  0  0  0  0  0  0  0  0  0  0  0
    2.4742   -1.1918    0.0000 C   0  0  0  0  0  0  0  0  0  0  0  0
   -0.0008    0.2371    0.0000 C   0  0  0  0  0  0  0  0  0  0  0  0
  1  2  1  0  0  0  0
  2  3  1  0  0  0  0
  2  4  1  0  0  0  0
  4  5  1  0  0  0  0
  1  6  1  0  0  0  0
M  END
> <ChemID>
100688

> <CAS>
3710-84-7

> <Original_SMILES>
CCN(O)CC

> <preferred_name>
N,N-Diethylhydroxylamine

> <dsstox_substance_id>
DTXSID2027543

> <dsstox_compound_id>
DTXCID107543

> <qc_level>
DSSTox_Low

> <Canonical_QSARr>
CCN(O)CC

> <InChI_Code_QSARr>
InChI=1S/C4H11NO/c1-3-5(6)4-2/h6H,3-4H2,1-2H3

> <InChI Key_QSARr>
FVCOIAYSJZGECG-UHFFFAOYSA-N

> <Salt_Solvent>


> <Salt_Solvent_ID>
0

> <MPID>
99195

> <OH Reference>
ATKINSON,R (1989)

> <OH>
1.01E-10

> <OH Temperature>
25.0

> <LogOH>
-9.99567862621736

> <Tr_1_Tst_0>
0

$$$$
100690
  Mrv171c012241912032D          

  8  7  0  0  0  0            999 V2000
    0.5193    0.1095    0.0000 C   0  0  0  0  0  0  0  0  0  0  0  0
    0.1068    0.8240    0.0000 F   0  0  0  0  0  0  0  0  0  0  0  0
   -0.1951   -0.3030    0.0000 F   0  0  0  0  0  0  0  0  0  0  0  0
    1.2338    0.5220    0.0000 F   0  0  0  0  0  0  0  0  0  0  0  0
    0.9318   -0.6049    0.0000 O   0  0  0  0  0  0  0  0  0  0  0  0
    0.5193   -1.3194    0.0000 C   0  0  0  0  0  0  0  0  0  0  0  0
    0.9318   -2.0339    0.0000 F   0  0  0  0  0  0  0  0  0  0  0  0
   -0.3057   -1.3194    0.0000 F   0  0  0  0  0  0  0  0  0  0  0  0
  1  2  1  0  0  0  0
  1  3  1  0  0  0  0
  1  4  1  0  0  0  0
  1  5  1  0  0  0  0
  5  6  1  0  0  0  0
  6  7  1  0  0  0  0
  6  8  1  0  0  0  0
M  END
> <ChemID>
100690

> <CAS>
3822-68-2

> <Original_SMILES>
FC(F)OC(F)(F)F

> <preferred_name>
Methane, (difluoromethoxy)trifluoro-

> <dsstox_substance_id>
DTXSID4073968

> <dsstox_compound_id>
DTXCID7039462

> <qc_level>
Public_High

> <Canonical_QSARr>
FC(F)OC(F)(F)F

> <InChI_Code_QSARr>
InChI=1S/C2HF5O/c3-1(4)8-2(5,6)7/h1H

> <InChI Key_QSARr>
ACYQYBAHTSKBLM-UHFFFAOYSA-N

> <Salt_Solvent>


> <Salt_Solvent_ID>
0

> <MPID>
99197

> <OH Reference>
KWOK,ESC & ATKINSON,R (1994)

> <OH>
3.5E-15

> <OH Temperature>
25.0

> <LogOH>
-14.455931955649715

> <Tr_1_Tst_0>
1

$$$$
100691
  Mrv171c012241912032D          

 15 17  0  0  0  0            999 V2000
    3.6934   -1.1042    0.0000 C   0  0  0  0  0  0  0  0  0  0  0  0
    3.7454   -1.9276    0.0000 C   0  0  0  0  0  0  0  0  0  0  0  0
    2.8664   -1.0771    0.0000 C   0  0  0  0  0  0  0  0  0  0  0  0
    2.5816   -0.2967    0.0000 C   0  0  0  0  0  0  0  0  0  0  0  0
    3.1394    0.3476    0.0000 C   0  0  0  0  0  0  0  0  0  0  0  0
    2.9434    1.1490    0.0000 C   0  0  0  0  0  0  0  0  0  0  0  0
    2.1514    1.3799    0.0000 C   0  0  0  0  0  0  0  0  0  0  0  0
    3.5394    1.7194    0.0000 C   0  0  0  0  0  0  0  0  0  0  0  0
    3.9483    0.0268    0.0000 C   0  0  0  0  0  0  0  0  0  0  0  0
    4.2676   -0.3544    0.0000 C   0  0  0  0  0  0  0  0  0  0  0  0
    4.9534    0.2766    0.0000 C   0  0  0  0  0  0  0  0  0  0  0  0
    4.9739    1.1014    0.0000 C   0  0  0  0  0  0  0  0  0  0  0  0
    5.5480   -0.3277    0.0000 C   0  0  0  0  0  0  0  0  0  0  0  0
    5.2185   -1.0874    0.0000 C   0  0  0  0  0  0  0  0  0  0  0  0
    4.3946   -0.9919    0.0000 C   0  0  0  0  0  0  0  0  0  0  0  0
  1  2  1  0  0  0  0
  3  1  1  0  0  0  0
  4  3  1  0  0  0  0
  5  4  1  0  0  0  0
  5  6  1  0  0  0  0
  6  7  1  0  0  0  0
  6  8  1  0  0  0  0
  9  5  1  0  0  0  0
  9 10  1  0  0  0  0
 10  1  1  0  0  0  0
 10 11  1  0  0  0  0
 11 12  1  0  0  0  0
 11 13  2  0  0  0  0
 13 14  1  0  0  0  0
 14 15  1  0  0  0  0
  1 15  1  0  0  0  0
 15  9  1  0  0  0  0
M  END
> <ChemID>
100691

> <CAS>
947-59-1

> <Original_SMILES>
CC(C)[C@H]1CC[C@]2(C)[C@@H]3[C@H]1[C@H]2CC=C3C

> <preferred_name>
UNII-78123715A8

> <dsstox_substance_id>
DTXSID20348370

> <dsstox_compound_id>
DTXCID50299442

> <qc_level>
Public_Low

> <Canonical_QSARr>
CC(C)C1CCC2(C)C3C1C2CC=C3C

> <InChI_Code_QSARr>
InChI=1S/C15H24/c1-9(2)11-7-8-15(4)12-6-5-10(3)14(15)13(11)12/h5,9,11-14H,6-8H2,1-4H3

> <InChI Key_QSARr>
VLXDPFLIRFYIME-UHFFFAOYSA-N

> <Salt_Solvent>


> <Salt_Solvent_ID>
0

> <MPID>
99198

> <OH Reference>
SHU,Y & ATKINSON,R (1995)

> <OH>
8.999999999999997E-11

> <OH Temperature>
23.0

> <LogOH>
-10.045757490560682

> <Tr_1_Tst_0>
1

$$$$
100692
  Mrv171c012241912032D          

  7  6  0  0  0  0            999 V2000
    3.0790   -0.0884    0.0000 C   0  0  0  0  0  0  0  0  0  0  0  0
    2.3645    0.3241    0.0000 C   0  0  0  0  0  0  0  0  0  0  0  0
    1.6500   -0.0884    0.0000 C   0  0  0  0  0  0  0  0  0  0  0  0
    2.3645    1.1491    0.0000 C   0  0  0  0  0  0  0  0  0  0  0  0
    3.7934    0.3241    0.0000 C   0  0  0  0  0  0  0  0  0  0  0  0
    4.5079   -0.0884    0.0000 C   0  0  0  0  0  0  0  0  0  0  0  0
    5.2224    0.3241    0.0000 C   0  0  0  0  0  0  0  0  0  0  0  0
  1  2  1  0  0  0  0
  2  3  2  0  0  0  0
  2  4  1  0  0  0  0
  1  5  1  0  0  0  0
  5  6  1  0  0  0  0
  6  7  2  0  0  0  0
M  END
> <ChemID>
100692

> <CAS>
4049-81-4

> <Original_SMILES>
CC(=C)CCC=C

> <preferred_name>
2-Methylhexa-1,5-diene

> <dsstox_substance_id>
DTXSID00193502

> <dsstox_compound_id>
DTXCID70115993

> <qc_level>
Public_Medium

> <Canonical_QSARr>
CC(=C)CCC=C

> <InChI_Code_QSARr>
InChI=1S/C7H12/c1-4-5-6-7(2)3/h4H,1-2,5-6H2,3H3

> <InChI Key_QSARr>
SLQMKNPIYMOEGB-UHFFFAOYSA-N

> <Salt_Solvent>


> <Salt_Solvent_ID>
0

> <MPID>
99199

> <OH Reference>
KWOK,ESC & ATKINSON,R (1994)

> <OH>
9.600000000000002E-11

> <OH Temperature>
25.0

> <LogOH>
-10.017728766960426

> <Tr_1_Tst_0>
1

$$$$
100693
  Mrv171c012241912032D          

  7  7  0  0  0  0            999 V2000
    3.2499    0.5928    0.0000 C   0  0  0  0  0  0  0  0  0  0  0  0
    2.5066    0.9507    0.0000 C   0  0  0  0  0  0  0  0  0  0  0  0
    1.7633    0.5928    0.0000 C   0  0  0  0  0  0  0  0  0  0  0  0
    1.5797   -0.2116    0.0000 C   0  0  0  0  0  0  0  0  0  0  0  0
    2.0941   -0.8566    0.0000 C   0  0  0  0  0  0  0  0  0  0  0  0
    2.9191   -0.8566    0.0000 C   0  0  0  0  0  0  0  0  0  0  0  0
    3.4335   -0.2116    0.0000 C   0  0  0  0  0  0  0  0  0  0  0  0
  2  1  1  0  0  0  0
  3  2  1  0  0  0  0
  4  3  2  0  0  0  0
  5  4  1  0  0  0  0
  6  5  2  0  0  0  0
  7  6  1  0  0  0  0
  1  7  1  0  0  0  0
M  END
> <ChemID>
100693

> <CAS>
4054-38-0

> <Original_SMILES>
C1CCC=CC=C1

> <preferred_name>
Cyclohepta-1,3-diene

> <dsstox_substance_id>
DTXSID40193566

> <dsstox_compound_id>
DTXCID80116057

> <qc_level>
Public_Medium

> <Canonical_QSARr>
C1CCC=CC=C1

> <InChI_Code_QSARr>
InChI=1S/C7H10/c1-2-4-6-7-5-3-1/h1-4H,5-7H2

> <InChI Key_QSARr>
GWYPDXLJACEENP-UHFFFAOYSA-N

> <Salt_Solvent>


> <Salt_Solvent_ID>
0

> <MPID>
99200

> <OH Reference>
ATKINSON,R (1989)

> <OH>
1.39E-10

> <OH Temperature>
25.0

> <LogOH>
-9.856985199745923

> <Tr_1_Tst_0>
0

$$$$
100694
  Mrv171c012241912032D          

  6  5  0  0  0  0            999 V2000
    1.2370   -2.1431    0.0000 O   0  5  0  0  0  0  0  0  0  0  0  0
    0.8245   -1.4286    0.0000 N   0  3  0  0  0  0  0  0  0  0  0  0
    1.2370   -0.7141    0.0000 N   0  0  0  0  0  0  0  0  0  0  0  0
    0.8245    0.0003    0.0000 C   0  0  0  0  0  0  0  0  0  0  0  0
    2.0620   -0.7141    0.0000 C   0  0  0  0  0  0  0  0  0  0  0  0
   -0.0005   -1.4286    0.0000 O   0  0  0  0  0  0  0  0  0  0  0  0
  1  2  1  0  0  0  0
  2  3  1  0  0  0  0
  3  4  1  0  0  0  0
  3  5  1  0  0  0  0
  2  6  2  0  0  0  0
M  CHG  2   1  -1   2   1
M  END
> <ChemID>
100694

> <CAS>
4164-28-7

> <Original_SMILES>
CN(C)[N+]([O-])=O

> <preferred_name>
Dimethylnitramine

> <dsstox_substance_id>
DTXSID6020519

> <dsstox_compound_id>
DTXCID40519

> <qc_level>
DSSTox_Low

> <Canonical_QSARr>
CN(C)[N+]([O-])=O

> <InChI_Code_QSARr>
InChI=1S/C2H6N2O2/c1-3(2)4(5)6/h1-2H3

> <InChI Key_QSARr>
XRWKADIRZXTTLH-UHFFFAOYSA-N

> <Salt_Solvent>


> <Salt_Solvent_ID>
0

> <MPID>
99201

> <OH Reference>
ATKINSON,R (1989)

> <OH>
3.840000000000001E-12

> <OH Temperature>
25.0

> <LogOH>
-11.415668775632463

> <Tr_1_Tst_0>
1

$$$$
100696
  Mrv171c012241912032D          

  6  5  0  0  0  0            999 V2000
    1.2375    0.7145    0.0000 C   0  0  0  0  0  0  0  0  0  0  0  0
    0.8250    0.0000    0.0000 C   0  0  0  0  0  0  0  0  0  0  0  0
    0.0000    0.0000    0.0000 C   0  0  0  0  0  0  0  0  0  0  0  0
   -0.4125    0.7145    0.0000 C   0  0  0  0  0  0  0  0  0  0  0  0
   -0.4125   -0.7145    0.0000 C   0  0  0  0  0  0  0  0  0  0  0  0
    0.0000   -1.4289    0.0000 C   0  0  0  0  0  0  0  0  0  0  0  0
  2  1  1  4  0  0  0
  2  3  2  0  0  0  0
  3  4  1  0  0  0  0
  3  5  1  0  0  0  0
  5  6  2  0  0  0  0
M  END
> <ChemID>
100696

> <CAS>
NOCAS_871089

> <Original_SMILES>
CC=C(C)C=C

> <preferred_name>


> <dsstox_substance_id>
DTXSID90871089

> <dsstox_compound_id>
DTXCID80818761

> <qc_level>


> <Canonical_QSARr>
CC=C(C)C=C

> <InChI_Code_QSARr>
InChI=1S/C6H10/c1-4-6(3)5-2/h4-5H,1H2,2-3H3

> <InChI Key_QSARr>
BOGRNZQRTNVZCZ-UHFFFAOYSA-N

> <Salt_Solvent>


> <Salt_Solvent_ID>
0

> <MPID>
99203

> <OH Reference>
ATKINSON,R (1989)

> <OH>
1.36E-10

> <OH Temperature>
25.0

> <LogOH>
-9.866461091629784

> <Tr_1_Tst_0>
1

$$$$
100698
  Mrv171c012241912032D          

  8  7  0  0  0  0            999 V2000
    0.0007   -1.2470    0.0000 C   0  0  0  0  0  0  0  0  0  0  0  0
    0.7152   -0.8345    0.0000 C   0  0  0  0  0  0  0  0  0  0  0  0
    1.4297   -1.2470    0.0000 C   0  0  0  0  0  0  0  0  0  0  0  0
    1.4297   -2.0720    0.0000 O   0  0  0  0  0  0  0  0  0  0  0  0
    2.1441   -0.8345    0.0000 C   0  0  0  0  0  0  0  0  0  0  0  0
    2.1441   -0.0095    0.0000 O   0  0  0  0  0  0  0  0  0  0  0  0
    2.8586   -1.2470    0.0000 C   0  0  0  0  0  0  0  0  0  0  0  0
    3.5731   -0.8345    0.0000 C   0  0  0  0  0  0  0  0  0  0  0  0
  1  2  1  0  0  0  0
  2  3  1  0  0  0  0
  3  4  2  0  0  0  0
  3  5  1  0  0  0  0
  5  6  1  0  0  0  0
  5  7  1  0  0  0  0
  7  8  1  0  0  0  0
M  END
> <ChemID>
100698

> <CAS>
4984-85-4

> <Original_SMILES>
CCC(=O)C(O)CC

> <preferred_name>


> <dsstox_substance_id>
DTXSID40863474

> <dsstox_compound_id>
DTXCID10812090

> <qc_level>


> <Canonical_QSARr>
CCC(=O)C(O)CC

> <InChI_Code_QSARr>
InChI=1S/C6H12O2/c1-3-5(7)6(8)4-2/h5,7H,3-4H2,1-2H3

> <InChI Key_QSARr>
SKCYVGUCBRYGTE-UHFFFAOYSA-N

> <Salt_Solvent>


> <Salt_Solvent_ID>
0

> <MPID>
99205

> <OH Reference>
ASCHMANN,SM ET AL. (2000)

> <OH>
1.51E-11

> <OH Temperature>
23.0

> <LogOH>
-10.821023052706844

> <Tr_1_Tst_0>
1

$$$$
100699
  Mrv171c012241912032D          

  6  5  0  0  0  0            999 V2000
    1.2375   -2.1434    0.0000 C   0  0  0  0  0  0  0  0  0  0  0  0
    1.6500   -1.4289    0.0000 C   0  0  0  0  0  0  0  0  0  0  0  0
    1.2375   -0.7145    0.0000 C   0  0  0  0  0  0  0  0  0  0  0  0
    1.6500    0.0000    0.0000 C   0  0  0  0  0  0  0  0  0  0  0  0
    1.2375    0.7145    0.0000 O   0  0  0  0  0  0  0  0  0  0  0  0
    0.4125   -0.7145    0.0000 O   0  0  0  0  0  0  0  0  0  0  0  0
  1  2  1  0  0  0  0
  2  3  1  0  0  0  0
  3  4  1  0  0  0  0
  4  5  1  0  0  0  0
  3  6  2  0  0  0  0
M  END
> <ChemID>
100699

> <CAS>
5077-67-8

> <Original_SMILES>
CCC(=O)CO

> <preferred_name>
2-Butanone, 1-hydroxy-

> <dsstox_substance_id>
DTXSID1063693

> <dsstox_compound_id>
DTXCID6040905

> <qc_level>
Public_High

> <Canonical_QSARr>
CCC(=O)CO

> <InChI_Code_QSARr>
InChI=1S/C4H8O2/c1-2-4(6)3-5/h5H,2-3H2,1H3

> <InChI Key_QSARr>
GFAZHVHNLUBROE-UHFFFAOYSA-N

> <Salt_Solvent>


> <Salt_Solvent_ID>
0

> <MPID>
99206

> <OH Reference>
ASCHMANN,SM ET AL. (2000)

> <OH>
7.7E-12

> <OH Temperature>
23.0

> <LogOH>
-11.113509274827512

> <Tr_1_Tst_0>
0

$$$$
100700
  Mrv171c012241912032D          

  9  8  0  0  0  0            999 V2000
    3.1588   -0.0025    0.0000 C   0  0  0  0  0  0  0  0  0  0  0  0
    2.4443   -0.4150    0.0000 O   0  0  0  0  0  0  0  0  0  0  0  0
    1.7298   -0.0025    0.0000 C   0  0  0  0  0  0  0  0  0  0  0  0
    1.0153   -0.4150    0.0000 C   0  0  0  0  0  0  0  0  0  0  0  0
    0.3009   -0.0025    0.0000 C   0  0  0  0  0  0  0  0  0  0  0  0
   -0.4136   -0.4150    0.0000 C   0  0  0  0  0  0  0  0  0  0  0  0
    3.8732   -0.4150    0.0000 C   0  0  0  0  0  0  0  0  0  0  0  0
    4.5877   -0.0025    0.0000 O   0  0  0  0  0  0  0  0  0  0  0  0
    3.8732   -1.2400    0.0000 C   0  0  0  0  0  0  0  0  0  0  0  0
  1  2  1  0  0  0  0
  2  3  1  0  0  0  0
  3  4  1  0  0  0  0
  4  5  1  0  0  0  0
  5  6  1  0  0  0  0
  1  7  1  0  0  0  0
  7  8  1  0  0  0  0
  7  9  1  0  0  0  0
M  END
> <ChemID>
100700

> <CAS>
5131-66-8

> <Original_SMILES>
CCCCOCC(C)O

> <preferred_name>
1-Butoxy-2-propanol

> <dsstox_substance_id>
DTXSID8027589

> <dsstox_compound_id>
DTXCID707589

> <qc_level>
DSSTox_Low

> <Canonical_QSARr>
CCCCOCC(C)O

> <InChI_Code_QSARr>
InChI=1S/C7H16O2/c1-3-4-5-9-6-7(2)8/h7-8H,3-6H2,1-2H3

> <InChI Key_QSARr>
RWNUSVWFHDHRCJ-UHFFFAOYSA-N

> <Salt_Solvent>


> <Salt_Solvent_ID>
0

> <MPID>
99207

> <OH Reference>
ASCHMANN,SM ET AL. (2001)

> <OH>
3.760000000000001E-11

> <OH Temperature>
23.0

> <LogOH>
-10.424812155072338

> <Tr_1_Tst_0>
1

$$$$
100703
  Mrv171c012241912032D          

 10 10  0  0  0  0            999 V2000
    1.4322   -3.0273    0.0000 C   0  0  0  0  0  0  0  0  0  0  0  0
    1.4322   -3.8523    0.0000 C   0  0  0  0  0  0  0  0  0  0  0  0
    2.1466   -2.6148    0.0000 C   0  0  0  0  0  0  0  0  0  0  0  0
    2.1466   -1.7898    0.0000 C   0  0  0  0  0  0  0  0  0  0  0  0
    1.4322   -1.3773    0.0000 C   0  0  0  0  0  0  0  0  0  0  0  0
    1.4322   -0.5523    0.0000 C   0  0  0  0  0  0  0  0  0  0  0  0
    0.7177   -0.1398    0.0000 C   0  0  0  0  0  0  0  0  0  0  0  0
    2.1466   -0.1398    0.0000 O   0  0  0  0  0  0  0  0  0  0  0  0
    0.7177   -1.7898    0.0000 C   0  0  0  0  0  0  0  0  0  0  0  0
    0.7177   -2.6148    0.0000 C   0  0  0  0  0  0  0  0  0  0  0  0
  1  2  1  0  0  0  0
  3  1  1  0  0  0  0
  4  3  1  0  0  0  0
  5  4  1  0  0  0  0
  5  6  1  0  0  0  0
  6  7  1  0  0  0  0
  6  8  2  0  0  0  0
  9  5  1  0  0  0  0
 10  9  1  0  0  0  0
  1 10  2  0  0  0  0
M  END
> <ChemID>
100703

> <CAS>
6090-09-1

> <Original_SMILES>
CC1CCC(CC=1)C(C)=O

> <preferred_name>
4-Methylcyclohex-3-en-1-one

> <dsstox_substance_id>
DTXSID20867915

> <dsstox_compound_id>
DTXCID20816064

> <qc_level>
Public_Medium

> <Canonical_QSARr>
CC1CCC(CC=1)C(C)=O

> <InChI_Code_QSARr>
InChI=1S/C9H14O/c1-7-3-5-9(6-4-7)8(2)10/h3,9H,4-6H2,1-2H3

> <InChI Key_QSARr>
HOBBEYSRFFJETF-UHFFFAOYSA-N

> <Salt_Solvent>


> <Salt_Solvent_ID>
0

> <MPID>
99208

> <OH Reference>
ALVARADO,A ET AL. (1998)

> <OH>
1.29E-10

> <OH Temperature>
23.0

> <LogOH>
-9.889410289700761

> <Tr_1_Tst_0>
1

$$$$
100705
  Mrv171c012241912032D          

  7  6  0  0  0  0            999 V2000
    2.0625    0.7145    0.0000 C   0  0  0  0  0  0  0  0  0  0  0  0
    1.2375    0.7145    0.0000 C   0  0  0  0  0  0  0  0  0  0  0  0
    0.8250    1.4289    0.0000 O   0  0  0  0  0  0  0  0  0  0  0  0
    0.8250    0.0000    0.0000 C   0  0  0  0  0  0  0  0  0  0  0  0
    0.0000    0.0000    0.0000 C   0  0  0  0  0  0  0  0  0  0  0  0
   -0.4125   -0.7145    0.0000 C   0  0  0  0  0  0  0  0  0  0  0  0
    0.0000   -1.4289    0.0000 O   0  0  0  0  0  0  0  0  0  0  0  0
  1  2  1  0  0  0  0
  2  3  2  0  0  0  0
  4  2  1  4  0  0  0
  4  5  2  0  0  0  0
  5  6  1  0  0  0  0
  6  7  2  0  0  0  0
M  END
> <ChemID>
100705

> <CAS>
5729-47-5

> <Original_SMILES>
CC(=O)C=CC=O

> <preferred_name>


> <dsstox_substance_id>
DTXSID40878785

> <dsstox_compound_id>
DTXCID301016817

> <qc_level>


> <Canonical_QSARr>
CC(=O)C=CC=O

> <InChI_Code_QSARr>
InChI=1S/C5H6O2/c1-5(7)3-2-4-6/h2-4H,1H3

> <InChI Key_QSARr>
GBLMMVFQENXAFZ-UHFFFAOYSA-N

> <Salt_Solvent>


> <Salt_Solvent_ID>
0

> <MPID>
99209

> <OH Reference>
BIERBACH,A ET AL. (1994)

> <OH>
5.58E-11

> <OH Temperature>
25.0

> <LogOH>
-10.253365801062428

> <Tr_1_Tst_0>
1

$$$$
100707
  Mrv171c012241912032D          

  6  5  0  0  0  0            999 V2000
    1.8563   -0.3572    0.0000 C   0  0  0  0  0  0  0  0  0  0  0  0
    1.4437    0.3572    0.0000 O   0  0  0  0  0  0  0  0  0  0  0  0
    1.8562    1.0717    0.0000 C   0  0  0  0  0  0  0  0  0  0  0  0
    1.4438   -1.0717    0.0000 C   0  0  0  0  0  0  0  0  0  0  0  0
    1.8563   -1.7862    0.0000 O   0  0  0  0  0  0  0  0  0  0  0  0
    0.6188   -1.0717    0.0000 C   0  0  0  0  0  0  0  0  0  0  0  0
  1  2  1  0  0  0  0
  2  3  1  0  0  0  0
  1  4  1  0  0  0  0
  4  5  2  0  0  0  0
  4  6  1  0  0  0  0
M  END
> <ChemID>
100707

> <CAS>
5878-19-3

> <Original_SMILES>
COCC(C)=O

> <preferred_name>
2-Propanone, 1-methoxy-

> <dsstox_substance_id>
DTXSID0064048

> <dsstox_compound_id>
DTXCID3042471

> <qc_level>
Public_High

> <Canonical_QSARr>
COCC(C)=O

> <InChI_Code_QSARr>
InChI=1S/C4H8O2/c1-4(5)3-6-2/h3H2,1-2H3

> <InChI Key_QSARr>
CUZLJOLBIRPEFB-UHFFFAOYSA-N

> <Salt_Solvent>


> <Salt_Solvent_ID>
0

> <MPID>
99210

> <OH Reference>
ATKINSON,R (1989)

> <OH>
6.770000000000001E-12

> <OH Temperature>
25.0

> <LogOH>
-11.169411331314869

> <Tr_1_Tst_0>
0

$$$$
100708
  Mrv171c012241912032D          

 15 15  0  0  0  0            999 V2000
    3.3420   -1.6518    0.0000 N   0  0  0  0  0  0  0  0  0  0  0  0
    2.6275   -1.2393    0.0000 C   0  0  0  0  0  0  0  0  0  0  0  0
    2.6275   -0.4143    0.0000 Cl  0  0  0  0  0  0  0  0  0  0  0  0
    1.9130   -1.6518    0.0000 N   0  0  0  0  0  0  0  0  0  0  0  0
    1.9130   -2.4768    0.0000 C   0  0  0  0  0  0  0  0  0  0  0  0
    1.1986   -2.8893    0.0000 N   0  0  0  0  0  0  0  0  0  0  0  0
    0.4841   -2.4768    0.0000 C   0  0  0  0  0  0  0  0  0  0  0  0
   -0.2304   -2.8893    0.0000 C   0  0  0  0  0  0  0  0  0  0  0  0
    2.6275   -2.8893    0.0000 N   0  0  0  0  0  0  0  0  0  0  0  0
    3.3420   -2.4768    0.0000 C   0  0  0  0  0  0  0  0  0  0  0  0
    4.0564   -2.8894    0.0000 N   0  0  0  0  0  0  0  0  0  0  0  0
    4.7709   -2.4769    0.0000 C   0  0  0  0  0  0  0  0  0  0  0  0
    5.4854   -2.0644    0.0000 C   0  0  0  0  0  0  0  0  0  0  0  0
    5.1834   -3.1913    0.0000 C   0  0  0  0  0  0  0  0  0  0  0  0
    4.3584   -1.7624    0.0000 C   0  0  0  0  0  0  0  0  0  0  0  0
  2  1  1  0  0  0  0
  2  3  1  0  0  0  0
  4  2  2  0  0  0  0
  5  4  1  0  0  0  0
  5  6  1  0  0  0  0
  6  7  1  0  0  0  0
  7  8  1  0  0  0  0
  9  5  2  0  0  0  0
 10  9  1  0  0  0  0
  1 10  2  0  0  0  0
 10 11  1  0  0  0  0
 11 12  1  0  0  0  0
 12 13  1  0  0  0  0
 12 14  1  0  0  0  0
 12 15  1  0  0  0  0
M  END
> <ChemID>
100708

> <CAS>
5915-41-3

> <Original_SMILES>
CCNc1[n]c(Cl)[n]c(NC(C)(C)C)[n]1

> <preferred_name>
Terbuthylazine

> <dsstox_substance_id>
DTXSID4027608

> <dsstox_compound_id>
DTXCID107608

> <qc_level>
DSSTox_Low

> <Canonical_QSARr>
CCNC1N=C(Cl)N=C(NC(C)(C)C)N=1

> <InChI_Code_QSARr>
InChI=1S/C9H16ClN5/c1-5-11-7-12-6(10)13-8(14-7)15-9(2,3)4/h5H2,1-4H3,(H2,11,12,13,14,15)

> <InChI Key_QSARr>
FZXISNSWEXTPMF-UHFFFAOYSA-N

> <Salt_Solvent>


> <Salt_Solvent_ID>
0

> <MPID>
99211

> <OH Reference>
PALM,WU ET AL. (1998)

> <OH>
1.1E-11

> <OH Temperature>
25.0

> <LogOH>
-10.958607314841784

> <Tr_1_Tst_0>
1

$$$$
100709
  Mrv171c012241912032D          

 10 10  0  0  0  0            999 V2000
    0.0012   -3.7120    0.0000 C   0  0  0  0  0  0  0  0  0  0  0  0
    0.7157   -3.2995    0.0000 C   0  0  0  0  0  0  0  0  0  0  0  0
    0.7157   -2.4745    0.0000 C   0  0  0  0  0  0  0  0  0  0  0  0
    1.4301   -2.0620    0.0000 C   0  0  0  0  0  0  0  0  0  0  0  0
    1.4301   -1.2370    0.0000 C   0  0  0  0  0  0  0  0  0  0  0  0
    0.7157   -0.8245    0.0000 C   0  0  0  0  0  0  0  0  0  0  0  0
    0.7157    0.0005    0.0000 C   0  0  0  0  0  0  0  0  0  0  0  0
    0.0012   -1.2370    0.0000 C   0  0  0  0  0  0  0  0  0  0  0  0
    0.0012   -2.0620    0.0000 C   0  0  0  0  0  0  0  0  0  0  0  0
    1.4301   -3.7120    0.0000 C   0  0  0  0  0  0  0  0  0  0  0  0
  1  2  1  0  0  0  0
  2  3  1  0  0  0  0
  4  3  1  0  0  0  0
  5  4  1  0  0  0  0
  6  5  2  0  0  0  0
  6  7  1  0  0  0  0
  8  6  1  0  0  0  0
  9  8  1  0  0  0  0
  3  9  1  0  0  0  0
  2 10  2  0  0  0  0
M  END
> <ChemID>
100709

> <CAS>
5989-27-5

> <Original_SMILES>
CC1CC[C@H](CC=1)C(C)=C

> <preferred_name>
D-Limonene

> <dsstox_substance_id>
DTXSID1020778

> <dsstox_compound_id>
DTXCID50778

> <qc_level>
DSSTox_Low

> <Canonical_QSARr>
CC1CCC(CC=1)C(C)=C

> <InChI_Code_QSARr>
InChI=1S/C10H16/c1-8(2)10-6-4-9(3)5-7-10/h4,10H,1,5-7H2,2-3H3

> <InChI Key_QSARr>
XMGQYMWWDOXHJM-UHFFFAOYSA-N

> <Salt_Solvent>


> <Salt_Solvent_ID>
0

> <MPID>
99212

> <OH Reference>
KWOK,ESC & ATKINSON,R (1994)

> <OH>
1.71E-10

> <OH Temperature>
25.0

> <LogOH>
-9.767003889607851

> <Tr_1_Tst_0>
1

$$$$
100711
  Mrv171c012241912032D          

  4  3  0  0  0  0            999 V2000
    3.8561    0.1786    0.0000 O   0  0  0  0  0  0  0  0  0  0  0  0
    3.0311    0.1786    0.0000 C   0  0  0  0  0  0  0  0  0  0  0  0
    2.2061    0.1786    0.0000 C   0  0  0  0  0  0  0  0  0  0  0  0
    1.7936   -0.5359    0.0000 C   0  0  0  0  0  0  0  0  0  0  0  0
  1  2  2  0  0  0  0
  2  3  2  0  0  0  0
  3  4  1  0  0  0  0
M  END
> <ChemID>
100711

> <CAS>
6004-44-0

> <Original_SMILES>
CC=C=O

> <preferred_name>
Methylketene

> <dsstox_substance_id>
DTXSID60208767

> <dsstox_compound_id>
DTXCID10131258

> <qc_level>
Public_Medium

> <Canonical_QSARr>
CC=C=O

> <InChI_Code_QSARr>
InChI=1S/C3H4O/c1-2-3-4/h2H,1H3

> <InChI Key_QSARr>
UYLUJGRCKKSWHS-UHFFFAOYSA-N

> <Salt_Solvent>


> <Salt_Solvent_ID>
0

> <MPID>
99213

> <OH Reference>
ATKINSON,R (1989)

> <OH>
6.999999999999999E-11

> <OH Temperature>
25.0

> <LogOH>
-10.154901959985747

> <Tr_1_Tst_0>
1

$$$$
100712
  Mrv171c012241912032D          

  6  5  0  0  0  0            999 V2000
    2.2721   -1.2949    0.0000 C   0  0  0  0  0  0  0  0  0  0  0  0
    1.8596   -0.5805    0.0000 C   0  0  0  0  0  0  0  0  0  0  0  0
    2.2721    0.1340    0.0000 O   0  0  0  0  0  0  0  0  0  0  0  0
    1.0346   -0.5805    0.0000 C   0  0  0  0  0  0  0  0  0  0  0  0
    0.6221    0.1340    0.0000 C   0  0  0  0  0  0  0  0  0  0  0  0
   -0.2029    0.1340    0.0000 C   0  0  0  0  0  0  0  0  0  0  0  0
  1  2  1  0  0  0  0
  2  3  1  0  0  0  0
  2  4  1  0  0  0  0
  4  5  1  0  0  0  0
  5  6  1  0  0  0  0
M  END
> <ChemID>
100712

> <CAS>
6032-29-7

> <Original_SMILES>
CCCC(C)O

> <preferred_name>
Pentan-2-ol

> <dsstox_substance_id>
DTXSID3052721

> <dsstox_compound_id>
DTXCID1031333

> <qc_level>
DSSTox_Low

> <Canonical_QSARr>
CCCC(C)O

> <InChI_Code_QSARr>
InChI=1S/C5H12O/c1-3-4-5(2)6/h5-6H,3-4H2,1-2H3

> <InChI Key_QSARr>
JYVLIDXNZAXMDK-UHFFFAOYSA-N

> <Salt_Solvent>


> <Salt_Solvent_ID>
0

> <MPID>
99214

> <OH Reference>
ATKINSON,R (1989)

> <OH>
1.18E-11

> <OH Temperature>
25.0

> <LogOH>
-10.928117992693862

> <Tr_1_Tst_0>
0

$$$$
100713
  Mrv171c012241912032D          

  7  6  0  0  0  0            999 V2000
    2.4667    0.3442    0.0000 O   0  0  0  0  0  0  0  0  0  0  0  0
    1.7522   -0.0683    0.0000 C   0  0  0  0  0  0  0  0  0  0  0  0
    3.1811   -0.0683    0.0000 C   0  0  0  0  0  0  0  0  0  0  0  0
    3.8956    0.3442    0.0000 N   0  0  0  0  0  0  0  0  0  0  0  0
    4.6101   -0.0683    0.0000 C   0  0  0  0  0  0  0  0  0  0  0  0
    5.3246    0.3442    0.0000 C   0  0  0  0  0  0  0  0  0  0  0  0
    3.1811   -0.8933    0.0000 O   0  0  0  0  0  0  0  0  0  0  0  0
  1  2  1  0  0  0  0
  1  3  1  0  0  0  0
  3  4  1  0  0  0  0
  4  5  1  0  0  0  0
  5  6  1  0  0  0  0
  3  7  2  0  0  0  0
M  END
> <ChemID>
100713

> <CAS>
6135-31-5

> <Original_SMILES>
CCNC(=O)OC

> <preferred_name>
Carbamic acid, ethyl-, methyl ester

> <dsstox_substance_id>
DTXSID80210261

> <dsstox_compound_id>
DTXCID80132752

> <qc_level>
Public_Medium

> <Canonical_QSARr>
CCNC(=O)OC

> <InChI_Code_QSARr>
InChI=1S/C4H9NO2/c1-3-5-4(6)7-2/h3H2,1-2H3,(H,5,6)

> <InChI Key_QSARr>
AEARPZNULDFPNQ-UHFFFAOYSA-N

> <Salt_Solvent>


> <Salt_Solvent_ID>
0

> <MPID>
99215

> <OH Reference>
KWOK,S ET AL. (1996)

> <OH>
1.05E-11

> <OH Temperature>
25.0

> <LogOH>
-10.978810700930074

> <Tr_1_Tst_0>
1

$$$$
100715
  Mrv171c012241912032D          

 11 10  0  0  0  0            999 V2000
    2.1317   -0.6362    0.0000 C   0  0  0  0  0  0  0  0  0  0  0  0
    1.4172   -1.0487    0.0000 O   0  0  0  0  0  0  0  0  0  0  0  0
    0.7027   -0.6362    0.0000 N   0  3  0  0  0  0  0  0  0  0  0  0
   -0.0117   -1.0487    0.0000 O   0  0  0  0  0  0  0  0  0  0  0  0
    0.7027    0.1888    0.0000 O   0  5  0  0  0  0  0  0  0  0  0  0
    2.8462   -1.0487    0.0000 C   0  0  0  0  0  0  0  0  0  0  0  0
    3.5606   -0.6362    0.0000 O   0  0  0  0  0  0  0  0  0  0  0  0
    4.2751   -1.0487    0.0000 N   0  3  0  0  0  0  0  0  0  0  0  0
    4.9896   -0.6362    0.0000 O   0  0  0  0  0  0  0  0  0  0  0  0
    4.2751   -1.8737    0.0000 O   0  5  0  0  0  0  0  0  0  0  0  0
    2.8462   -1.8737    0.0000 C   0  0  0  0  0  0  0  0  0  0  0  0
  1  2  1  0  0  0  0
  2  3  1  0  0  0  0
  3  4  2  0  0  0  0
  3  5  1  0  0  0  0
  1  6  1  0  0  0  0
  6  7  1  0  0  0  0
  7  8  1  0  0  0  0
  8  9  2  0  0  0  0
  8 10  1  0  0  0  0
  6 11  1  0  0  0  0
M  CHG  4   3   1   5  -1   8   1  10  -1
M  END
> <ChemID>
100715

> <CAS>
6423-43-4

> <Original_SMILES>
CC(CO[N+]([O-])=O)O[N+]([O-])=O

> <preferred_name>
1,2-Propanediol, dinitrate

> <dsstox_substance_id>
DTXSID7027627

> <dsstox_compound_id>
DTXCID307627

> <qc_level>
DSSTox_Low

> <Canonical_QSARr>
CC(CO[N+]([O-])=O)O[N+]([O-])=O

> <InChI_Code_QSARr>
InChI=1S/C3H6N2O6/c1-3(11-5(8)9)2-10-4(6)7/h3H,2H2,1H3

> <InChI Key_QSARr>
PSXCGTLGGVDWFU-UHFFFAOYSA-N

> <Salt_Solvent>


> <Salt_Solvent_ID>
0

> <MPID>
99216

> <OH Reference>
ATKINSON,R (1994); <3.2E-13

> <OH>
3.2E-13

> <OH Temperature>
25.0

> <LogOH>
-12.494850021680088

> <Tr_1_Tst_0>
1

$$$$
100717
  Mrv171c012241912032D          

  5  4  0  0  0  0            999 V2000
    2.0625   -0.7145    0.0000 O   0  0  0  0  0  0  0  0  0  0  0  0
    2.4750   -1.4289    0.0000 C   0  0  0  0  0  0  0  0  0  0  0  0
    1.2375   -0.7145    0.0000 C   0  0  0  0  0  0  0  0  0  0  0  0
    0.8250    0.0000    0.0000 C   0  0  0  0  0  0  0  0  0  0  0  0
    0.0000    0.0000    0.0000 Br  0  0  0  0  0  0  0  0  0  0  0  0
  1  2  1  0  0  0  0
  1  3  1  0  0  0  0
  3  4  1  0  0  0  0
  4  5  1  0  0  0  0
M  END
> <ChemID>
100717

> <CAS>
6482-24-2

> <Original_SMILES>
COCCBr

> <preferred_name>
Ethane, 1-bromo-2-methoxy-

> <dsstox_substance_id>
DTXSID0064385

> <dsstox_compound_id>
DTXCID8044383

> <qc_level>
Public_High

> <Canonical_QSARr>
COCCBr

> <InChI_Code_QSARr>
InChI=1S/C3H7BrO/c1-5-3-2-4/h2-3H2,1H3

> <InChI Key_QSARr>
YZUPZGFPHUVJKC-UHFFFAOYSA-N

> <Salt_Solvent>


> <Salt_Solvent_ID>
0

> <MPID>
99217

> <OH Reference>
KWOK,ESC & ATKINSON,R (1994)

> <OH>
6.64E-12

> <OH Temperature>
25.0

> <LogOH>
-11.177831920631979

> <Tr_1_Tst_0>
0

$$$$
100719
  Mrv171c012241912032D          

  6  5  0  0  0  0            999 V2000
    3.4915   -0.7640    0.0000 O   0  0  0  0  0  0  0  0  0  0  0  0
    3.0790   -1.4784    0.0000 C   0  0  0  0  0  0  0  0  0  0  0  0
    3.0790   -0.0495    0.0000 C   0  0  0  0  0  0  0  0  0  0  0  0
    3.4915    0.6650    0.0000 N   0  0  0  0  0  0  0  0  0  0  0  0
    3.0790    1.3795    0.0000 C   0  0  0  0  0  0  0  0  0  0  0  0
    2.2540   -0.0495    0.0000 O   0  0  0  0  0  0  0  0  0  0  0  0
  1  2  1  0  0  0  0
  1  3  1  0  0  0  0
  3  4  1  0  0  0  0
  4  5  1  0  0  0  0
  3  6  2  0  0  0  0
M  END
> <ChemID>
100719

> <CAS>
6642-30-4

> <Original_SMILES>
CNC(=O)OC

> <preferred_name>
Methyl methylcarbamate

> <dsstox_substance_id>
DTXSID80216642

> <dsstox_compound_id>
DTXCID10139133

> <qc_level>
Public_Medium

> <Canonical_QSARr>
CNC(=O)OC

> <InChI_Code_QSARr>
InChI=1S/C3H7NO2/c1-4-3(5)6-2/h1-2H3,(H,4,5)

> <InChI Key_QSARr>
NYXHSRNBKJIQQG-UHFFFAOYSA-N

> <Salt_Solvent>


> <Salt_Solvent_ID>
0

> <MPID>
99218

> <OH Reference>
KWOK,ESC ET AL. (1996)

> <OH>
4.300000000000001E-12

> <OH Temperature>
25.0

> <LogOH>
-11.366531544420399

> <Tr_1_Tst_0>
1

$$$$
100720
  Mrv171c012241912032D          

  7  6  0  0  0  0            999 V2000
    2.4750    1.4289    0.0000 C   0  0  0  0  0  0  0  0  0  0  0  0
    2.0625    0.7145    0.0000 C   0  0  0  0  0  0  0  0  0  0  0  0
    1.2375    0.7145    0.0000 C   0  0  0  0  0  0  0  0  0  0  0  0
    0.8250    0.0000    0.0000 C   0  0  0  0  0  0  0  0  0  0  0  0
    0.0000    0.0000    0.0000 C   0  0  0  0  0  0  0  0  0  0  0  0
   -0.4125   -0.7145    0.0000 C   0  0  0  0  0  0  0  0  0  0  0  0
    0.0000   -1.4289    0.0000 O   0  0  0  0  0  0  0  0  0  0  0  0
  1  2  1  0  0  0  0
  2  3  1  0  0  0  0
  4  3  1  4  0  0  0
  4  5  2  0  0  0  0
  5  6  1  0  0  0  0
  6  7  2  0  0  0  0
M  END
> <ChemID>
100720

> <CAS>
6728-26-3

> <Original_SMILES>
CCC/C=C/C=O

> <preferred_name>
(2E)-2-Hexenal

> <dsstox_substance_id>
DTXSID1041425

> <dsstox_compound_id>
DTXCID9021425

> <qc_level>
DSSTox_Low

> <Canonical_QSARr>
CCCC=CC=O

> <InChI_Code_QSARr>
InChI=1S/C6H10O/c1-2-3-4-5-6-7/h4-6H,2-3H2,1H3

> <InChI Key_QSARr>
MBDOYVRWFFCFHM-UHFFFAOYSA-N

> <Salt_Solvent>


> <Salt_Solvent_ID>
0

> <MPID>
99219

> <OH Reference>
ATKINSON,R ET AL. (1995)

> <OH>
4.4E-11

> <OH Temperature>
23.0

> <LogOH>
-10.356547323513816

> <Tr_1_Tst_0>
1

$$$$
100723
  Mrv171c012241912032D          

 15 15  0  0  0  0            999 V2000
    3.2592   -0.2914    0.0000 C   0  0  0  0  0  0  0  0  0  0  0  0
    2.4372   -0.2209    0.0000 C   0  0  0  0  0  0  0  0  0  0  0  0
    2.6487   -1.0183    0.0000 C   0  0  0  0  0  0  0  0  0  0  0  0
    1.9556   -1.4658    0.0000 C   0  0  0  0  0  0  0  0  0  0  0  0
    1.3158   -0.9450    0.0000 C   0  0  0  0  0  0  0  0  0  0  0  0
    0.4130   -0.9507    0.0000 C   0  0  0  0  0  0  0  0  0  0  0  0
    0.0207   -1.6764    0.0000 C   0  0  0  0  0  0  0  0  0  0  0  0
   -0.0345   -0.2576    0.0000 C   0  0  0  0  0  0  0  0  0  0  0  0
    0.3420    0.4765    0.0000 C   0  0  0  0  0  0  0  0  0  0  0  0
    1.1659    0.5175    0.0000 C   0  0  0  0  0  0  0  0  0  0  0  0
    1.5424    1.2516    0.0000 C   0  0  0  0  0  0  0  0  0  0  0  0
    0.7541    1.4949    0.0000 C   0  0  0  0  0  0  0  0  0  0  0  0
    1.6451    2.0702    0.0000 C   0  0  0  0  0  0  0  0  0  0  0  0
    2.3664    1.2926    0.0000 C   0  0  0  0  0  0  0  0  0  0  0  0
    2.8139    0.5996    0.0000 C   0  0  0  0  0  0  0  0  0  0  0  0
  1  2  1  0  0  0  0
  2  3  1  0  0  0  0
  3  4  1  0  0  0  0
  5  4  1  4  0  0  0
  5  6  2  0  0  0  0
  6  7  1  0  0  0  0
  6  8  1  0  0  0  0
  9  8  1  4  0  0  0
  9 10  2  0  0  0  0
 10 11  1  0  0  0  0
 11 12  1  0  0  0  0
 11 13  1  0  0  0  0
 11 14  1  0  0  0  0
 15 14  1  4  0  0  0
  2 15  2  0  0  0  0
M  END
> <ChemID>
100723

> <CAS>
6753-98-6

> <Original_SMILES>
CC1CCC=C(C)CC=CC(C)(C)CC=1

> <preferred_name>
alpha-Humalene

> <dsstox_substance_id>
DTXSID30858793

> <dsstox_compound_id>
DTXCID40809539

> <qc_level>
DSSTox_Low

> <Canonical_QSARr>
CC1CCC=C(C)CC=CC(C)(C)CC=1

> <InChI_Code_QSARr>
InChI=1S/C15H24/c1-13-7-5-8-14(2)10-12-15(3,4)11-6-9-13/h6-7,10-11H,5,8-9,12H2,1-4H3/b11-6+,13-7+,14-10+

> <InChI Key_QSARr>
FAMPSKZZVDUYOS-HRGUGZIWSA-N

> <Salt_Solvent>


> <Salt_Solvent_ID>
0

> <MPID>
99220

> <OH Reference>
SHU,Y & ATKINSON,R (1995)

> <OH>
2.9E-10

> <OH Temperature>
23.0

> <LogOH>
-9.537602002101032

> <Tr_1_Tst_0>
1

$$$$
100724
  Mrv171c012241912032D          

 15 16  0  0  0  0            999 V2000
    3.4818   -0.5312    0.0000 C   0  0  0  0  0  0  0  0  0  0  0  0
    4.1963   -0.9437    0.0000 Cl  0  0  0  0  0  0  0  0  0  0  0  0
    3.4818    0.2938    0.0000 C   0  0  0  0  0  0  0  0  0  0  0  0
    2.7673    0.7063    0.0000 C   0  0  0  0  0  0  0  0  0  0  0  0
    2.7673    1.5313    0.0000 Cl  0  0  0  0  0  0  0  0  0  0  0  0
    2.0528    0.2938    0.0000 C   0  0  0  0  0  0  0  0  0  0  0  0
    2.0528   -0.5312    0.0000 C   0  0  0  0  0  0  0  0  0  0  0  0
    2.7673   -0.9437    0.0000 C   0  0  0  0  0  0  0  0  0  0  0  0
    2.7673   -1.7687    0.0000 C   0  0  0  0  0  0  0  0  0  0  0  0
    2.0528   -2.1812    0.0000 C   0  0  0  0  0  0  0  0  0  0  0  0
    2.0528   -3.0062    0.0000 C   0  0  0  0  0  0  0  0  0  0  0  0
    2.7673   -3.4187    0.0000 C   0  0  0  0  0  0  0  0  0  0  0  0
    2.7673   -4.2437    0.0000 Cl  0  0  0  0  0  0  0  0  0  0  0  0
    3.4818   -3.0062    0.0000 C   0  0  0  0  0  0  0  0  0  0  0  0
    3.4818   -2.1812    0.0000 C   0  0  0  0  0  0  0  0  0  0  0  0
  1  2  1  0  0  0  0
  3  1  1  0  0  0  0
  4  3  2  0  0  0  0
  4  5  1  0  0  0  0
  6  4  1  0  0  0  0
  7  6  2  0  0  0  0
  8  7  1  0  0  0  0
  1  8  2  0  0  0  0
  8  9  1  0  0  0  0
 10  9  2  0  0  0  0
 11 10  1  0  0  0  0
 12 11  2  0  0  0  0
 12 13  1  0  0  0  0
 14 12  1  0  0  0  0
 15 14  2  0  0  0  0
  9 15  1  0  0  0  0
M  END
> <ChemID>
100724

> <CAS>
7012-37-5

> <Original_SMILES>
Clc1cc(Cl)ccc1-c1ccc(Cl)cc1

> <preferred_name>
2,4,4'-Trichlorobiphenyl

> <dsstox_substance_id>
DTXSID2038310

> <dsstox_compound_id>
DTXCID0018310

> <qc_level>
DSSTox_Low

> <Canonical_QSARr>
ClC1=CC(Cl)=C(C=C1)C1C=CC(Cl)=CC=1

> <InChI_Code_QSARr>
InChI=1S/C12H7Cl3/c13-9-3-1-8(2-4-9)11-6-5-10(14)7-12(11)15/h1-7H

> <InChI Key_QSARr>
BZTYNSQSZHARAZ-UHFFFAOYSA-N

> <Salt_Solvent>


> <Salt_Solvent_ID>
0

> <MPID>
99221

> <OH Reference>
ANDERSON,PN & HITES,RA (1996A)

> <OH>
1.1E-12

> <OH Temperature>
25.0

> <LogOH>
-11.958607314841764

> <Tr_1_Tst_0>
1

$$$$
100725
  Mrv171c012241912032D          

 12 11  0  0  0  0            999 V2000
    0.1448   -1.1381    0.0000 C   0  0  0  0  0  0  0  0  0  0  0  0
   -0.5696   -1.5506    0.0000 O   0  0  0  0  0  0  0  0  0  0  0  0
    0.8593   -1.5506    0.0000 C   0  0  0  0  0  0  0  0  0  0  0  0
    1.5738   -1.1381    0.0000 C   0  0  0  0  0  0  0  0  0  0  0  0
    1.5738   -0.3131    0.0000 C   0  0  0  0  0  0  0  0  0  0  0  0
    2.2882    0.0994    0.0000 C   0  0  0  0  0  0  0  0  0  0  0  0
    0.8593    0.0994    0.0000 C   0  0  0  0  0  0  0  0  0  0  0  0
    2.2882   -1.5506    0.0000 C   0  0  0  0  0  0  0  0  0  0  0  0
    3.0027   -1.1381    0.0000 C   0  0  0  0  0  0  0  0  0  0  0  0
    3.7172   -1.5506    0.0000 C   0  0  0  0  0  0  0  0  0  0  0  0
    4.4317   -1.1381    0.0000 O   0  0  0  0  0  0  0  0  0  0  0  0
    3.7172   -2.3756    0.0000 C   0  0  0  0  0  0  0  0  0  0  0  0
  1  2  2  0  0  0  0
  1  3  1  0  0  0  0
  3  4  1  0  0  0  0
  4  5  1  0  0  0  0
  5  6  1  0  0  0  0
  5  7  2  0  0  0  0
  4  8  1  0  0  0  0
  8  9  1  0  0  0  0
  9 10  1  0  0  0  0
 10 11  2  0  0  0  0
 10 12  1  0  0  0  0
M  END
> <ChemID>
100725

> <CAS>
7086-79-5

> <Original_SMILES>
CC(=O)CCC(CC=O)C(C)=C

> <preferred_name>


> <dsstox_substance_id>
DTXSID40874121

> <dsstox_compound_id>
DTXCID001012254

> <qc_level>


> <Canonical_QSARr>
CC(=O)CCC(CC=O)C(C)=C

> <InChI_Code_QSARr>
InChI=1S/C10H16O2/c1-8(2)10(6-7-11)5-4-9(3)12/h7,10H,1,4-6H2,2-3H3

> <InChI Key_QSARr>
OGCGCISRMFSLTC-UHFFFAOYSA-N

> <Salt_Solvent>


> <Salt_Solvent_ID>
0

> <MPID>
99222

> <OH Reference>
CALOGIROU,A ET AL. (1999)

> <OH>
1.1E-10

> <OH Temperature>
25.0

> <LogOH>
-9.95860731484176

> <Tr_1_Tst_0>
1

$$$$
100726
  Mrv171c012241912032D          

  8  7  0  0  0  0            999 V2000
    1.1702   -1.6020    0.0000 C   0  0  0  0  0  0  0  0  0  0  0  0
    1.1702   -2.4270    0.0000 F   0  0  0  0  0  0  0  0  0  0  0  0
    1.9952   -1.6020    0.0000 Cl  0  0  0  0  0  0  0  0  0  0  0  0
    0.3452   -1.6020    0.0000 Cl  0  0  0  0  0  0  0  0  0  0  0  0
    1.1702   -0.7770    0.0000 C   0  0  0  0  0  0  0  0  0  0  0  0
    1.1702    0.0480    0.0000 F   0  0  0  0  0  0  0  0  0  0  0  0
    1.9952   -0.7770    0.0000 F   0  0  0  0  0  0  0  0  0  0  0  0
    0.3452   -0.7770    0.0000 C   0  0  0  0  0  0  0  0  0  0  0  0
  1  2  1  0  0  0  0
  1  3  1  0  0  0  0
  1  4  1  0  0  0  0
  1  5  1  0  0  0  0
  5  6  1  0  0  0  0
  5  7  1  0  0  0  0
  5  8  1  0  0  0  0
M  END
> <ChemID>
100726

> <CAS>
7125-99-7

> <Original_SMILES>
CC(F)(F)C(F)(Cl)Cl

> <preferred_name>


> <dsstox_substance_id>
DTXSID50878690

> <dsstox_compound_id>
DTXCID501016732

> <qc_level>


> <Canonical_QSARr>
CC(F)(F)C(F)(Cl)Cl

> <InChI_Code_QSARr>
InChI=1S/C3H3Cl2F3/c1-2(6,7)3(4,5)8/h1H3

> <InChI Key_QSARr>
VOOXKKSIKFHMTJ-UHFFFAOYSA-N

> <Salt_Solvent>


> <Salt_Solvent_ID>
0

> <MPID>
99223

> <OH Reference>
KWOK,ESC & ATKINSON,R (1994)

> <OH>
2.45E-15

> <OH Temperature>
25.0

> <LogOH>
-14.610833915635489

> <Tr_1_Tst_0>
0

$$$$
100727
  Mrv171c012241912032D          

  6  5  0  0  0  0            999 V2000
    1.2375    0.7145    0.0000 C   0  0  0  0  0  0  0  0  0  0  0  0
    0.8250    0.0000    0.0000 C   0  0  0  0  0  0  0  0  0  0  0  0
    0.0000    0.0000    0.0000 C   0  0  0  0  0  0  0  0  0  0  0  0
   -0.4125   -0.7145    0.0000 C   0  0  0  0  0  0  0  0  0  0  0  0
   -1.2375   -0.7145    0.0000 C   0  0  0  0  0  0  0  0  0  0  0  0
   -1.6500   -1.4289    0.0000 C   0  0  0  0  0  0  0  0  0  0  0  0
  2  1  1  4  0  0  0
  2  3  2  0  0  0  0
  3  4  1  0  0  0  0
  4  5  1  0  0  0  0
  5  6  2  0  0  0  0
M  END
> <ChemID>
100727

> <CAS>
592-45-0

> <Original_SMILES>
C/C=C/CC=C

> <preferred_name>
1,4-Hexadiene

> <dsstox_substance_id>
DTXSID5027227

> <dsstox_compound_id>
DTXCID00809752

> <qc_level>
DSSTox_Low

> <Canonical_QSARr>
CC=CCC=C

> <InChI_Code_QSARr>
InChI=1S/C6H10/c1-3-5-6-4-2/h3-4,6H,1,5H2,2H3

> <InChI Key_QSARr>
PRBHEGAFLDMLAL-UHFFFAOYSA-N

> <Salt_Solvent>


> <Salt_Solvent_ID>
0

> <MPID>
99224

> <OH Reference>
KWOK,ESC & ATKINSON,R (1994)

> <OH>
9.06E-11

> <OH Temperature>
25.0

> <LogOH>
-10.04287180232318

> <Tr_1_Tst_0>
1

$$$$
100730
  Mrv171c012241912032D          

  6  5  0  0  0  0            999 V2000
    1.2370   -2.1431    0.0000 C   0  0  0  0  0  0  0  0  0  0  0  0
    0.8245   -1.4286    0.0000 C   0  0  0  0  0  0  0  0  0  0  0  0
    1.2370   -0.7141    0.0000 C   0  0  0  0  0  0  0  0  0  0  0  0
    0.8245    0.0003    0.0000 C   0  0  0  0  0  0  0  0  0  0  0  0
    2.0620   -0.7141    0.0000 Cl  0  0  0  0  0  0  0  0  0  0  0  0
   -0.0005   -1.4286    0.0000 Cl  0  0  0  0  0  0  0  0  0  0  0  0
  1  2  1  0  0  0  0
  2  3  1  0  0  0  0
  3  4  1  0  0  0  0
  3  5  1  0  0  0  0
  2  6  1  0  0  0  0
M  END
> <ChemID>
100730

> <CAS>
7581-97-7

> <Original_SMILES>
CC(Cl)C(C)Cl

> <preferred_name>
2,3-Dichlorobutane

> <dsstox_substance_id>
DTXSID8021565

> <dsstox_compound_id>
DTXCID901565

> <qc_level>
DSSTox_Low

> <Canonical_QSARr>
CC(Cl)C(C)Cl

> <InChI_Code_QSARr>
InChI=1S/C4H8Cl2/c1-3(5)4(2)6/h3-4H,1-2H3

> <InChI Key_QSARr>
RMISVOPUIFJTEO-UHFFFAOYSA-N

> <Salt_Solvent>


> <Salt_Solvent_ID>
0

> <MPID>
99225

> <OH Reference>
MILL,T ET AL. (1982)

> <OH>
9.600000000000002E-13

> <OH Temperature>
25.0

> <LogOH>
-12.01772876696043

> <Tr_1_Tst_0>
1

$$$$
100733
  Mrv171c012241912032D          

  7  6  0  0  0  0            999 V2000
    0.8282   -1.7720    0.0000 C   0  0  0  0  0  0  0  0  0  0  0  0
    0.1137   -1.3595    0.0000 O   0  0  0  0  0  0  0  0  0  0  0  0
   -0.6007   -1.7720    0.0000 C   0  0  0  0  0  0  0  0  0  0  0  0
    1.5427   -1.3595    0.0000 C   0  0  0  0  0  0  0  0  0  0  0  0
    2.2572   -1.7720    0.0000 O   0  0  0  0  0  0  0  0  0  0  0  0
    2.9716   -1.3595    0.0000 C   0  0  0  0  0  0  0  0  0  0  0  0
    1.5427   -0.5345    0.0000 C   0  0  0  0  0  0  0  0  0  0  0  0
  1  2  1  0  0  0  0
  2  3  1  0  0  0  0
  1  4  1  0  0  0  0
  4  5  1  0  0  0  0
  5  6  1  0  0  0  0
  4  7  1  0  0  0  0
M  END
> <ChemID>
100733

> <CAS>
7778-85-0

> <Original_SMILES>
COC(C)COC

> <preferred_name>


> <dsstox_substance_id>
DTXSID60871197

> <dsstox_compound_id>
DTXCID40818868

> <qc_level>


> <Canonical_QSARr>
COC(C)COC

> <InChI_Code_QSARr>
InChI=1S/C5H12O2/c1-5(7-3)4-6-2/h5H,4H2,1-3H3

> <InChI Key_QSARr>
LEEANUDEDHYDTG-UHFFFAOYSA-N

> <Salt_Solvent>


> <Salt_Solvent_ID>
0

> <MPID>
99226

> <OH Reference>
PORTER,E ET AL. (1997)

> <OH>
3.12E-11

> <OH Temperature>
25.0

> <LogOH>
-10.50584540598155

> <Tr_1_Tst_0>
1

$$$$
100734
  Mrv171c012241912032D          

  5  4  0  0  0  0            999 V2000
    1.2375    0.7145    0.0000 Cl  0  0  0  0  0  0  0  0  0  0  0  0
    0.8250    0.0000    0.0000 C   0  0  0  0  0  0  0  0  0  0  0  0
    0.0000    0.0000    0.0000 C   0  0  0  0  0  0  0  0  0  0  0  0
   -0.4125   -0.7145    0.0000 C   0  0  0  0  0  0  0  0  0  0  0  0
    0.0000   -1.4289    0.0000 Cl  0  0  0  0  0  0  0  0  0  0  0  0
  2  1  1  4  0  0  0
  2  3  2  0  0  0  0
  3  4  1  0  0  0  0
  4  5  1  0  0  0  0
M  END
> <ChemID>
100734

> <CAS>
10061-01-5|10061-02-6

> <Original_SMILES>
Cl/C=C\CCl

> <preferred_name>
(Z)-Dichloropropene|trans-1,3-Dichloropropene

> <dsstox_substance_id>
DTXSID1032305|DTXSID2042480

> <dsstox_compound_id>
DTXCID9012305|DTXCID8028131

> <qc_level>
DSSTox_Low

> <Canonical_QSARr>
ClC=CCCl

> <InChI_Code_QSARr>
InChI=1S/C3H4Cl2/c4-2-1-3-5/h1-2H,3H2

> <InChI Key_QSARr>
UOORRWUZONOOLO-UHFFFAOYSA-N

> <Salt_Solvent>


> <Salt_Solvent_ID>
0

> <MPID>
99227|99228

> <OH Reference>
KWOK,ESC & ATKINSON,R (1994)

> <OH>
1.12E-11

> <OH Temperature>
25.0

> <LogOH>
-10.950781977329818

> <Tr_1_Tst_0>
1

$$$$
100736
  Mrv171c012241912032D          

  7  6  0  0  0  0            999 V2000
    3.3576    0.0726    0.0000 C   0  0  0  0  0  0  0  0  0  0  0  0
    3.7701    0.7871    0.0000 C   0  0  0  0  0  0  0  0  0  0  0  0
    2.5326    0.0726    0.0000 C   0  0  0  0  0  0  0  0  0  0  0  0
    2.1201   -0.6419    0.0000 C   0  0  0  0  0  0  0  0  0  0  0  0
    2.1201    0.7871    0.0000 C   0  0  0  0  0  0  0  0  0  0  0  0
    3.7701   -0.6419    0.0000 C   0  0  0  0  0  0  0  0  0  0  0  0
    4.5951   -0.6419    0.0000 C   0  0  0  0  0  0  0  0  0  0  0  0
  1  2  1  0  0  0  0
  1  3  2  0  0  0  0
  3  4  1  0  0  0  0
  3  5  1  0  0  0  0
  1  6  1  0  0  0  0
  6  7  1  0  0  0  0
M  END
> <ChemID>
100736

> <CAS>
10574-37-5

> <Original_SMILES>
CC(C)=C(C)CC

> <preferred_name>
2-Pentene, 2,3-dimethyl-

> <dsstox_substance_id>
DTXSID00147308

> <dsstox_compound_id>
DTXCID6069799

> <qc_level>
Public_Medium

> <Canonical_QSARr>
CC(C)=C(C)CC

> <InChI_Code_QSARr>
InChI=1S/C7H14/c1-5-7(4)6(2)3/h5H2,1-4H3

> <InChI Key_QSARr>
WFHALSLYRWWUGH-UHFFFAOYSA-N

> <Salt_Solvent>


> <Salt_Solvent_ID>
0

> <MPID>
99229

> <OH Reference>
KWOK,ESC & ATKINSON,R (1994)

> <OH>
1.03E-10

> <OH Temperature>
25.0

> <LogOH>
-9.987162775294822

> <Tr_1_Tst_0>
0

$$$$
100737
  Mrv171c012241912032D          

 14 15  0  0  0  0            999 V2000
    2.1410   -1.6566    0.0000 C   0  0  0  0  0  0  0  0  0  0  0  0
    2.1410   -2.4816    0.0000 C   0  0  0  0  0  0  0  0  0  0  0  0
    2.8555   -2.8941    0.0000 C   0  0  0  0  0  0  0  0  0  0  0  0
    3.5700   -2.4816    0.0000 C   0  0  0  0  0  0  0  0  0  0  0  0
    3.5700   -1.6566    0.0000 C   0  0  0  0  0  0  0  0  0  0  0  0
    2.8555   -1.2441    0.0000 C   0  0  0  0  0  0  0  0  0  0  0  0
    2.8555   -0.4191    0.0000 Cl  0  0  0  0  0  0  0  0  0  0  0  0
    1.4265   -1.2441    0.0000 C   0  0  0  0  0  0  0  0  0  0  0  0
    1.4265   -0.4191    0.0000 C   0  0  0  0  0  0  0  0  0  0  0  0
    0.7121   -0.0066    0.0000 C   0  0  0  0  0  0  0  0  0  0  0  0
   -0.0024   -0.4191    0.0000 C   0  0  0  0  0  0  0  0  0  0  0  0
   -0.0024   -1.2441    0.0000 C   0  0  0  0  0  0  0  0  0  0  0  0
    0.7121   -1.6566    0.0000 C   0  0  0  0  0  0  0  0  0  0  0  0
    0.7121   -2.4816    0.0000 Cl  0  0  0  0  0  0  0  0  0  0  0  0
  2  1  1  0  0  0  0
  3  2  2  0  0  0  0
  4  3  1  0  0  0  0
  5  4  2  0  0  0  0
  6  5  1  0  0  0  0
  1  6  2  0  0  0  0
  6  7  1  0  0  0  0
  1  8  1  0  0  0  0
  9  8  1  0  0  0  0
 10  9  2  0  0  0  0
 11 10  1  0  0  0  0
 12 11  2  0  0  0  0
 13 12  1  0  0  0  0
  8 13  2  0  0  0  0
 13 14  1  0  0  0  0
M  END
> <ChemID>
100737

> <CAS>
13029-08-8

> <Original_SMILES>
Clc1ccccc1-c1ccccc1Cl

> <preferred_name>
2,2'-Dichlorobiphenyl

> <dsstox_substance_id>
DTXSID4044533

> <dsstox_compound_id>
DTXCID2024533

> <qc_level>
DSSTox_Low

> <Canonical_QSARr>
ClC1C=CC=CC=1C1C=CC=CC=1Cl

> <InChI_Code_QSARr>
InChI=1S/C12H8Cl2/c13-11-7-3-1-5-9(11)10-6-2-4-8-12(10)14/h1-8H

> <InChI Key_QSARr>
JAYCNKDKIKZTAF-UHFFFAOYSA-N

> <Salt_Solvent>


> <Salt_Solvent_ID>
0

> <MPID>
99230

> <OH Reference>
KWOK,ESC ET AL. (1995)

> <OH>
2.0E-12

> <OH Temperature>
24.0

> <LogOH>
-11.698970004336017

> <Tr_1_Tst_0>
1

$$$$
100740
  Mrv171c012241912032D          

 10 11  0  0  0  0            999 V2000
    1.3942   -0.4113    0.0000 C   0  0  0  0  0  0  0  0  0  0  0  0
    0.6797   -0.8238    0.0000 C   0  0  0  0  0  0  0  0  0  0  0  0
    0.1494   -0.1918    0.0000 C   0  0  0  0  0  0  0  0  0  0  0  0
    0.1494   -1.4558    0.0000 C   0  0  0  0  0  0  0  0  0  0  0  0
    1.3942   -1.2363    0.0000 C   0  0  0  0  0  0  0  0  0  0  0  0
    2.1087   -1.6488    0.0000 C   0  0  0  0  0  0  0  0  0  0  0  0
    2.8232   -1.2363    0.0000 C   0  0  0  0  0  0  0  0  0  0  0  0
    2.8232   -0.4113    0.0000 C   0  0  0  0  0  0  0  0  0  0  0  0
    3.5376    0.0012    0.0000 C   0  0  0  0  0  0  0  0  0  0  0  0
    2.1087    0.0012    0.0000 C   0  0  0  0  0  0  0  0  0  0  0  0
  2  1  1  0  0  0  0
  2  3  1  0  0  0  0
  2  4  1  0  0  0  0
  5  2  1  0  0  0  0
  5  1  1  0  0  0  0
  6  5  1  0  0  0  0
  7  6  1  0  0  0  0
  8  7  2  0  0  0  0
  8  9  1  0  0  0  0
 10  8  1  0  0  0  0
  1 10  1  0  0  0  0
M  END
> <ChemID>
100740

> <CAS>
13466-78-9

> <Original_SMILES>
CC1CC2C(CC=1)C2(C)C

> <preferred_name>
3-Carene

> <dsstox_substance_id>
DTXSID4047462

> <dsstox_compound_id>
DTXCID2027462

> <qc_level>
DSSTox_High

> <Canonical_QSARr>
CC1CC2C(CC=1)C2(C)C

> <InChI_Code_QSARr>
InChI=1S/C10H16/c1-7-4-5-8-9(6-7)10(8,2)3/h4,8-9H,5-6H2,1-3H3

> <InChI Key_QSARr>
BQOFWKZOCNGFEC-UHFFFAOYSA-N

> <Salt_Solvent>


> <Salt_Solvent_ID>
0

> <MPID>
99231

> <OH Reference>
KWOK,ESC & ATKINSON,R (1994)

> <OH>
8.8E-11

> <OH Temperature>
25.0

> <LogOH>
-10.055517327849813

> <Tr_1_Tst_0>
1

$$$$
100741
  Mrv171c012241912032D          

 10  9  0  0  0  0            999 V2000
    1.2175   -0.8721    0.0000 F   0  0  0  0  0  0  0  0  0  0  0  0
    1.9320   -1.2846    0.0000 C   0  0  0  0  0  0  0  0  0  0  0  0
    2.6464   -1.6971    0.0000 F   0  0  0  0  0  0  0  0  0  0  0  0
    2.3445   -0.5701    0.0000 O   0  0  0  0  0  0  0  0  0  0  0  0
    1.9320    0.1444    0.0000 C   0  0  0  0  0  0  0  0  0  0  0  0
    2.3445    0.8589    0.0000 F   0  0  0  0  0  0  0  0  0  0  0  0
    1.1070    0.1444    0.0000 F   0  0  0  0  0  0  0  0  0  0  0  0
    1.5195   -1.9990    0.0000 C   0  0  0  0  0  0  0  0  0  0  0  0
    1.9320   -2.7135    0.0000 Cl  0  0  0  0  0  0  0  0  0  0  0  0
    0.6945   -1.9990    0.0000 F   0  0  0  0  0  0  0  0  0  0  0  0
  1  2  1  0  0  0  0
  2  3  1  0  0  0  0
  2  4  1  0  0  0  0
  4  5  1  0  0  0  0
  5  6  1  0  0  0  0
  5  7  1  0  0  0  0
  2  8  1  0  0  0  0
  8  9  1  0  0  0  0
  8 10  1  0  0  0  0
M  END
> <ChemID>
100741

> <CAS>
13838-16-9

> <Original_SMILES>
FC(F)OC(F)(F)C(F)Cl

> <preferred_name>
Enflurane

> <dsstox_substance_id>
DTXSID1020562

> <dsstox_compound_id>
DTXCID30562

> <qc_level>
DSSTox_Low

> <Canonical_QSARr>
FC(F)OC(F)(F)C(F)Cl

> <InChI_Code_QSARr>
InChI=1S/C3H2ClF5O/c4-1(5)3(8,9)10-2(6)7/h1-2H

> <InChI Key_QSARr>
JPGQOUSTVILISH-UHFFFAOYSA-N

> <Salt_Solvent>


> <Salt_Solvent_ID>
0

> <MPID>
99232

> <OH Reference>
TOKUHASHI,K ET AL. (1999A)

> <OH>
1.19E-14

> <OH Temperature>
25.0

> <LogOH>
-13.924453038607467

> <Tr_1_Tst_0>
1

$$$$
100743
  Mrv171c012241912032D          

  9  8  0  0  0  0            999 V2000
    5.1333    0.7939    0.0000 C   0  0  0  0  0  0  0  0  0  0  0  0
    4.3083    0.7939    0.0000 O   0  0  0  0  0  0  0  0  0  0  0  0
    3.8958    0.0794    0.0000 C   0  0  0  0  0  0  0  0  0  0  0  0
    3.0708    0.0794    0.0000 C   0  0  0  0  0  0  0  0  0  0  0  0
    2.6583   -0.6351    0.0000 C   0  0  0  0  0  0  0  0  0  0  0  0
    1.8333   -0.6351    0.0000 O   0  0  0  0  0  0  0  0  0  0  0  0
    1.4208   -1.3495    0.0000 C   0  0  0  0  0  0  0  0  0  0  0  0
    4.3083   -0.6351    0.0000 O   0  0  0  0  0  0  0  0  0  0  0  0
    3.8958   -1.3495    0.0000 C   0  0  0  0  0  0  0  0  0  0  0  0
  1  2  1  0  0  0  0
  2  3  1  0  0  0  0
  3  4  1  0  0  0  0
  4  5  1  0  0  0  0
  5  6  1  0  0  0  0
  6  7  1  0  0  0  0
  3  8  1  0  0  0  0
  8  9  1  0  0  0  0
M  END
> <ChemID>
100743

> <CAS>
14315-97-0

> <Original_SMILES>
COCCC(OC)OC

> <preferred_name>
Propane, 1,1,3-trimethoxy-

> <dsstox_substance_id>
DTXSID9074694

> <dsstox_compound_id>
DTXCID2034671

> <qc_level>
Public_High

> <Canonical_QSARr>
COCCC(OC)OC

> <InChI_Code_QSARr>
InChI=1S/C6H14O3/c1-7-5-4-6(8-2)9-3/h6H,4-5H2,1-3H3

> <InChI Key_QSARr>
FKZYYYDRLJCHGL-UHFFFAOYSA-N

> <Salt_Solvent>


> <Salt_Solvent_ID>
0

> <MPID>
99234

> <OH Reference>
ATKINSON,R (1989)

> <OH>
1.92E-11

> <OH Temperature>
25.0

> <LogOH>
-10.716698771296445

> <Tr_1_Tst_0>
0

$$$$
100744
  Mrv171c012241912032D          

 10 10  0  0  0  0            999 V2000
   -0.7145    3.7125    0.0000 O   0  0  0  0  0  0  0  0  0  0  0  0
    0.0000    3.3000    0.0000 C   0  0  0  0  0  0  0  0  0  0  0  0
    0.0000    2.4750    0.0000 C   0  0  0  0  0  0  0  0  0  0  0  0
    0.7145    2.0625    0.0000 C   0  0  0  0  0  0  0  0  0  0  0  0
    0.7145    1.2375    0.0000 C   0  0  0  0  0  0  0  0  0  0  0  0
    1.4289    0.8250    0.0000 C   0  0  0  0  0  0  0  0  0  0  0  0
    1.4289   -0.0000    0.0000 C   0  0  0  0  0  0  0  0  0  0  0  0
    0.7145   -0.4125    0.0000 C   0  0  0  0  0  0  0  0  0  0  0  0
    0.0000    0.0000    0.0000 C   0  0  0  0  0  0  0  0  0  0  0  0
    0.0000    0.8250    0.0000 C   0  0  0  0  0  0  0  0  0  0  0  0
  1  2  2  0  0  0  0
  3  2  1  4  0  0  0
  3  4  2  0  0  0  0
  4  5  1  0  0  0  0
  5  6  1  0  0  0  0
  6  7  2  0  0  0  0
  7  8  1  0  0  0  0
  8  9  2  0  0  0  0
  9 10  1  0  0  0  0
  5 10  2  0  0  0  0
M  END
> <ChemID>
100744

> <CAS>
14371-10-9

> <Original_SMILES>
O=C/C=C/c1ccccc1

> <preferred_name>
(2E)-3-Phenylprop-2-enal

> <dsstox_substance_id>
DTXSID6024834

> <dsstox_compound_id>
DTXCID504834

> <qc_level>
DSSTox_High

> <Canonical_QSARr>
O=CC=CC1C=CC=CC=1

> <InChI_Code_QSARr>
InChI=1S/C9H8O/c10-8-4-7-9-5-2-1-3-6-9/h1-8H

> <InChI Key_QSARr>
KJPRLNWUNMBNBZ-UHFFFAOYSA-N

> <Salt_Solvent>


> <Salt_Solvent_ID>
0

> <MPID>
99235

> <OH Reference>
SMITH,AM ET AL. (1996)

> <OH>
4.800000000000001E-11

> <OH Temperature>
23.0

> <LogOH>
-10.31875876262443

> <Tr_1_Tst_0>
1

$$$$
100747
  Mrv171c012241912032D          

 15 16  0  0  0  0            999 V2000
    0.6668    2.0350    0.0000 C   0  0  0  0  0  0  0  0  0  0  0  0
    0.6668    2.8600    0.0000 C   0  0  0  0  0  0  0  0  0  0  0  0
   -0.0476    3.2725    0.0000 C   0  0  0  0  0  0  0  0  0  0  0  0
   -0.0476    4.0975    0.0000 Cl  0  0  0  0  0  0  0  0  0  0  0  0
   -0.7621    2.8600    0.0000 C   0  0  0  0  0  0  0  0  0  0  0  0
   -1.4766    3.2725    0.0000 Cl  0  0  0  0  0  0  0  0  0  0  0  0
   -0.7621    2.0350    0.0000 C   0  0  0  0  0  0  0  0  0  0  0  0
   -0.0476    1.6225    0.0000 C   0  0  0  0  0  0  0  0  0  0  0  0
   -0.0476    0.7975    0.0000 Cl  0  0  0  0  0  0  0  0  0  0  0  0
    1.3813    1.6225    0.0000 C   0  0  0  0  0  0  0  0  0  0  0  0
    1.3813    0.7975    0.0000 C   0  0  0  0  0  0  0  0  0  0  0  0
    2.0958    0.3850    0.0000 C   0  0  0  0  0  0  0  0  0  0  0  0
    2.8102    0.7975    0.0000 C   0  0  0  0  0  0  0  0  0  0  0  0
    2.8102    1.6225    0.0000 C   0  0  0  0  0  0  0  0  0  0  0  0
    2.0958    2.0350    0.0000 C   0  0  0  0  0  0  0  0  0  0  0  0
  2  1  1  0  0  0  0
  3  2  2  0  0  0  0
  3  4  1  0  0  0  0
  5  3  1  0  0  0  0
  5  6  1  0  0  0  0
  7  5  2  0  0  0  0
  8  7  1  0  0  0  0
  1  8  2  0  0  0  0
  8  9  1  0  0  0  0
  1 10  1  0  0  0  0
 11 10  1  0  0  0  0
 12 11  2  0  0  0  0
 13 12  1  0  0  0  0
 14 13  2  0  0  0  0
 15 14  1  0  0  0  0
 10 15  2  0  0  0  0
M  END
> <ChemID>
100747

> <CAS>
15862-07-4

> <Original_SMILES>
Clc1cc(-c2ccccc2)c(Cl)cc1Cl

> <preferred_name>
2,4,5-Trichlorobiphenyl

> <dsstox_substance_id>
DTXSID0073405

> <dsstox_compound_id>
DTXCID6035100

> <qc_level>
Public_High

> <Canonical_QSARr>
ClC1C=C(Cl)C(Cl)=CC=1C1C=CC=CC=1

> <InChI_Code_QSARr>
InChI=1S/C12H7Cl3/c13-10-7-12(15)11(14)6-9(10)8-4-2-1-3-5-8/h1-7H

> <InChI Key_QSARr>
VGVIKVCCUATMNG-UHFFFAOYSA-N

> <Salt_Solvent>


> <Salt_Solvent_ID>
0

> <MPID>
99236

> <OH Reference>
ANDERSON,PN & HITES,RA (1996A)

> <OH>
1.3E-12

> <OH Temperature>
25.0

> <LogOH>
-11.88605664769318

> <Tr_1_Tst_0>
1

$$$$
100748
  Mrv171c012241912032D          

 15 16  0  0  0  0            999 V2000
    0.3334    1.8425    0.0000 C   0  0  0  0  0  0  0  0  0  0  0  0
    0.3334    2.6675    0.0000 C   0  0  0  0  0  0  0  0  0  0  0  0
   -0.3811    3.0800    0.0000 C   0  0  0  0  0  0  0  0  0  0  0  0
   -0.3811    3.9050    0.0000 Cl  0  0  0  0  0  0  0  0  0  0  0  0
   -1.0955    2.6675    0.0000 C   0  0  0  0  0  0  0  0  0  0  0  0
   -1.0955    1.8425    0.0000 C   0  0  0  0  0  0  0  0  0  0  0  0
   -0.3811    1.4300    0.0000 C   0  0  0  0  0  0  0  0  0  0  0  0
   -0.3811    0.6050    0.0000 Cl  0  0  0  0  0  0  0  0  0  0  0  0
    1.0479    1.4300    0.0000 C   0  0  0  0  0  0  0  0  0  0  0  0
    1.0479    0.6050    0.0000 C   0  0  0  0  0  0  0  0  0  0  0  0
    1.7624    0.1925    0.0000 C   0  0  0  0  0  0  0  0  0  0  0  0
    2.4768    0.6050    0.0000 C   0  0  0  0  0  0  0  0  0  0  0  0
    3.1913    0.1925    0.0000 Cl  0  0  0  0  0  0  0  0  0  0  0  0
    2.4768    1.4300    0.0000 C   0  0  0  0  0  0  0  0  0  0  0  0
    1.7624    1.8425    0.0000 C   0  0  0  0  0  0  0  0  0  0  0  0
  2  1  1  0  0  0  0
  3  2  2  0  0  0  0
  3  4  1  0  0  0  0
  5  3  1  0  0  0  0
  6  5  2  0  0  0  0
  7  6  1  0  0  0  0
  1  7  2  0  0  0  0
  7  8  1  0  0  0  0
  1  9  1  0  0  0  0
 10  9  1  0  0  0  0
 11 10  2  0  0  0  0
 12 11  1  0  0  0  0
 12 13  1  0  0  0  0
 14 12  2  0  0  0  0
 15 14  1  0  0  0  0
  9 15  2  0  0  0  0
M  END
> <ChemID>
100748

> <CAS>
16606-02-3

> <Original_SMILES>
Clc1ccc(Cl)cc1-c1ccc(Cl)cc1

> <preferred_name>
2,4',5-Trichlorobiphenyl

> <dsstox_substance_id>
DTXSID9073410

> <dsstox_compound_id>
DTXCID9035333

> <qc_level>
Public_High

> <Canonical_QSARr>
ClC1=CC(C2C=CC(Cl)=CC=2)=C(Cl)C=C1

> <InChI_Code_QSARr>
InChI=1S/C12H7Cl3/c13-9-3-1-8(2-4-9)11-7-10(14)5-6-12(11)15/h1-7H

> <InChI Key_QSARr>
VAHKBZSAUKPEOV-UHFFFAOYSA-N

> <Salt_Solvent>


> <Salt_Solvent_ID>
0

> <MPID>
99237

> <OH Reference>
ANDERSON,PN & HITES,RA (1996A)

> <OH>
1.2E-12

> <OH Temperature>
25.0

> <LogOH>
-11.920818753952377

> <Tr_1_Tst_0>
1

$$$$
100749
  Mrv171c012241912032D          

  7  6  0  0  0  0            999 V2000
    1.5933   -1.5307    0.0000 P   0  0  0  0  0  0  0  0  0  0  0  0
    2.3078   -1.1182    0.0000 N   0  0  0  0  0  0  0  0  0  0  0  0
    0.8789   -1.9432    0.0000 S   0  0  0  0  0  0  0  0  0  0  0  0
    2.0058   -2.2452    0.0000 O   0  0  0  0  0  0  0  0  0  0  0  0
    2.8308   -2.2452    0.0000 C   0  0  0  0  0  0  0  0  0  0  0  0
    1.1808   -0.8162    0.0000 O   0  0  0  0  0  0  0  0  0  0  0  0
    0.3558   -0.8162    0.0000 C   0  0  0  0  0  0  0  0  0  0  0  0
  1  2  1  0  0  0  0
  1  3  2  0  0  0  0
  1  4  1  0  0  0  0
  4  5  1  0  0  0  0
  1  6  1  0  0  0  0
  6  7  1  0  0  0  0
M  END
> <ChemID>
100749

> <CAS>
17321-47-0

> <Original_SMILES>
COP(N)(=S)OC

> <preferred_name>
O,O-Dimethyl phosphoramidothioate

> <dsstox_substance_id>
DTXSID4027789

> <dsstox_compound_id>
DTXCID107789

> <qc_level>
DSSTox_Low

> <Canonical_QSARr>
COP(N)(=S)OC

> <InChI_Code_QSARr>
InChI=1S/C2H8NO2PS/c1-4-6(3,7)5-2/h1-2H3,(H2,3,7)

> <InChI Key_QSARr>
NKYPKIVMIGIWOB-UHFFFAOYSA-N

> <Salt_Solvent>


> <Salt_Solvent_ID>
0

> <MPID>
99238

> <OH Reference>
ATKINSON,R (1989)

> <OH>
2.44E-10

> <OH Temperature>
25.0

> <LogOH>
-9.612610173661249

> <Tr_1_Tst_0>
0

$$$$
100751
  Mrv171c012241912032D          

 17 18  0  0  0  0            999 V2000
    2.1100   -1.7328    0.0000 C   0  0  0  0  0  0  0  0  0  0  0  0
    2.1100   -2.5578    0.0000 C   0  0  0  0  0  0  0  0  0  0  0  0
    1.3956   -2.9703    0.0000 C   0  0  0  0  0  0  0  0  0  0  0  0
    1.3956   -3.7953    0.0000 C   0  0  0  0  0  0  0  0  0  0  0  0
    2.1100   -4.2078    0.0000 C   0  0  0  0  0  0  0  0  0  0  0  0
    2.8245   -3.7953    0.0000 C   0  0  0  0  0  0  0  0  0  0  0  0
    2.8245   -2.9703    0.0000 C   0  0  0  0  0  0  0  0  0  0  0  0
    2.8245   -1.3203    0.0000 C   0  0  0  0  0  0  0  0  0  0  0  0
    3.5390   -1.7328    0.0000 Cl  0  0  0  0  0  0  0  0  0  0  0  0
    2.8245   -0.4953    0.0000 C   0  0  0  0  0  0  0  0  0  0  0  0
    3.5390   -0.0828    0.0000 Cl  0  0  0  0  0  0  0  0  0  0  0  0
    2.1100   -0.0828    0.0000 C   0  0  0  0  0  0  0  0  0  0  0  0
    2.1100    0.7422    0.0000 Cl  0  0  0  0  0  0  0  0  0  0  0  0
    1.3956   -0.4953    0.0000 C   0  0  0  0  0  0  0  0  0  0  0  0
    0.6811   -0.0828    0.0000 Cl  0  0  0  0  0  0  0  0  0  0  0  0
    1.3956   -1.3203    0.0000 C   0  0  0  0  0  0  0  0  0  0  0  0
    0.6811   -1.7328    0.0000 Cl  0  0  0  0  0  0  0  0  0  0  0  0
  1  2  1  0  0  0  0
  3  2  1  0  0  0  0
  4  3  2  0  0  0  0
  5  4  1  0  0  0  0
  6  5  2  0  0  0  0
  7  6  1  0  0  0  0
  2  7  2  0  0  0  0
  8  1  1  0  0  0  0
  8  9  1  0  0  0  0
 10  8  2  0  0  0  0
 10 11  1  0  0  0  0
 12 10  1  0  0  0  0
 12 13  1  0  0  0  0
 14 12  2  0  0  0  0
 14 15  1  0  0  0  0
 16 14  1  0  0  0  0
  1 16  2  0  0  0  0
 16 17  1  0  0  0  0
M  END
> <ChemID>
100751

> <CAS>
18259-05-7

> <Original_SMILES>
Clc1c(Cl)c(Cl)c(-c2ccccc2)c(Cl)c1Cl

> <preferred_name>


> <dsstox_substance_id>
DTXSID40864820

> <dsstox_compound_id>
DTXCID20813295

> <qc_level>


> <Canonical_QSARr>
ClC1=C(C2C=CC=CC=2)C(Cl)=C(Cl)C(Cl)=C1Cl

> <InChI_Code_QSARr>
InChI=1S/C12H5Cl5/c13-8-7(6-4-2-1-3-5-6)9(14)11(16)12(17)10(8)15/h1-5H

> <InChI Key_QSARr>
GGMPTLAAIUQMIE-UHFFFAOYSA-N

> <Salt_Solvent>


> <Salt_Solvent_ID>
0

> <MPID>
99239

> <OH Reference>
ANDERSON,PN & HITES,RA (1996A)

> <OH>
8.999999999999998E-13

> <OH Temperature>
25.0

> <LogOH>
-12.045757490560685

> <Tr_1_Tst_0>
1

$$$$
100752
  Mrv171c012241912032D          

  8  7  0  0  0  0            999 V2000
    3.3000    1.4289    0.0000 O   0  0  0  0  0  0  0  0  0  0  0  0
    2.4750    1.4289    0.0000 C   0  0  0  0  0  0  0  0  0  0  0  0
    2.0625    0.7145    0.0000 C   0  0  0  0  0  0  0  0  0  0  0  0
    1.2375    0.7145    0.0000 C   0  0  0  0  0  0  0  0  0  0  0  0
    0.8250    0.0000    0.0000 C   0  0  0  0  0  0  0  0  0  0  0  0
    0.0000    0.0000    0.0000 C   0  0  0  0  0  0  0  0  0  0  0  0
   -0.4125   -0.7145    0.0000 C   0  0  0  0  0  0  0  0  0  0  0  0
    0.0000   -1.4289    0.0000 O   0  0  0  0  0  0  0  0  0  0  0  0
  1  2  2  0  0  0  0
  3  2  1  4  0  0  0
  3  4  2  0  0  0  0
  5  4  1  4  0  0  0
  5  6  2  0  0  0  0
  6  7  1  0  0  0  0
  7  8  2  0  0  0  0
M  END
> <ChemID>
100752

> <CAS>
18409-46-6|53042-85-6

> <Original_SMILES>
O=C/C=C/C=C/C=O

> <preferred_name>


> <dsstox_substance_id>
DTXSID20878889|DTXSID60878888

> <dsstox_compound_id>


> <qc_level>


> <Canonical_QSARr>
O=CC=CC=CC=O

> <InChI_Code_QSARr>
InChI=1S/C6H6O2/c7-5-3-1-2-4-6-8/h1-6H

> <InChI Key_QSARr>
NDCAAPXLWRAESY-UHFFFAOYSA-N

> <Salt_Solvent>


> <Salt_Solvent_ID>
0

> <MPID>
99240|99266

> <OH Reference>
KLOTZ,BG ET AL. (1995)

> <OH>
9.85E-11

> <OH Temperature>
25.0

> <LogOH>
-10.006563769502385

> <Tr_1_Tst_0>
1

$$$$
100753
  Mrv171c012241912032D          

  9  8  0  0  0  0            999 V2000
    1.8724    0.9531    0.0000 C   0  0  0  0  0  0  0  0  0  0  0  0
    1.4599    0.2386    0.0000 C   0  0  0  0  0  0  0  0  0  0  0  0
    1.8724   -0.4759    0.0000 C   0  0  0  0  0  0  0  0  0  0  0  0
    1.1580   -0.8884    0.0000 C   0  0  0  0  0  0  0  0  0  0  0  0
    2.5869   -0.0634    0.0000 O   0  0  0  0  0  0  0  0  0  0  0  0
    2.2849   -1.1903    0.0000 C   0  0  0  0  0  0  0  0  0  0  0  0
    1.8724   -1.9048    0.0000 C   0  0  0  0  0  0  0  0  0  0  0  0
    2.2849   -2.6193    0.0000 C   0  0  0  0  0  0  0  0  0  0  0  0
    1.0474   -1.9048    0.0000 C   0  0  0  0  0  0  0  0  0  0  0  0
  1  2  1  0  0  0  0
  2  3  1  0  0  0  0
  3  4  1  0  0  0  0
  3  5  1  0  0  0  0
  3  6  1  0  0  0  0
  6  7  1  0  0  0  0
  7  8  1  0  0  0  0
  7  9  1  0  0  0  0
M  END
> <ChemID>
100753

> <CAS>
4209-91-0

> <Original_SMILES>
CCC(C)(O)CC(C)C

> <preferred_name>


> <dsstox_substance_id>
DTXSID10871288

> <dsstox_compound_id>
DTXCID90818959

> <qc_level>


> <Canonical_QSARr>
CCC(C)(O)CC(C)C

> <InChI_Code_QSARr>
InChI=1S/C8H18O/c1-5-8(4,9)6-7(2)3/h7,9H,5-6H2,1-4H3

> <InChI Key_QSARr>
INMGJWCKWKKMPN-UHFFFAOYSA-N

> <Salt_Solvent>


> <Salt_Solvent_ID>
0

> <MPID>
99241

> <OH Reference>
ATKINSON,R & ASCHMANN,SM (1995)

> <OH>
1.36E-11

> <OH Temperature>
23.0

> <LogOH>
-10.866461091629764

> <Tr_1_Tst_0>
1

$$$$
100757
  Mrv171c012241912032D          

  5  4  0  0  0  0            999 V2000
    4.3165    0.3462    0.0000 O   0  0  0  0  0  0  0  0  0  0  0  0
    3.4915    0.3462    0.0000 C   0  0  0  0  0  0  0  0  0  0  0  0
    2.6665    0.3462    0.0000 C   0  0  0  0  0  0  0  0  0  0  0  0
    2.2540   -0.3683    0.0000 C   0  0  0  0  0  0  0  0  0  0  0  0
    2.6665   -1.0828    0.0000 C   0  0  0  0  0  0  0  0  0  0  0  0
  1  2  2  0  0  0  0
  2  3  2  0  0  0  0
  3  4  1  0  0  0  0
  4  5  1  0  0  0  0
M  END
> <ChemID>
100757

> <CAS>
20334-52-5

> <Original_SMILES>
CCC=C=O

> <preferred_name>
Ethylketene

> <dsstox_substance_id>
DTXSID90174244

> <dsstox_compound_id>
DTXCID9096735

> <qc_level>
Public_Medium

> <Canonical_QSARr>
CCC=C=O

> <InChI_Code_QSARr>
InChI=1S/C4H6O/c1-2-3-4-5/h3H,2H2,1H3

> <InChI Key_QSARr>
JSEMCPMTAXQTJN-UHFFFAOYSA-N

> <Salt_Solvent>


> <Salt_Solvent_ID>
0

> <MPID>
99242

> <OH Reference>
ATKINSON,R (1989)

> <OH>
1.18E-10

> <OH Temperature>
25.0

> <LogOH>
-9.928117992693881

> <Tr_1_Tst_0>
1

$$$$
100759
  Mrv171c012241912032D          

  6  6  0  0  0  0            999 V2000
    1.8922   -0.0492    0.0000 O   0  0  0  0  0  0  0  0  0  0  0  0
    2.1472   -0.8338    0.0000 C   0  0  0  0  0  0  0  0  0  0  0  0
    2.9722   -0.8338    0.0000 C   0  0  0  0  0  0  0  0  0  0  0  0
    3.2271   -0.0492    0.0000 C   0  0  0  0  0  0  0  0  0  0  0  0
    2.5597    0.4357    0.0000 C   0  0  0  0  0  0  0  0  0  0  0  0
    2.5597    1.2607    0.0000 O   0  0  0  0  0  0  0  0  0  0  0  0
  2  1  1  0  0  0  0
  3  2  2  0  0  0  0
  4  3  1  0  0  0  0
  5  4  1  0  0  0  0
  1  5  1  0  0  0  0
  5  6  2  0  0  0  0
M  END
> <ChemID>
100759

> <CAS>
20825-71-2

> <Original_SMILES>
O=C1CC=CO1

> <preferred_name>
2(3H)-Furanone

> <dsstox_substance_id>
DTXSID50174942

> <dsstox_compound_id>
DTXCID2097433

> <qc_level>
Public_Medium

> <Canonical_QSARr>
O=C1CC=CO1

> <InChI_Code_QSARr>
InChI=1S/C4H4O2/c5-4-2-1-3-6-4/h1,3H,2H2

> <InChI Key_QSARr>
RHDGNLCLDBVESU-UHFFFAOYSA-N

> <Salt_Solvent>


> <Salt_Solvent_ID>
0

> <MPID>
99243

> <OH Reference>
BIERBACH,A ET AL. (1994)

> <OH>
4.45E-11

> <OH Temperature>
23.0

> <LogOH>
-10.351639989019088

> <Tr_1_Tst_0>
1

$$$$
100760
  Mrv171c012241912032D          

  9  8  0  0  0  0            999 V2000
   -1.4289    0.2062    0.0000 N   0  3  0  0  0  0  0  0  0  0  0  0
   -0.7145   -0.2063    0.0000 O   0  0  0  0  0  0  0  0  0  0  0  0
    0.0000    0.2062    0.0000 C   0  0  0  0  0  0  0  0  0  0  0  0
    0.7145   -0.2063    0.0000 C   0  0  0  0  0  0  0  0  0  0  0  0
    1.4289    0.2062    0.0000 C   0  0  0  0  0  0  0  0  0  0  0  0
    2.1434   -0.2063    0.0000 C   0  0  0  0  0  0  0  0  0  0  0  0
    1.4289    1.0312    0.0000 C   0  0  0  0  0  0  0  0  0  0  0  0
   -2.1434   -0.2063    0.0000 O   0  0  0  0  0  0  0  0  0  0  0  0
   -1.4289    1.0312    0.0000 O   0  5  0  0  0  0  0  0  0  0  0  0
  1  2  1  0  0  0  0
  2  3  1  0  0  0  0
  3  4  1  0  0  0  0
  4  5  1  0  0  0  0
  5  6  1  0  0  0  0
  5  7  1  0  0  0  0
  1  8  2  0  0  0  0
  1  9  1  0  0  0  0
M  CHG  2   1   1   9  -1
M  END
> <ChemID>
100760

> <CAS>
543-87-3

> <Original_SMILES>
CC(C)CCO[N+]([O-])=O

> <preferred_name>
Isoamyl nitrate

> <dsstox_substance_id>
DTXSID70110029

> <dsstox_compound_id>
DTXCID4065284

> <qc_level>
DSSTox_High

> <Canonical_QSARr>
CC(C)CCO[N+]([O-])=O

> <InChI_Code_QSARr>
InChI=1S/C5H11NO3/c1-5(2)3-4-9-6(7)8/h5H,3-4H2,1-2H3

> <InChI Key_QSARr>
NTHGIYFSMNNHSC-UHFFFAOYSA-N

> <Salt_Solvent>


> <Salt_Solvent_ID>
0

> <MPID>
99244

> <OH Reference>
KWOK,ESC & ATKINSON,R (1994)

> <OH>
1.85E-12

> <OH Temperature>
25.0

> <LogOH>
-11.73282827159698

> <Tr_1_Tst_0>
1

$$$$
100763
  Mrv171c012241912032D          

  6  5  0  0  0  0            999 V2000
    3.7934    0.4620    0.0000 O   0  0  0  0  0  0  0  0  0  0  0  0
    3.0789    0.0495    0.0000 C   0  0  0  0  0  0  0  0  0  0  0  0
    2.3644    0.4620    0.0000 C   0  0  0  0  0  0  0  0  0  0  0  0
    1.6500    0.0495    0.0000 O   0  0  0  0  0  0  0  0  0  0  0  0
    4.5079    0.0495    0.0000 C   0  0  0  0  0  0  0  0  0  0  0  0
    5.2223    0.4620    0.0000 C   0  0  0  0  0  0  0  0  0  0  0  0
  1  2  1  0  0  0  0
  2  3  1  0  0  0  0
  3  4  2  0  0  0  0
  1  5  1  0  0  0  0
  5  6  1  0  0  0  0
M  END
> <ChemID>
100763

> <CAS>
22056-82-2

> <Original_SMILES>
CCOCC=O

> <preferred_name>
Ethoxyacetaldehyde

> <dsstox_substance_id>
DTXSID20176539

> <dsstox_compound_id>
DTXCID9099030

> <qc_level>
Public_Medium

> <Canonical_QSARr>
CCOCC=O

> <InChI_Code_QSARr>
InChI=1S/C4H8O2/c1-2-6-4-3-5/h3H,2,4H2,1H3

> <InChI Key_QSARr>
IAHZBRPNDIVNNR-UHFFFAOYSA-N

> <Salt_Solvent>


> <Salt_Solvent_ID>
0

> <MPID>
99245

> <OH Reference>
STEMMLER,K ET AL. (1996)

> <OH>
1.66E-11

> <OH Temperature>
25.0

> <LogOH>
-10.779891911959965

> <Tr_1_Tst_0>
1

$$$$
100764
  Mrv171c012241912032D          

  8  7  0  0  0  0            999 V2000
    3.9482   -0.5018    0.0000 S   0  0  0  0  0  0  0  0  0  0  0  0
    4.6626   -0.0893    0.0000 C   0  0  0  0  0  0  0  0  0  0  0  0
    3.2337   -0.0893    0.0000 P   0  0  0  0  0  0  0  0  0  0  0  0
    3.6462    0.6252    0.0000 O   0  0  0  0  0  0  0  0  0  0  0  0
    2.5192    0.3232    0.0000 O   0  0  0  0  0  0  0  0  0  0  0  0
    1.8047   -0.0893    0.0000 C   0  0  0  0  0  0  0  0  0  0  0  0
    2.8212   -0.8038    0.0000 S   0  0  0  0  0  0  0  0  0  0  0  0
    1.9962   -0.8038    0.0000 C   0  0  0  0  0  0  0  0  0  0  0  0
  1  2  1  0  0  0  0
  1  3  1  0  0  0  0
  3  4  2  0  0  0  0
  3  5  1  0  0  0  0
  5  6  1  0  0  0  0
  3  7  1  0  0  0  0
  7  8  1  0  0  0  0
M  END
> <ChemID>
100764

> <CAS>
22608-53-3

> <Original_SMILES>
COP(=O)(SC)SC

> <preferred_name>
O,S,S-Trimethyl phosphorodithioate

> <dsstox_substance_id>
DTXSID40177129

> <dsstox_compound_id>
DTXCID3099620

> <qc_level>
Public_Medium

> <Canonical_QSARr>
COP(=O)(SC)SC

> <InChI_Code_QSARr>
InChI=1S/C3H9O2PS2/c1-5-6(4,7-2)8-3/h1-3H3

> <InChI Key_QSARr>
NIJIQSOYZWDHAQ-UHFFFAOYSA-N

> <Salt_Solvent>


> <Salt_Solvent_ID>
0

> <MPID>
99246

> <OH Reference>
KWOK,ESC & ATKINSON,R (1994)

> <OH>
9.590000000000001E-12

> <OH Temperature>
25.0

> <LogOH>
-11.018181392829336

> <Tr_1_Tst_0>
1

$$$$
100766
  Mrv171c012241912032D          

 10 11  0  0  0  0            999 V2000
    2.1083   -1.4576    0.0000 C   0  0  0  0  0  0  0  0  0  0  0  0
    2.5291   -2.1672    0.0000 O   0  0  0  0  0  0  0  0  0  0  0  0
    1.2833   -1.4672    0.0000 C   0  0  0  0  0  0  0  0  0  0  0  0
    1.1780   -0.6714    0.0000 C   0  0  0  0  0  0  0  0  0  0  0  0
    1.2668   -0.0383    0.0000 C   0  0  0  0  0  0  0  0  0  0  0  0
    0.8626   -0.7575    0.0000 C   0  0  0  0  0  0  0  0  0  0  0  0
    0.1297   -0.3787    0.0000 C   0  0  0  0  0  0  0  0  0  0  0  0
    0.1387   -1.1533    0.0000 C   0  0  0  0  0  0  0  0  0  0  0  0
    2.0917   -0.0288    0.0000 C   0  0  0  0  0  0  0  0  0  0  0  0
    2.5125   -0.7384    0.0000 C   0  0  0  0  0  0  0  0  0  0  0  0
  1  2  2  0  0  0  0
  3  1  1  0  0  0  0
  3  4  1  0  0  0  0
  4  5  1  0  0  0  0
  5  6  1  0  0  0  0
  6  3  1  0  0  0  0
  6  7  1  0  0  0  0
  6  8  1  0  0  0  0
  9  5  1  0  0  0  0
 10  9  1  0  0  0  0
  1 10  1  0  0  0  0
M  END
> <ChemID>
100766

> <CAS>
24903-95-5

> <Original_SMILES>
CC1(C)C2CC1CCC2=O

> <preferred_name>


> <dsstox_substance_id>
DTXSID20865173

> <dsstox_compound_id>
DTXCID80813610

> <qc_level>


> <Canonical_QSARr>
CC1(C)C2CC1CCC2=O

> <InChI_Code_QSARr>
InChI=1S/C9H14O/c1-9(2)6-3-4-8(10)7(9)5-6/h6-7H,3-5H2,1-2H3

> <InChI Key_QSARr>
XZFDKWMYCUEKSS-UHFFFAOYSA-N

> <Salt_Solvent>


> <Salt_Solvent_ID>
0

> <MPID>
99247

> <OH Reference>
ALVARADO,A ET AL. (1998)

> <OH>
1.45E-11

> <OH Temperature>
25.0

> <LogOH>
-10.838631997765015

> <Tr_1_Tst_0>
1

$$$$
100767
  Mrv171c012241912032D          

 13 12  0  0  0  0            999 V2000
    2.8042   -1.4678    0.0000 F   0  0  0  0  0  0  0  0  0  0  0  0
    2.8042   -0.6428    0.0000 C   0  0  0  0  0  0  0  0  0  0  0  0
    2.8042    0.1822    0.0000 C   0  0  0  0  0  0  0  0  0  0  0  0
    3.5186    0.5947    0.0000 C   0  0  0  0  0  0  0  0  0  0  0  0
    4.2331    1.0072    0.0000 F   0  0  0  0  0  0  0  0  0  0  0  0
    3.1061    1.3092    0.0000 F   0  0  0  0  0  0  0  0  0  0  0  0
    3.9311   -0.1198    0.0000 F   0  0  0  0  0  0  0  0  0  0  0  0
    2.0897    0.5947    0.0000 O   0  0  0  0  0  0  0  0  0  0  0  0
    2.0897    1.4197    0.0000 C   0  0  0  0  0  0  0  0  0  0  0  0
    1.3752    1.8322    0.0000 F   0  0  0  0  0  0  0  0  0  0  0  0
    2.8042    1.8322    0.0000 F   0  0  0  0  0  0  0  0  0  0  0  0
    3.6292   -0.6428    0.0000 F   0  0  0  0  0  0  0  0  0  0  0  0
    1.9792   -0.6428    0.0000 F   0  0  0  0  0  0  0  0  0  0  0  0
  1  2  1  0  0  0  0
  2  3  1  0  0  0  0
  3  4  1  0  0  0  0
  4  5  1  0  0  0  0
  4  6  1  0  0  0  0
  4  7  1  0  0  0  0
  3  8  1  0  0  0  0
  8  9  1  0  0  0  0
  9 10  1  0  0  0  0
  9 11  1  0  0  0  0
  2 12  1  0  0  0  0
  2 13  1  0  0  0  0
M  END
> <ChemID>
100767

> <CAS>
26103-08-2

> <Original_SMILES>
FC(F)OC(C(F)(F)F)C(F)(F)F

> <preferred_name>
26103-08-2

> <dsstox_substance_id>
DTXSID60448843

> <dsstox_compound_id>
DTXCID60399664

> <qc_level>
Public_Low

> <Canonical_QSARr>
FC(F)OC(C(F)(F)F)C(F)(F)F

> <InChI_Code_QSARr>
InChI=1S/C4H2F8O/c5-2(6)13-1(3(7,8)9)4(10,11)12/h1-2H

> <InChI Key_QSARr>
UNIYHTKWMKXESF-UHFFFAOYSA-N

> <Salt_Solvent>


> <Salt_Solvent_ID>
0

> <MPID>
99248

> <OH Reference>
HEATHFIELD,AE ET AL. (1998)

> <OH>
7.5E-14

> <OH Temperature>
25.0

> <LogOH>
-13.124938736608309

> <Tr_1_Tst_0>
0

$$$$
100769
  Mrv171c012241912032D          

 10  9  0  0  0  0            999 V2000
    2.3462    0.6398    0.0000 F   0  0  0  0  0  0  0  0  0  0  0  0
    1.9337   -0.0746    0.0000 C   0  0  0  0  0  0  0  0  0  0  0  0
    1.2193    0.3379    0.0000 F   0  0  0  0  0  0  0  0  0  0  0  0
    2.6482   -0.4871    0.0000 F   0  0  0  0  0  0  0  0  0  0  0  0
    1.5212   -0.7891    0.0000 C   0  0  0  0  0  0  0  0  0  0  0  0
    0.6962   -0.7891    0.0000 Cl  0  0  0  0  0  0  0  0  0  0  0  0
    1.9337   -1.5036    0.0000 O   0  0  0  0  0  0  0  0  0  0  0  0
    1.5212   -2.2180    0.0000 C   0  0  0  0  0  0  0  0  0  0  0  0
    1.9337   -2.9325    0.0000 F   0  0  0  0  0  0  0  0  0  0  0  0
    0.6962   -2.2180    0.0000 F   0  0  0  0  0  0  0  0  0  0  0  0
  1  2  1  0  0  0  0
  2  3  1  0  0  0  0
  2  4  1  0  0  0  0
  2  5  1  0  0  0  0
  5  6  1  0  0  0  0
  5  7  1  0  0  0  0
  7  8  1  0  0  0  0
  8  9  1  0  0  0  0
  8 10  1  0  0  0  0
M  END
> <ChemID>
100769

> <CAS>
26675-46-7

> <Original_SMILES>
FC(F)OC(Cl)C(F)(F)F

> <preferred_name>
Isoflurane

> <dsstox_substance_id>
DTXSID3020752

> <dsstox_compound_id>
DTXCID30752

> <qc_level>
DSSTox_Low

> <Canonical_QSARr>
FC(F)OC(Cl)C(F)(F)F

> <InChI_Code_QSARr>
InChI=1S/C3H2ClF5O/c4-1(3(7,8)9)10-2(5)6/h1-2H

> <InChI Key_QSARr>
PIWKPBJCKXDKJR-UHFFFAOYSA-N

> <Salt_Solvent>


> <Salt_Solvent_ID>
0

> <MPID>
99249

> <OH Reference>
TOKUHASHI,K ET AL. (1999A)

> <OH>
1.509999999999999E-14

> <OH Temperature>
25.0

> <LogOH>
-13.821023052706826

> <Tr_1_Tst_0>
1

$$$$
100770
  Mrv171c012241912032D          

 12 12  0  0  0  0            999 V2000
    0.5765   -0.4631    0.0000 O   0  0  0  0  0  0  0  0  0  0  0  0
    1.2910   -0.0506    0.0000 C   0  0  0  0  0  0  0  0  0  0  0  0
    1.2910    0.7744    0.0000 C   0  0  0  0  0  0  0  0  0  0  0  0
    2.0055   -0.4631    0.0000 C   0  0  0  0  0  0  0  0  0  0  0  0
    2.7199   -0.0506    0.0000 C   0  0  0  0  0  0  0  0  0  0  0  0
    3.5449   -0.0506    0.0000 C   0  0  0  0  0  0  0  0  0  0  0  0
    4.2594   -0.4631    0.0000 C   0  0  0  0  0  0  0  0  0  0  0  0
    4.2594   -1.2881    0.0000 C   0  0  0  0  0  0  0  0  0  0  0  0
    4.9739   -1.7006    0.0000 O   0  0  0  0  0  0  0  0  0  0  0  0
    3.1324    0.6638    0.0000 C   0  0  0  0  0  0  0  0  0  0  0  0
    3.6056    1.3396    0.0000 C   0  0  0  0  0  0  0  0  0  0  0  0
    2.6592    1.3396    0.0000 C   0  0  0  0  0  0  0  0  0  0  0  0
  1  2  2  0  0  0  0
  2  3  1  0  0  0  0
  2  4  1  0  0  0  0
  4  5  1  0  0  0  0
  6  5  1  0  0  0  0
  6  7  1  0  0  0  0
  7  8  1  0  0  0  0
  8  9  2  0  0  0  0
 10  6  1  0  0  0  0
  5 10  1  0  0  0  0
 10 11  1  0  0  0  0
 10 12  1  0  0  0  0
M  END
> <ChemID>
100770

> <CAS>
26946-56-5

> <Original_SMILES>
CC(=O)CC1C(CC=O)C1(C)C

> <preferred_name>
Cyclopropaneacetaldehyde, 2,2-dimethyl-3-(2-oxopropyl)-

> <dsstox_substance_id>
DTXSID10447169

> <dsstox_compound_id>
DTXCID30397990

> <qc_level>
Public_Low

> <Canonical_QSARr>
CC(=O)CC1C(CC=O)C1(C)C

> <InChI_Code_QSARr>
InChI=1S/C10H16O2/c1-7(12)6-9-8(4-5-11)10(9,2)3/h5,8-9H,4,6H2,1-3H3

> <InChI Key_QSARr>
DINMJPWMECTCJA-UHFFFAOYSA-N

> <Salt_Solvent>


> <Salt_Solvent_ID>
0

> <MPID>
99250

> <OH Reference>
ALVARADO,A ET AL. (1998)

> <OH>
4.8E-11

> <OH Temperature>
25.0

> <LogOH>
-10.31875876262443

> <Tr_1_Tst_0>
1

$$$$
100772
  Mrv171c012241912032D          

 12 11  0  0  0  0            999 V2000
    1.4417   -1.1253    0.0000 C   0  0  0  0  0  0  0  0  0  0  0  0
    0.7272   -1.5378    0.0000 O   0  0  0  0  0  0  0  0  0  0  0  0
    0.7272   -2.3628    0.0000 C   0  0  0  0  0  0  0  0  0  0  0  0
    0.0127   -2.7753    0.0000 F   0  0  0  0  0  0  0  0  0  0  0  0
    1.4417   -0.3003    0.0000 C   0  0  0  0  0  0  0  0  0  0  0  0
    1.4417    0.5247    0.0000 F   0  0  0  0  0  0  0  0  0  0  0  0
    2.2667   -0.3003    0.0000 F   0  0  0  0  0  0  0  0  0  0  0  0
    0.6167   -0.3003    0.0000 F   0  0  0  0  0  0  0  0  0  0  0  0
    2.1561   -1.5378    0.0000 C   0  0  0  0  0  0  0  0  0  0  0  0
    1.7436   -2.2523    0.0000 F   0  0  0  0  0  0  0  0  0  0  0  0
    2.5686   -0.8234    0.0000 F   0  0  0  0  0  0  0  0  0  0  0  0
    2.8706   -1.9503    0.0000 F   0  0  0  0  0  0  0  0  0  0  0  0
  1  2  1  0  0  0  0
  2  3  1  0  0  0  0
  3  4  1  0  0  0  0
  1  5  1  0  0  0  0
  5  6  1  0  0  0  0
  5  7  1  0  0  0  0
  5  8  1  0  0  0  0
  1  9  1  0  0  0  0
  9 10  1  0  0  0  0
  9 11  1  0  0  0  0
  9 12  1  0  0  0  0
M  END
> <ChemID>
100772

> <CAS>
28523-86-6

> <Original_SMILES>
FCOC(C(F)(F)F)C(F)(F)F

> <preferred_name>
Sevoflurane

> <dsstox_substance_id>
DTXSID8046614

> <dsstox_compound_id>
DTXCID6026614

> <qc_level>
DSSTox_Low

> <Canonical_QSARr>
FCOC(C(F)(F)F)C(F)(F)F

> <InChI_Code_QSARr>
InChI=1S/C4H3F7O/c5-1-12-2(3(6,7)8)4(9,10)11/h2H,1H2

> <InChI Key_QSARr>
DFEYYRMXOJXZRJ-UHFFFAOYSA-N

> <Salt_Solvent>


> <Salt_Solvent_ID>
0

> <MPID>
99251

> <OH Reference>
BROWN,AC ET AL. (1989)

> <OH>
7.3E-14

> <OH Temperature>
25.0

> <LogOH>
-13.136677139879545

> <Tr_1_Tst_0>
1

$$$$
100773
  Mrv171c012241912032D          

  8  7  0  0  0  0            999 V2000
    3.7932    0.4620    0.0000 O   0  0  0  0  0  0  0  0  0  0  0  0
    3.0787    0.0495    0.0000 C   0  0  0  0  0  0  0  0  0  0  0  0
    2.3642    0.4620    0.0000 C   0  0  0  0  0  0  0  0  0  0  0  0
    1.6497    0.0495    0.0000 O   0  0  0  0  0  0  0  0  0  0  0  0
    4.5076    0.0495    0.0000 C   0  0  0  0  0  0  0  0  0  0  0  0
    5.2221    0.4620    0.0000 C   0  0  0  0  0  0  0  0  0  0  0  0
    5.9366    0.0495    0.0000 C   0  0  0  0  0  0  0  0  0  0  0  0
    6.6510    0.4620    0.0000 C   0  0  0  0  0  0  0  0  0  0  0  0
  1  2  1  0  0  0  0
  2  3  1  0  0  0  0
  3  4  2  0  0  0  0
  1  5  1  0  0  0  0
  5  6  1  0  0  0  0
  6  7  1  0  0  0  0
  7  8  1  0  0  0  0
M  END
> <ChemID>
100773

> <CAS>
29043-89-8

> <Original_SMILES>
CCCCOCC=O

> <preferred_name>
n-Butoxyacetaldehyde

> <dsstox_substance_id>
DTXSID00183281

> <dsstox_compound_id>
DTXCID10105772

> <qc_level>
Public_Medium

> <Canonical_QSARr>
CCCCOCC=O

> <InChI_Code_QSARr>
InChI=1S/C6H12O2/c1-2-3-5-8-6-4-7/h4H,2-3,5-6H2,1H3

> <InChI Key_QSARr>
RPLPGIHCAYAYKX-UHFFFAOYSA-N

> <Salt_Solvent>


> <Salt_Solvent_ID>
0

> <MPID>
99252

> <OH Reference>
STEMMLER,K ET AL. (1997)

> <OH>
2.060000000000001E-11

> <OH Temperature>
25.0

> <LogOH>
-10.68613277963084

> <Tr_1_Tst_0>
0

$$$$
100774
  Mrv171c012241912032D          

 18 20  0  0  0  0            999 V2000
    2.8579   -0.0000    0.0000 C   0  0  0  0  0  0  0  0  0  0  0  0
    3.5724   -0.4125    0.0000 C   0  0  0  0  0  0  0  0  0  0  0  0
    3.5724   -1.2375    0.0000 Cl  0  0  0  0  0  0  0  0  0  0  0  0
    4.2868    0.0000    0.0000 C   0  0  0  0  0  0  0  0  0  0  0  0
    5.0013   -0.4125    0.0000 Cl  0  0  0  0  0  0  0  0  0  0  0  0
    4.2868    0.8250    0.0000 C   0  0  0  0  0  0  0  0  0  0  0  0
    5.0013    1.2375    0.0000 Cl  0  0  0  0  0  0  0  0  0  0  0  0
    3.5724    1.2375    0.0000 C   0  0  0  0  0  0  0  0  0  0  0  0
    3.5724    2.0625    0.0000 Cl  0  0  0  0  0  0  0  0  0  0  0  0
    2.8579    0.8250    0.0000 C   0  0  0  0  0  0  0  0  0  0  0  0
    2.1434    1.2375    0.0000 O   0  0  0  0  0  0  0  0  0  0  0  0
    1.4289    0.8250    0.0000 C   0  0  0  0  0  0  0  0  0  0  0  0
    1.4289    0.0000    0.0000 C   0  0  0  0  0  0  0  0  0  0  0  0
    0.7145   -0.4125    0.0000 C   0  0  0  0  0  0  0  0  0  0  0  0
    0.0000   -0.0000    0.0000 C   0  0  0  0  0  0  0  0  0  0  0  0
    0.0000    0.8250    0.0000 C   0  0  0  0  0  0  0  0  0  0  0  0
    0.7145    1.2375    0.0000 C   0  0  0  0  0  0  0  0  0  0  0  0
    2.1434   -0.4125    0.0000 O   0  0  0  0  0  0  0  0  0  0  0  0
  2  1  1  0  0  0  0
  2  3  1  0  0  0  0
  4  2  2  0  0  0  0
  4  5  1  0  0  0  0
  6  4  1  0  0  0  0
  6  7  1  0  0  0  0
  8  6  2  0  0  0  0
  8  9  1  0  0  0  0
 10  8  1  0  0  0  0
 10  1  2  0  0  0  0
 11 10  1  0  0  0  0
 12 11  1  0  0  0  0
 12 13  1  0  0  0  0
 13 14  2  0  0  0  0
 14 15  1  0  0  0  0
 15 16  2  0  0  0  0
 16 17  1  0  0  0  0
 17 12  2  0  0  0  0
 18 13  1  0  0  0  0
  1 18  1  0  0  0  0
M  END
> <ChemID>
100774

> <CAS>
30746-58-8

> <Original_SMILES>
Clc1c2Oc3ccccc3Oc2c(Cl)c(Cl)c1Cl

> <preferred_name>
1,2,3,4-Tetrachlorodibenzo-p-dioxin

> <dsstox_substance_id>
DTXSID7074030

> <dsstox_compound_id>
DTXCID5038252

> <qc_level>
Public_High

> <Canonical_QSARr>
ClC1C2OC3=CC=CC=C3OC=2C(Cl)=C(Cl)C=1Cl

> <InChI_Code_QSARr>
InChI=1S/C12H4Cl4O2/c13-7-8(14)10(16)12-11(9(7)15)17-5-3-1-2-4-6(5)18-12/h1-4H

> <InChI Key_QSARr>
DJHHDLMTUOLVHY-UHFFFAOYSA-N

> <Salt_Solvent>


> <Salt_Solvent_ID>
0

> <MPID>
99253

> <OH Reference>
BRUBAKER,WWJR & HITES,RA (1997)

> <OH>
8.4966E-13

> <OH Temperature>
25.0

> <LogOH>
-12.07075482683131

> <Tr_1_Tst_0>
1

$$$$
100777
  Mrv171c012241912032D          

 14 15  0  0  0  0            999 V2000
    3.2597   -0.7351    0.0000 C   0  0  0  0  0  0  0  0  0  0  0  0
    3.9742   -1.1476    0.0000 Cl  0  0  0  0  0  0  0  0  0  0  0  0
    3.2597    0.0899    0.0000 C   0  0  0  0  0  0  0  0  0  0  0  0
    2.5452    0.5024    0.0000 C   0  0  0  0  0  0  0  0  0  0  0  0
    2.5452    1.3274    0.0000 Cl  0  0  0  0  0  0  0  0  0  0  0  0
    1.8307    0.0899    0.0000 C   0  0  0  0  0  0  0  0  0  0  0  0
    1.8307   -0.7351    0.0000 C   0  0  0  0  0  0  0  0  0  0  0  0
    2.5452   -1.1476    0.0000 C   0  0  0  0  0  0  0  0  0  0  0  0
    2.5452   -1.9726    0.0000 C   0  0  0  0  0  0  0  0  0  0  0  0
    1.8307   -2.3851    0.0000 C   0  0  0  0  0  0  0  0  0  0  0  0
    1.8307   -3.2101    0.0000 C   0  0  0  0  0  0  0  0  0  0  0  0
    2.5452   -3.6226    0.0000 C   0  0  0  0  0  0  0  0  0  0  0  0
    3.2597   -3.2101    0.0000 C   0  0  0  0  0  0  0  0  0  0  0  0
    3.2597   -2.3851    0.0000 C   0  0  0  0  0  0  0  0  0  0  0  0
  1  2  1  0  0  0  0
  3  1  1  0  0  0  0
  4  3  2  0  0  0  0
  4  5  1  0  0  0  0
  6  4  1  0  0  0  0
  7  6  2  0  0  0  0
  8  7  1  0  0  0  0
  1  8  2  0  0  0  0
  8  9  1  0  0  0  0
 10  9  2  0  0  0  0
 11 10  1  0  0  0  0
 12 11  2  0  0  0  0
 13 12  1  0  0  0  0
 14 13  2  0  0  0  0
  9 14  1  0  0  0  0
M  END
> <ChemID>
100777

> <CAS>
33284-50-3

> <Original_SMILES>
Clc1cc(Cl)c(cc1)-c1ccccc1

> <preferred_name>
2,4-Dichlorobiphenyl

> <dsstox_substance_id>
DTXSID8040301

> <dsstox_compound_id>
DTXCID6020301

> <qc_level>
DSSTox_Low

> <Canonical_QSARr>
ClC1C=C(Cl)C=CC=1C1C=CC=CC=1

> <InChI_Code_QSARr>
InChI=1S/C12H8Cl2/c13-10-6-7-11(12(14)8-10)9-4-2-1-3-5-9/h1-8H

> <InChI Key_QSARr>
WEJZHZJJXPXXMU-UHFFFAOYSA-N

> <Salt_Solvent>


> <Salt_Solvent_ID>
0

> <MPID>
99254

> <OH Reference>
ANDERSON,PN & HITES,RA (1996A)

> <OH>
2.6E-12

> <OH Temperature>
25.0

> <LogOH>
-11.585026652029176

> <Tr_1_Tst_0>
1

$$$$
100778
  Mrv171c012241912032D          

 10 11  0  0  0  0            999 V2000
    2.2635    0.0595    0.0000 C   0  0  0  0  0  0  0  0  0  0  0  0
    1.7510    0.6262    0.0000 C   0  0  0  0  0  0  0  0  0  0  0  0
    1.7383   -0.4343    0.0000 C   0  0  0  0  0  0  0  0  0  0  0  0
    2.7976    0.7978    0.0000 C   0  0  0  0  0  0  0  0  0  0  0  0
    3.6226    0.7879    0.0000 C   0  0  0  0  0  0  0  0  0  0  0  0
    4.0265    0.0685    0.0000 C   0  0  0  0  0  0  0  0  0  0  0  0
    3.6054   -0.6409    0.0000 C   0  0  0  0  0  0  0  0  0  0  0  0
    4.0093   -1.3603    0.0000 C   0  0  0  0  0  0  0  0  0  0  0  0
    2.7805   -0.6310    0.0000 C   0  0  0  0  0  0  0  0  0  0  0  0
    2.6104    0.0856    0.0000 C   0  0  0  0  0  0  0  0  0  0  0  0
  1  2  1  0  0  0  0
  1  3  1  0  0  0  0
  4  1  1  0  0  0  0
  4  5  1  0  0  0  0
  5  6  1  0  0  0  0
  6  7  1  0  0  0  0
  7  8  1  0  0  0  0
  7  9  1  0  0  0  0
  1  9  1  0  0  0  0
  9 10  1  0  0  0  0
 10  4  1  0  0  0  0
M  END
> <ChemID>
100778

> <CAS>
4863-59-6

> <Original_SMILES>
C[C@@H]1CC[C@@H]2C[C@H]1C2(C)C

> <preferred_name>
(R)-trans-Pinane, (S)-trans-Pinane

> <dsstox_substance_id>
DTXSID40197569

> <dsstox_compound_id>
DTXCID50120060

> <qc_level>
Public_Medium, DSSTox_Low

> <Canonical_QSARr>
CC1CCC2CC1C2(C)C

> <InChI_Code_QSARr>
InChI=1S/C10H18/c1-7-4-5-8-6-9(7)10(8,2)3/h7-9H,4-6H2,1-3H3

> <InChI Key_QSARr>
XOKSLPVRUOBDEW-UHFFFAOYSA-N

> <Salt_Solvent>


> <Salt_Solvent_ID>
0

> <MPID>
99255

> <OH Reference>
ATKINSON,R (1994)

> <OH>
1.34E-11

> <OH Temperature>
23.0

> <LogOH>
-10.872895201635199

> <Tr_1_Tst_0>
0

$$$$
100780
  Mrv171c012241912032D          

 15 15  0  0  0  0            999 V2000
    2.2352   -2.6000    0.0000 C   0  0  0  0  0  0  0  0  0  0  0  0
    1.5207   -2.1875    0.0000 O   0  0  0  0  0  0  0  0  0  0  0  0
    2.2352   -3.4250    0.0000 N   0  0  0  0  0  0  0  0  0  0  0  0
    1.5207   -3.8375    0.0000 C   0  0  0  0  0  0  0  0  0  0  0  0
    2.9497   -3.8375    0.0000 C   0  0  0  0  0  0  0  0  0  0  0  0
    2.9497   -2.1875    0.0000 N   0  0  0  0  0  0  0  0  0  0  0  0
    2.9497   -1.3625    0.0000 C   0  0  0  0  0  0  0  0  0  0  0  0
    3.6641   -0.9500    0.0000 C   0  0  0  0  0  0  0  0  0  0  0  0
    3.6641   -0.1250    0.0000 C   0  0  0  0  0  0  0  0  0  0  0  0
    2.9497    0.2875    0.0000 C   0  0  0  0  0  0  0  0  0  0  0  0
    2.9497    1.1125    0.0000 C   0  0  0  0  0  0  0  0  0  0  0  0
    2.2352    1.5250    0.0000 C   0  0  0  0  0  0  0  0  0  0  0  0
    3.6641    1.5250    0.0000 C   0  0  0  0  0  0  0  0  0  0  0  0
    2.2352   -0.1250    0.0000 C   0  0  0  0  0  0  0  0  0  0  0  0
    2.2352   -0.9500    0.0000 C   0  0  0  0  0  0  0  0  0  0  0  0
  1  2  2  0  0  0  0
  1  3  1  0  0  0  0
  3  4  1  0  0  0  0
  3  5  1  0  0  0  0
  1  6  1  0  0  0  0
  6  7  1  0  0  0  0
  8  7  1  0  0  0  0
  9  8  2  0  0  0  0
 10  9  1  0  0  0  0
 10 11  1  0  0  0  0
 11 12  1  0  0  0  0
 11 13  1  0  0  0  0
 14 10  2  0  0  0  0
 15 14  1  0  0  0  0
  7 15  2  0  0  0  0
M  END
> <ChemID>
100780

> <CAS>
34123-59-6

> <Original_SMILES>
CN(C)C(=O)Nc1ccc(cc1)C(C)C

> <preferred_name>
Isoproturon

> <dsstox_substance_id>
DTXSID1042077

> <dsstox_compound_id>
DTXCID9022077

> <qc_level>
DSSTox_Low

> <Canonical_QSARr>
CC(C)C1C=CC(=CC=1)NC(=O)N(C)C

> <InChI_Code_QSARr>
InChI=1S/C12H18N2O/c1-9(2)10-5-7-11(8-6-10)13-12(15)14(3)4/h5-9H,1-4H3,(H,13,15)

> <InChI Key_QSARr>
PUIYMUZLKQOUOZ-UHFFFAOYSA-N

> <Salt_Solvent>


> <Salt_Solvent_ID>
0

> <MPID>
99256

> <OH Reference>
PALM,WU ET AL. (1998)

> <OH>
1.2E-11

> <OH Temperature>
25.0

> <LogOH>
-10.920818753952396

> <Tr_1_Tst_0>
1

$$$$
100781
  Mrv171c012241912032D          

  6  5  0  0  0  0            999 V2000
    3.3035    1.5849    0.0000 Cl  0  0  0  0  0  0  0  0  0  0  0  0
    2.8910    0.8704    0.0000 C   0  0  0  0  0  0  0  0  0  0  0  0
    3.3035    0.1559    0.0000 C   0  0  0  0  0  0  0  0  0  0  0  0
    2.8910   -0.5585    0.0000 O   0  0  0  0  0  0  0  0  0  0  0  0
    3.3035   -1.2730    0.0000 C   0  0  0  0  0  0  0  0  0  0  0  0
    2.0660    0.8704    0.0000 Cl  0  0  0  0  0  0  0  0  0  0  0  0
  1  2  1  0  0  0  0
  2  3  1  0  0  0  0
  3  4  1  0  0  0  0
  4  5  1  0  0  0  0
  2  6  1  0  0  0  0
M  END
> <ChemID>
100781

> <CAS>
34862-07-2

> <Original_SMILES>
COCC(Cl)Cl

> <preferred_name>
1,1-Dichloro-2-methoxyethane

> <dsstox_substance_id>
DTXSID30188406

> <dsstox_compound_id>
DTXCID20110897

> <qc_level>
Public_Medium

> <Canonical_QSARr>
COCC(Cl)Cl

> <InChI_Code_QSARr>
InChI=1S/C3H6Cl2O/c1-6-2-3(4)5/h3H,2H2,1H3

> <InChI Key_QSARr>
QUCLHUUEEKVBGT-UHFFFAOYSA-N

> <Salt_Solvent>


> <Salt_Solvent_ID>
0

> <MPID>
99257

> <OH Reference>
KWOK,ESC & ATKINSON,R (1994)

> <OH>
2.27E-12

> <OH Temperature>
25.0

> <LogOH>
-11.643974142806861

> <Tr_1_Tst_0>
1

$$$$
100782
  Mrv171c012241912032D          

 14 15  0  0  0  0            999 V2000
    0.6124    2.0036    0.0000 C   0  0  0  0  0  0  0  0  0  0  0  0
    0.6124    2.8286    0.0000 C   0  0  0  0  0  0  0  0  0  0  0  0
   -0.1021    3.2411    0.0000 C   0  0  0  0  0  0  0  0  0  0  0  0
   -0.1021    4.0661    0.0000 Cl  0  0  0  0  0  0  0  0  0  0  0  0
   -0.8165    2.8286    0.0000 C   0  0  0  0  0  0  0  0  0  0  0  0
   -0.8165    2.0036    0.0000 C   0  0  0  0  0  0  0  0  0  0  0  0
   -1.5310    1.5911    0.0000 Cl  0  0  0  0  0  0  0  0  0  0  0  0
   -0.1021    1.5911    0.0000 C   0  0  0  0  0  0  0  0  0  0  0  0
    1.3269    1.5911    0.0000 C   0  0  0  0  0  0  0  0  0  0  0  0
    1.3269    0.7661    0.0000 C   0  0  0  0  0  0  0  0  0  0  0  0
    2.0413    0.3536    0.0000 C   0  0  0  0  0  0  0  0  0  0  0  0
    2.7558    0.7661    0.0000 C   0  0  0  0  0  0  0  0  0  0  0  0
    2.7558    1.5911    0.0000 C   0  0  0  0  0  0  0  0  0  0  0  0
    2.0413    2.0036    0.0000 C   0  0  0  0  0  0  0  0  0  0  0  0
  2  1  1  0  0  0  0
  3  2  2  0  0  0  0
  3  4  1  0  0  0  0
  5  3  1  0  0  0  0
  6  5  2  0  0  0  0
  6  7  1  0  0  0  0
  8  6  1  0  0  0  0
  1  8  2  0  0  0  0
  1  9  1  0  0  0  0
 10  9  1  0  0  0  0
 11 10  2  0  0  0  0
 12 11  1  0  0  0  0
 13 12  2  0  0  0  0
 14 13  1  0  0  0  0
  9 14  2  0  0  0  0
M  END
> <ChemID>
100782

> <CAS>
34883-41-5

> <Original_SMILES>
Clc1cc(cc(Cl)c1)-c1ccccc1

> <preferred_name>
3,5-Dichlorobiphenyl

> <dsstox_substance_id>
DTXSID5074137

> <dsstox_compound_id>
DTXCID5038919

> <qc_level>
Public_High

> <Canonical_QSARr>
ClC1=CC(=CC(Cl)=C1)C1C=CC=CC=1

> <InChI_Code_QSARr>
InChI=1S/C12H8Cl2/c13-11-6-10(7-12(14)8-11)9-4-2-1-3-5-9/h1-8H

> <InChI Key_QSARr>
QHZSDTDMQZPUKC-UHFFFAOYSA-N

> <Salt_Solvent>


> <Salt_Solvent_ID>
0

> <MPID>
99258

> <OH Reference>
KWOK,ESC ET AL. (1995)

> <OH>
4.200000000000001E-12

> <OH Temperature>
24.0

> <LogOH>
-11.376750709602087

> <Tr_1_Tst_0>
1

$$$$
100783
  Mrv171c012241912032D          

 17 18  0  0  0  0            999 V2000
    1.6581   -1.4656    0.0000 C   0  0  0  0  0  0  0  0  0  0  0  0
    0.9436   -1.0531    0.0000 C   0  0  0  0  0  0  0  0  0  0  0  0
    0.9436   -0.2281    0.0000 Cl  0  0  0  0  0  0  0  0  0  0  0  0
    0.2291   -1.4656    0.0000 C   0  0  0  0  0  0  0  0  0  0  0  0
    0.2291   -2.2906    0.0000 C   0  0  0  0  0  0  0  0  0  0  0  0
    0.9436   -2.7031    0.0000 C   0  0  0  0  0  0  0  0  0  0  0  0
    0.9436   -3.5281    0.0000 Cl  0  0  0  0  0  0  0  0  0  0  0  0
    1.6581   -2.2906    0.0000 C   0  0  0  0  0  0  0  0  0  0  0  0
    2.3725   -2.7031    0.0000 Cl  0  0  0  0  0  0  0  0  0  0  0  0
    2.3725   -1.0531    0.0000 C   0  0  0  0  0  0  0  0  0  0  0  0
    3.0870   -1.4656    0.0000 C   0  0  0  0  0  0  0  0  0  0  0  0
    3.8015   -1.0531    0.0000 C   0  0  0  0  0  0  0  0  0  0  0  0
    4.5160   -1.4656    0.0000 Cl  0  0  0  0  0  0  0  0  0  0  0  0
    3.8015   -0.2281    0.0000 C   0  0  0  0  0  0  0  0  0  0  0  0
    3.0870    0.1844    0.0000 C   0  0  0  0  0  0  0  0  0  0  0  0
    2.3725   -0.2281    0.0000 C   0  0  0  0  0  0  0  0  0  0  0  0
    1.6581    0.1844    0.0000 Cl  0  0  0  0  0  0  0  0  0  0  0  0
  2  1  1  0  0  0  0
  2  3  1  0  0  0  0
  4  2  2  0  0  0  0
  5  4  1  0  0  0  0
  6  5  2  0  0  0  0
  6  7  1  0  0  0  0
  8  6  1  0  0  0  0
  1  8  2  0  0  0  0
  8  9  1  0  0  0  0
  1 10  1  0  0  0  0
 11 10  1  0  0  0  0
 12 11  2  0  0  0  0
 12 13  1  0  0  0  0
 14 12  1  0  0  0  0
 15 14  2  0  0  0  0
 16 15  1  0  0  0  0
 10 16  2  0  0  0  0
 16 17  1  0  0  0  0
M  END
> <ChemID>
100783

> <CAS>
38379-99-6

> <Original_SMILES>
Clc1cc(-c2c(Cl)c(Cl)ccc2Cl)c(Cl)cc1

> <preferred_name>
2,2',3,5',6-Pentachlorobiphenyl

> <dsstox_substance_id>
DTXSID3038301

> <dsstox_compound_id>
DTXCID1018301

> <qc_level>
DSSTox_Low

> <Canonical_QSARr>
ClC1C=CC(Cl)=CC=1C1=C(Cl)C(Cl)=CC=C1Cl

> <InChI_Code_QSARr>
InChI=1S/C12H5Cl5/c13-6-1-2-8(14)7(5-6)11-9(15)3-4-10(16)12(11)17/h1-5H

> <InChI Key_QSARr>
GXNNLIMMEXHBKV-UHFFFAOYSA-N

> <Salt_Solvent>


> <Salt_Solvent_ID>
0

> <MPID>
99259

> <OH Reference>
ANDERSON,PN & HITES,RA (1996A)

> <OH>
4.000000000000001E-13

> <OH Temperature>
25.0

> <LogOH>
-12.397940008672036

> <Tr_1_Tst_0>
0

$$$$
100784
  Mrv171c012241912032D          

 17 18  0  0  0  0            999 V2000
    1.7187   -1.6935    0.0000 C   0  0  0  0  0  0  0  0  0  0  0  0
    1.0042   -1.2810    0.0000 C   0  0  0  0  0  0  0  0  0  0  0  0
    1.0042   -0.4560    0.0000 Cl  0  0  0  0  0  0  0  0  0  0  0  0
    0.2897   -1.6935    0.0000 C   0  0  0  0  0  0  0  0  0  0  0  0
    0.2897   -2.5185    0.0000 C   0  0  0  0  0  0  0  0  0  0  0  0
    1.0042   -2.9310    0.0000 C   0  0  0  0  0  0  0  0  0  0  0  0
    1.0042   -3.7560    0.0000 Cl  0  0  0  0  0  0  0  0  0  0  0  0
    1.7187   -2.5185    0.0000 C   0  0  0  0  0  0  0  0  0  0  0  0
    2.4331   -2.9310    0.0000 Cl  0  0  0  0  0  0  0  0  0  0  0  0
    2.4331   -1.2810    0.0000 C   0  0  0  0  0  0  0  0  0  0  0  0
    3.1476   -1.6935    0.0000 C   0  0  0  0  0  0  0  0  0  0  0  0
    3.8621   -1.2810    0.0000 C   0  0  0  0  0  0  0  0  0  0  0  0
    3.8621   -0.4560    0.0000 C   0  0  0  0  0  0  0  0  0  0  0  0
    4.5766   -0.0435    0.0000 Cl  0  0  0  0  0  0  0  0  0  0  0  0
    3.1476   -0.0435    0.0000 C   0  0  0  0  0  0  0  0  0  0  0  0
    3.1476    0.7815    0.0000 Cl  0  0  0  0  0  0  0  0  0  0  0  0
    2.4331   -0.4560    0.0000 C   0  0  0  0  0  0  0  0  0  0  0  0
  2  1  1  0  0  0  0
  2  3  1  0  0  0  0
  4  2  2  0  0  0  0
  5  4  1  0  0  0  0
  6  5  2  0  0  0  0
  6  7  1  0  0  0  0
  8  6  1  0  0  0  0
  1  8  2  0  0  0  0
  8  9  1  0  0  0  0
  1 10  1  0  0  0  0
 11 10  1  0  0  0  0
 12 11  2  0  0  0  0
 13 12  1  0  0  0  0
 13 14  1  0  0  0  0
 15 13  2  0  0  0  0
 15 16  1  0  0  0  0
 17 15  1  0  0  0  0
 10 17  2  0  0  0  0
M  END
> <ChemID>
100784

> <CAS>
38380-03-9

> <Original_SMILES>
Clc1c(-c2cc(Cl)c(Cl)cc2)c(Cl)ccc1Cl

> <preferred_name>
2,3,3',4',6-Pentachlorobiphenyl

> <dsstox_substance_id>
DTXSID3038307

> <dsstox_compound_id>
DTXCID1018307

> <qc_level>
DSSTox_Low

> <Canonical_QSARr>
ClC1C=C(C=CC=1Cl)C1=C(Cl)C(Cl)=CC=C1Cl

> <InChI_Code_QSARr>
InChI=1S/C12H5Cl5/c13-7-2-1-6(5-10(7)16)11-8(14)3-4-9(15)12(11)17/h1-5H

> <InChI Key_QSARr>
ARXHIJMGSIYYRZ-UHFFFAOYSA-N

> <Salt_Solvent>


> <Salt_Solvent_ID>
0

> <MPID>
99260

> <OH Reference>
ANDERSON,PN & HITES,RA (1996A)

> <OH>
6.000000000000001E-13

> <OH Temperature>
25.0

> <LogOH>
-12.221848749616338

> <Tr_1_Tst_0>
1

$$$$
100785
  Mrv171c012241912032D          

 15 16  0  0  0  0            999 V2000
    4.1368   -2.2132    0.0000 C   0  0  0  0  0  0  0  0  0  0  0  0
    4.8512   -1.8007    0.0000 C   0  0  0  0  0  0  0  0  0  0  0  0
    4.8512   -0.9757    0.0000 C   0  0  0  0  0  0  0  0  0  0  0  0
    4.1368   -0.5632    0.0000 C   0  0  0  0  0  0  0  0  0  0  0  0
    4.1368    0.2618    0.0000 Cl  0  0  0  0  0  0  0  0  0  0  0  0
    3.4223   -0.9757    0.0000 C   0  0  0  0  0  0  0  0  0  0  0  0
    2.7078   -0.5632    0.0000 Cl  0  0  0  0  0  0  0  0  0  0  0  0
    3.4223   -1.8007    0.0000 C   0  0  0  0  0  0  0  0  0  0  0  0
    4.1368   -3.0382    0.0000 C   0  0  0  0  0  0  0  0  0  0  0  0
    3.4223   -3.4507    0.0000 C   0  0  0  0  0  0  0  0  0  0  0  0
    3.4223   -4.2757    0.0000 C   0  0  0  0  0  0  0  0  0  0  0  0
    4.1368   -4.6882    0.0000 C   0  0  0  0  0  0  0  0  0  0  0  0
    4.8512   -4.2757    0.0000 C   0  0  0  0  0  0  0  0  0  0  0  0
    4.8512   -3.4507    0.0000 C   0  0  0  0  0  0  0  0  0  0  0  0
    5.5657   -3.0382    0.0000 Cl  0  0  0  0  0  0  0  0  0  0  0  0
  2  1  1  0  0  0  0
  3  2  2  0  0  0  0
  4  3  1  0  0  0  0
  4  5  1  0  0  0  0
  6  4  2  0  0  0  0
  6  7  1  0  0  0  0
  8  6  1  0  0  0  0
  1  8  2  0  0  0  0
  1  9  1  0  0  0  0
 10  9  1  0  0  0  0
 11 10  2  0  0  0  0
 12 11  1  0  0  0  0
 13 12  2  0  0  0  0
 14 13  1  0  0  0  0
  9 14  2  0  0  0  0
 14 15  1  0  0  0  0
M  END
> <ChemID>
100785

> <CAS>
38444-86-9

> <Original_SMILES>
Clc1cc(ccc1Cl)-c1ccccc1Cl

> <preferred_name>
2',3,4-Trichlorobiphenyl

> <dsstox_substance_id>
DTXSID8040303

> <dsstox_compound_id>
DTXCID6020303

> <qc_level>
DSSTox_Low

> <Canonical_QSARr>
ClC1C=C(C=CC=1Cl)C1C=CC=CC=1Cl

> <InChI_Code_QSARr>
InChI=1S/C12H7Cl3/c13-10-4-2-1-3-9(10)8-5-6-11(14)12(15)7-8/h1-7H

> <InChI Key_QSARr>
RIMXLXBUOQMDHV-UHFFFAOYSA-N

> <Salt_Solvent>


> <Salt_Solvent_ID>
0

> <MPID>
99261

> <OH Reference>
ANDERSON,PN & HITES,RA (1996A)

> <OH>
1.0E-12

> <OH Temperature>
25.0

> <LogOH>
-11.999999999999979

> <Tr_1_Tst_0>
1

$$$$
100786
  Mrv171c012241912032D          

 15 17  0  0  0  0            999 V2000
    1.9427   -0.8384    0.0000 O   0  0  0  0  0  0  0  0  0  0  0  0
    2.6572   -1.2509    0.0000 C   0  0  0  0  0  0  0  0  0  0  0  0
    3.3716   -0.8384    0.0000 C   0  0  0  0  0  0  0  0  0  0  0  0
    3.3716   -0.0134    0.0000 Cl  0  0  0  0  0  0  0  0  0  0  0  0
    4.0861   -1.2509    0.0000 C   0  0  0  0  0  0  0  0  0  0  0  0
    4.0861   -2.0759    0.0000 C   0  0  0  0  0  0  0  0  0  0  0  0
    3.3716   -2.4884    0.0000 C   0  0  0  0  0  0  0  0  0  0  0  0
    2.6572   -2.0759    0.0000 C   0  0  0  0  0  0  0  0  0  0  0  0
    1.9427   -2.4884    0.0000 O   0  0  0  0  0  0  0  0  0  0  0  0
    1.2282   -2.0759    0.0000 C   0  0  0  0  0  0  0  0  0  0  0  0
    0.5138   -2.4884    0.0000 C   0  0  0  0  0  0  0  0  0  0  0  0
   -0.2007   -2.0759    0.0000 C   0  0  0  0  0  0  0  0  0  0  0  0
   -0.2007   -1.2509    0.0000 C   0  0  0  0  0  0  0  0  0  0  0  0
    0.5138   -0.8384    0.0000 C   0  0  0  0  0  0  0  0  0  0  0  0
    1.2282   -1.2509    0.0000 C   0  0  0  0  0  0  0  0  0  0  0  0
  2  1  1  0  0  0  0
  2  3  1  0  0  0  0
  3  4  1  0  0  0  0
  3  5  2  0  0  0  0
  5  6  1  0  0  0  0
  6  7  2  0  0  0  0
  7  8  1  0  0  0  0
  8  2  2  0  0  0  0
  9  8  1  0  0  0  0
 10  9  1  0  0  0  0
 10 11  1  0  0  0  0
 11 12  2  0  0  0  0
 12 13  1  0  0  0  0
 13 14  2  0  0  0  0
 14 15  1  0  0  0  0
  1 15  1  0  0  0  0
 15 10  2  0  0  0  0
M  END
> <ChemID>
100786

> <CAS>
39227-53-7

> <Original_SMILES>
Clc1cccc2Oc3ccccc3Oc21

> <preferred_name>


> <dsstox_substance_id>
DTXSID80872020

> <dsstox_compound_id>
DTXCID10819625

> <qc_level>


> <Canonical_QSARr>
ClC1=CC=CC2OC3C=CC=CC=3OC=21

> <InChI_Code_QSARr>
InChI=1S/C12H7ClO2/c13-8-4-3-7-11-12(8)15-10-6-2-1-5-9(10)14-11/h1-7H

> <InChI Key_QSARr>
VGGGRWRBGXENKI-UHFFFAOYSA-N

> <Salt_Solvent>


> <Salt_Solvent_ID>
0

> <MPID>
99262

> <OH Reference>
KWOK,ESC ET AL. (1995)

> <OH>
4.700000000000001E-12

> <OH Temperature>
24.0

> <LogOH>
-11.327902142064266

> <Tr_1_Tst_0>
1

$$$$
100787
  Mrv171c012241912032D          

  9  9  0  0  0  0            999 V2000
    0.0564   -2.0247    0.0000 O   0  0  0  0  0  0  0  0  0  0  0  0
    0.3113   -2.8093    0.0000 C   0  0  0  0  0  0  0  0  0  0  0  0
   -0.1736   -3.4768    0.0000 O   0  0  0  0  0  0  0  0  0  0  0  0
    1.1363   -2.8093    0.0000 C   0  0  0  0  0  0  0  0  0  0  0  0
    1.3912   -2.0247    0.0000 C   0  0  0  0  0  0  0  0  0  0  0  0
    0.7238   -1.5398    0.0000 C   0  0  0  0  0  0  0  0  0  0  0  0
    1.1288   -0.8210    0.0000 C   0  0  0  0  0  0  0  0  0  0  0  0
    0.7088   -0.1109    0.0000 C   0  0  0  0  0  0  0  0  0  0  0  0
    0.3188   -0.8210    0.0000 C   0  0  0  0  0  0  0  0  0  0  0  0
  2  1  1  0  0  0  0
  2  3  1  0  0  0  0
  4  2  1  0  0  0  0
  5  4  1  0  0  0  0
  6  5  1  0  0  0  0
  1  6  1  0  0  0  0
  6  7  1  0  0  0  0
  7  8  2  0  0  0  0
  6  9  1  0  0  0  0
M  END
> <ChemID>
100787

> <CAS>
40478-73-7

> <Original_SMILES>
CC1(CCC(O)O1)C=C

> <preferred_name>


> <dsstox_substance_id>
DTXSID20875691

> <dsstox_compound_id>
DTXCID601013812

> <qc_level>


> <Canonical_QSARr>
CC1(CCC(O)O1)C=C

> <InChI_Code_QSARr>
InChI=1S/C7H12O2/c1-3-7(2)5-4-6(8)9-7/h3,6,8H,1,4-5H2,2H3

> <InChI Key_QSARr>
BIJAVMAZHUQEJX-UHFFFAOYSA-N

> <Salt_Solvent>


> <Salt_Solvent_ID>
0

> <MPID>
99263

> <OH Reference>
CALOGIROU,A ET AL. (1999)

> <OH>
7.399999999999998E-11

> <OH Temperature>
25.0

> <LogOH>
-10.130768280269033

> <Tr_1_Tst_0>
0

$$$$
100788
  Mrv171c012241912032D          

 16 17  0  0  0  0            999 V2000
    2.5069   -1.1993    0.0000 C   0  0  0  0  0  0  0  0  0  0  0  0
    3.2214   -1.6118    0.0000 C   0  0  0  0  0  0  0  0  0  0  0  0
    3.9359   -1.1993    0.0000 C   0  0  0  0  0  0  0  0  0  0  0  0
    3.9359   -0.3743    0.0000 C   0  0  0  0  0  0  0  0  0  0  0  0
    3.2214    0.0382    0.0000 C   0  0  0  0  0  0  0  0  0  0  0  0
    3.2214    0.8632    0.0000 Cl  0  0  0  0  0  0  0  0  0  0  0  0
    2.5069   -0.3743    0.0000 C   0  0  0  0  0  0  0  0  0  0  0  0
    1.7924    0.0382    0.0000 Cl  0  0  0  0  0  0  0  0  0  0  0  0
    1.7924   -1.6118    0.0000 C   0  0  0  0  0  0  0  0  0  0  0  0
    1.0780   -1.1993    0.0000 C   0  0  0  0  0  0  0  0  0  0  0  0
    0.3635   -1.6118    0.0000 C   0  0  0  0  0  0  0  0  0  0  0  0
   -0.3510   -1.1993    0.0000 Cl  0  0  0  0  0  0  0  0  0  0  0  0
    0.3635   -2.4368    0.0000 C   0  0  0  0  0  0  0  0  0  0  0  0
    1.0780   -2.8493    0.0000 C   0  0  0  0  0  0  0  0  0  0  0  0
    1.7924   -2.4368    0.0000 C   0  0  0  0  0  0  0  0  0  0  0  0
    2.5069   -2.8493    0.0000 Cl  0  0  0  0  0  0  0  0  0  0  0  0
  2  1  1  0  0  0  0
  3  2  2  0  0  0  0
  4  3  1  0  0  0  0
  5  4  2  0  0  0  0
  5  6  1  0  0  0  0
  7  5  1  0  0  0  0
  1  7  2  0  0  0  0
  7  8  1  0  0  0  0
  1  9  1  0  0  0  0
 10  9  1  0  0  0  0
 11 10  2  0  0  0  0
 11 12  1  0  0  0  0
 13 11  1  0  0  0  0
 14 13  2  0  0  0  0
 15 14  1  0  0  0  0
  9 15  2  0  0  0  0
 15 16  1  0  0  0  0
M  END
> <ChemID>
100788

> <CAS>
41464-39-5

> <Original_SMILES>
Clc1cc(-c2cccc(Cl)c2Cl)c(Cl)cc1

> <preferred_name>
2,2',3,5'-tetrachlorobiphenyl

> <dsstox_substance_id>
DTXSID8038302

> <dsstox_compound_id>
DTXCID6018302

> <qc_level>
DSSTox_Low

> <Canonical_QSARr>
ClC1C=CC(Cl)=CC=1C1C=CC=C(Cl)C=1Cl

> <InChI_Code_QSARr>
InChI=1S/C12H6Cl4/c13-7-4-5-10(14)9(6-7)8-2-1-3-11(15)12(8)16/h1-6H

> <InChI Key_QSARr>
ALDJIKXAHSDLLB-UHFFFAOYSA-N

> <Salt_Solvent>


> <Salt_Solvent_ID>
0

> <MPID>
99264

> <OH Reference>
ANDERSON,PN & HITES,RA (1996A)

> <OH>
8.000000000000001E-13

> <OH Temperature>
25.0

> <LogOH>
-12.096910013008072

> <Tr_1_Tst_0>
1

$$$$
100790
  Mrv171c012241912032D          

 14 14  0  0  0  0            999 V2000
    2.0188   -1.5150    0.0000 C   0  0  0  0  0  0  0  0  0  0  0  0
    2.7333   -1.1025    0.0000 C   0  0  0  0  0  0  0  0  0  0  0  0
    3.4478   -1.5150    0.0000 C   0  0  0  0  0  0  0  0  0  0  0  0
    4.1623   -1.1025    0.0000 C   0  0  0  0  0  0  0  0  0  0  0  0
    1.3044   -1.1025    0.0000 C   0  0  0  0  0  0  0  0  0  0  0  0
    1.3044   -0.2775    0.0000 F   0  0  0  0  0  0  0  0  0  0  0  0
    0.5899   -1.5150    0.0000 C   0  0  0  0  0  0  0  0  0  0  0  0
   -0.1246   -1.1025    0.0000 F   0  0  0  0  0  0  0  0  0  0  0  0
    0.5899   -2.3400    0.0000 C   0  0  0  0  0  0  0  0  0  0  0  0
   -0.1246   -2.7525    0.0000 F   0  0  0  0  0  0  0  0  0  0  0  0
    1.3044   -2.7525    0.0000 C   0  0  0  0  0  0  0  0  0  0  0  0
    1.3044   -3.5775    0.0000 F   0  0  0  0  0  0  0  0  0  0  0  0
    2.0188   -2.3400    0.0000 C   0  0  0  0  0  0  0  0  0  0  0  0
    2.7333   -2.7525    0.0000 F   0  0  0  0  0  0  0  0  0  0  0  0
  1  2  1  0  0  0  0
  2  3  1  0  0  0  0
  3  4  1  0  0  0  0
  5  1  1  0  0  0  0
  5  6  1  0  0  0  0
  7  5  2  0  0  0  0
  7  8  1  0  0  0  0
  9  7  1  0  0  0  0
  9 10  1  0  0  0  0
 11  9  2  0  0  0  0
 11 12  1  0  0  0  0
 13 11  1  0  0  0  0
  1 13  2  0  0  0  0
 13 14  1  0  0  0  0
M  END
> <ChemID>
100790

> <CAS>
52144-69-1

> <Original_SMILES>
CCCc1c(F)c(F)c(F)c(F)c1F

> <preferred_name>


> <dsstox_substance_id>
DTXSID90879686

> <dsstox_compound_id>
DTXCID701017693

> <qc_level>


> <Canonical_QSARr>
CCCC1C(F)=C(F)C(F)=C(F)C=1F

> <InChI_Code_QSARr>
InChI=1S/C9H7F5/c1-2-3-4-5(10)7(12)9(14)8(13)6(4)11/h2-3H2,1H3

> <InChI Key_QSARr>
LJEHGOAHCQTFBY-UHFFFAOYSA-N

> <Salt_Solvent>


> <Salt_Solvent_ID>
0

> <MPID>
99265

> <OH Reference>
ATKINSON,R ET AL. (1989)

> <OH>
3.06E-12

> <OH Temperature>
25.0

> <LogOH>
-11.514278573518437

> <Tr_1_Tst_0>
1

$$$$
100792
  Mrv171c012241912032D          

 11 10  0  0  0  0            999 V2000
    3.7124    2.5934    0.0000 C   0  0  0  0  0  0  0  0  0  0  0  0
    4.4269    2.1809    0.0000 C   0  0  0  0  0  0  0  0  0  0  0  0
    5.1414    2.5934    0.0000 O   0  0  0  0  0  0  0  0  0  0  0  0
    5.8558    2.1809    0.0000 C   0  0  0  0  0  0  0  0  0  0  0  0
    6.5703    2.5934    0.0000 C   0  0  0  0  0  0  0  0  0  0  0  0
    7.2848    2.1809    0.0000 O   0  0  0  0  0  0  0  0  0  0  0  0
    7.9993    2.5934    0.0000 C   0  0  0  0  0  0  0  0  0  0  0  0
    8.7137    2.1809    0.0000 C   0  0  0  0  0  0  0  0  0  0  0  0
    4.4269    1.3559    0.0000 O   0  0  0  0  0  0  0  0  0  0  0  0
    2.9980    2.1809    0.0000 C   0  0  0  0  0  0  0  0  0  0  0  0
    3.7124    3.4184    0.0000 C   0  0  0  0  0  0  0  0  0  0  0  0
  1  2  1  0  0  0  0
  2  3  1  0  0  0  0
  3  4  1  0  0  0  0
  4  5  1  0  0  0  0
  5  6  1  0  0  0  0
  6  7  1  0  0  0  0
  7  8  1  0  0  0  0
  2  9  2  0  0  0  0
  1 10  1  0  0  0  0
  1 11  1  0  0  0  0
M  END
> <ChemID>
100792

> <CAS>
54396-97-3

> <Original_SMILES>
CCOCCOC(=O)C(C)C

> <preferred_name>
2-Ethoxyethyl isobutyrate

> <dsstox_substance_id>
DTXSID9068952

> <dsstox_compound_id>
DTXCID7041700

> <qc_level>
Public_High

> <Canonical_QSARr>
CCOCCOC(=O)C(C)C

> <InChI_Code_QSARr>
InChI=1S/C8H16O3/c1-4-10-5-6-11-8(9)7(2)3/h7H,4-6H2,1-3H3

> <InChI Key_QSARr>
ANSOCBLHUNAGRK-UHFFFAOYSA-N

> <Salt_Solvent>


> <Salt_Solvent_ID>
0

> <MPID>
99267

> <OH Reference>
KWOK,ESC & ATKINSON,R (1994)

> <OH>
1.35E-11

> <OH Temperature>
25.0

> <LogOH>
-10.86966623150501

> <Tr_1_Tst_0>
0

$$$$
100793
  Mrv171c012241912032D          

 10  9  0  0  0  0            999 V2000
    1.9320   -0.0208    0.0000 C   0  0  0  0  0  0  0  0  0  0  0  0
    2.3445    0.6937    0.0000 F   0  0  0  0  0  0  0  0  0  0  0  0
    1.2175    0.3917    0.0000 F   0  0  0  0  0  0  0  0  0  0  0  0
    2.6465   -0.4333    0.0000 F   0  0  0  0  0  0  0  0  0  0  0  0
    1.5195   -0.7352    0.0000 C   0  0  0  0  0  0  0  0  0  0  0  0
    0.6945   -0.7352    0.0000 F   0  0  0  0  0  0  0  0  0  0  0  0
    1.9320   -1.4497    0.0000 O   0  0  0  0  0  0  0  0  0  0  0  0
    1.5195   -2.1642    0.0000 C   0  0  0  0  0  0  0  0  0  0  0  0
    1.9320   -2.8787    0.0000 F   0  0  0  0  0  0  0  0  0  0  0  0
    0.6945   -2.1642    0.0000 F   0  0  0  0  0  0  0  0  0  0  0  0
  1  2  1  0  0  0  0
  1  3  1  0  0  0  0
  1  4  1  0  0  0  0
  1  5  1  0  0  0  0
  5  6  1  0  0  0  0
  5  7  1  0  0  0  0
  7  8  1  0  0  0  0
  8  9  1  0  0  0  0
  8 10  1  0  0  0  0
M  END
> <ChemID>
100793

> <CAS>
57041-67-5

> <Original_SMILES>
FC(F)OC(F)C(F)(F)F

> <preferred_name>


> <dsstox_substance_id>
DTXSID80866606

> <dsstox_compound_id>
DTXCID30814874

> <qc_level>


> <Canonical_QSARr>
FC(F)OC(F)C(F)(F)F

> <InChI_Code_QSARr>
InChI=1S/C3H2F6O/c4-1(3(7,8)9)10-2(5)6/h1-2H

> <InChI Key_QSARr>
DPYMFVXJLLWWEU-UHFFFAOYSA-N

> <Salt_Solvent>


> <Salt_Solvent_ID>
0

> <MPID>
99268

> <OH Reference>
LANGBEIN,T ET AL. (1999)

> <OH>
4.400000000000001E-15

> <OH Temperature>
25.0

> <LogOH>
-14.356547323513826

> <Tr_1_Tst_0>
1

$$$$
100794
  Mrv171c012241912032D          

  6  5  0  0  0  0            999 V2000
    0.5074   -0.3700    0.0000 C   0  0  0  0  0  0  0  0  0  0  0  0
    0.9199   -1.0845    0.0000 C   0  0  0  0  0  0  0  0  0  0  0  0
    1.3324   -1.7989    0.0000 F   0  0  0  0  0  0  0  0  0  0  0  0
    1.6344   -0.6720    0.0000 Cl  0  0  0  0  0  0  0  0  0  0  0  0
    0.2055   -1.4970    0.0000 Cl  0  0  0  0  0  0  0  0  0  0  0  0
   -0.3176   -0.3700    0.0000 O   0  0  0  0  0  0  0  0  0  0  0  0
  1  2  1  0  0  0  0
  2  3  1  0  0  0  0
  2  4  1  0  0  0  0
  2  5  1  0  0  0  0
  1  6  2  0  0  0  0
M  END
> <ChemID>
100794

> <CAS>
63034-44-6

> <Original_SMILES>
O=CC(F)(Cl)Cl

> <preferred_name>


> <dsstox_substance_id>
DTXSID80878688

> <dsstox_compound_id>
DTXCID101016730

> <qc_level>


> <Canonical_QSARr>
O=CC(F)(Cl)Cl

> <InChI_Code_QSARr>
InChI=1S/C2HCl2FO/c3-2(4,5)1-6/h1H

> <InChI Key_QSARr>
LAVNLOJEYZYMFK-UHFFFAOYSA-N

> <Salt_Solvent>


> <Salt_Solvent_ID>
0

> <MPID>
99269

> <OH Reference>
SCOLLARD,DJ ET AL. (1993)

> <OH>
1.2E-12

> <OH Temperature>
25.0

> <LogOH>
-11.920818753952377

> <Tr_1_Tst_0>
1

$$$$
100801
  Mrv171c012241912032D          

  9  8  0  0  0  0            999 V2000
    2.4750    0.0000    0.0000 C   0  0  0  0  0  0  0  0  0  0  0  0
    2.0625    0.7145    0.0000 C   0  0  0  0  0  0  0  0  0  0  0  0
    1.2375    0.7145    0.0000 C   0  0  0  0  0  0  0  0  0  0  0  0
    0.8250    0.0000    0.0000 C   0  0  0  0  0  0  0  0  0  0  0  0
    0.0000    0.0000    0.0000 C   0  0  0  0  0  0  0  0  0  0  0  0
   -0.4125   -0.7145    0.0000 C   0  0  0  0  0  0  0  0  0  0  0  0
   -1.2375   -0.7145    0.0000 O   0  0  0  0  0  0  0  0  0  0  0  0
    2.4750    1.4289    0.0000 C   0  0  0  0  0  0  0  0  0  0  0  0
    2.0625    2.1434    0.0000 O   0  0  0  0  0  0  0  0  0  0  0  0
  1  2  1  0  0  0  0
  2  3  2  0  0  0  0
  3  4  1  4  0  0  0
  4  5  2  0  0  0  0
  5  6  1  4  0  0  0
  6  7  2  0  0  0  0
  2  8  1  0  0  0  0
  8  9  2  0  0  0  0
M  END
> <ChemID>
100801

> <CAS>
121020-77-7

> <Original_SMILES>
C/C(=C\C=C\C=O)/C=O

> <preferred_name>


> <dsstox_substance_id>
DTXSID60879097

> <dsstox_compound_id>
DTXCID801017115

> <qc_level>


> <Canonical_QSARr>
CC(=CC=CC=O)C=O

> <InChI_Code_QSARr>
InChI=1S/C7H8O2/c1-7(6-9)4-2-3-5-8/h2-6H,1H3

> <InChI Key_QSARr>
QMSDWRYXWABUMN-UHFFFAOYSA-N

> <Salt_Solvent>


> <Salt_Solvent_ID>
0

> <MPID>
99270

> <OH Reference>
KLOTZ,BG ET AL. (1995)

> <OH>
1.18E-10

> <OH Temperature>
25.0

> <LogOH>
-9.928117992693881

> <Tr_1_Tst_0>
0

$$$$
100803
  Mrv171c012241912032D          

 15 14  0  0  0  0            999 V2000
    1.8795   -2.3696    0.0000 C   0  0  0  0  0  0  0  0  0  0  0  0
    1.8795   -3.1946    0.0000 F   0  0  0  0  0  0  0  0  0  0  0  0
    2.7045   -2.3696    0.0000 F   0  0  0  0  0  0  0  0  0  0  0  0
    1.0545   -2.3696    0.0000 F   0  0  0  0  0  0  0  0  0  0  0  0
    1.8795   -1.5446    0.0000 C   0  0  0  0  0  0  0  0  0  0  0  0
    2.7045   -1.5446    0.0000 F   0  0  0  0  0  0  0  0  0  0  0  0
    1.0545   -1.5446    0.0000 F   0  0  0  0  0  0  0  0  0  0  0  0
    1.8795   -0.7196    0.0000 C   0  0  0  0  0  0  0  0  0  0  0  0
    1.1650   -0.3071    0.0000 F   0  0  0  0  0  0  0  0  0  0  0  0
    2.5939   -0.3071    0.0000 C   0  0  0  0  0  0  0  0  0  0  0  0
    3.3084   -0.7196    0.0000 F   0  0  0  0  0  0  0  0  0  0  0  0
    2.5939    0.5179    0.0000 C   0  0  0  0  0  0  0  0  0  0  0  0
    2.5939    1.3429    0.0000 F   0  0  0  0  0  0  0  0  0  0  0  0
    3.4189    0.5179    0.0000 F   0  0  0  0  0  0  0  0  0  0  0  0
    1.7689    0.5179    0.0000 F   0  0  0  0  0  0  0  0  0  0  0  0
  1  2  1  0  0  0  0
  1  3  1  0  0  0  0
  1  4  1  0  0  0  0
  1  5  1  0  0  0  0
  5  6  1  0  0  0  0
  5  7  1  0  0  0  0
  5  8  1  0  0  0  0
  8  9  1  0  0  0  0
  8 10  1  0  0  0  0
 10 11  1  0  0  0  0
 10 12  1  0  0  0  0
 12 13  1  0  0  0  0
 12 14  1  0  0  0  0
 12 15  1  0  0  0  0
M  END
> <ChemID>
100803

> <CAS>
138495-42-8

> <Original_SMILES>
FC(F)(F)C(F)C(F)C(F)(F)C(F)(F)F

> <preferred_name>


> <dsstox_substance_id>
DTXSID30869884

> <dsstox_compound_id>
DTXCID70817783

> <qc_level>


> <Canonical_QSARr>
FC(F)(F)C(F)C(F)C(F)(F)C(F)(F)F

> <InChI_Code_QSARr>
InChI=1S/C5H2F10/c6-1(2(7)4(10,11)12)3(8,9)5(13,14)15/h1-2H

> <InChI Key_QSARr>
RIQRGMUSBYGDBL-UHFFFAOYSA-N

> <Salt_Solvent>


> <Salt_Solvent_ID>
0

> <MPID>
99271

> <OH Reference>
KWOK,ESC & ATKINSON,R (1994)

> <OH>
3.4E-15

> <OH Temperature>
25.0

> <LogOH>
-14.468521082957755

> <Tr_1_Tst_0>
1

$$$$
100804
  Mrv171c012241912032D          

  5  4  0  0  0  0            999 V2000
    0.7050   -0.5160    0.0000 C   0  0  0  0  0  0  0  0  0  0  0  0
    1.1175   -1.2305    0.0000 C   0  0  0  0  0  0  0  0  0  0  0  0
    1.9425   -1.2305    0.0000 F   0  0  0  0  0  0  0  0  0  0  0  0
    0.7050   -1.9449    0.0000 Cl  0  0  0  0  0  0  0  0  0  0  0  0
   -0.1200   -0.5160    0.0000 O   0  0  0  0  0  0  0  0  0  0  0  0
  1  2  1  0  0  0  0
  2  3  1  0  0  0  0
  2  4  1  0  0  0  0
  1  5  2  0  0  0  0
M  END
> <ChemID>
100804

> <CAS>
138689-24-4

> <Original_SMILES>
O=CC(F)Cl

> <preferred_name>


> <dsstox_substance_id>
DTXSID30875561

> <dsstox_compound_id>
DTXCID801013682

> <qc_level>


> <Canonical_QSARr>
O=CC(F)Cl

> <InChI_Code_QSARr>
InChI=1S/C2H2ClFO/c3-2(4)1-5/h1-2H

> <InChI Key_QSARr>
AVAHZUUYBFUOPN-UHFFFAOYSA-N

> <Salt_Solvent>


> <Salt_Solvent_ID>
0

> <MPID>
99272

> <OH Reference>
SCOLLARD,DJ ET AL. (1993)

> <OH>
2.1E-12

> <OH Temperature>
25.0

> <LogOH>
-11.677780705266093

> <Tr_1_Tst_0>
1

$$$$
100806
  Mrv171c012241912032D          

  9  9  0  0  0  0            999 V2000
    0.0995   -0.1709    0.0000 C   0  0  0  0  0  0  0  0  0  0  0  0
    0.6829   -0.7542    0.0000 F   0  0  0  0  0  0  0  0  0  0  0  0
   -0.4838   -0.7542    0.0000 F   0  0  0  0  0  0  0  0  0  0  0  0
    0.6829    0.4125    0.0000 C   0  0  0  0  0  0  0  0  0  0  0  0
    1.5079    0.4125    0.0000 F   0  0  0  0  0  0  0  0  0  0  0  0
    0.0995    0.9958    0.0000 C   0  0  0  0  0  0  0  0  0  0  0  0
    0.6829    1.5792    0.0000 F   0  0  0  0  0  0  0  0  0  0  0  0
   -0.4838    1.5792    0.0000 F   0  0  0  0  0  0  0  0  0  0  0  0
   -0.4838    0.4125    0.0000 O   0  0  0  0  0  0  0  0  0  0  0  0
  1  2  1  0  0  0  0
  1  3  1  0  0  0  0
  4  1  1  0  0  0  0
  4  5  1  0  0  0  0
  6  4  1  0  0  0  0
  6  7  1  0  0  0  0
  6  8  1  0  0  0  0
  9  6  1  0  0  0  0
  1  9  1  0  0  0  0
M  END
> <ChemID>
100806

> <CAS>
144109-03-5

> <Original_SMILES>
FC1C(F)(F)OC1(F)F

> <preferred_name>
Oxetane, 2,2,3,4,4-pentafluoro-

> <dsstox_substance_id>
DTXSID6074128

> <dsstox_compound_id>
DTXCID5034692

> <qc_level>
Public_High

> <Canonical_QSARr>
FC1C(F)(F)OC1(F)F

> <InChI_Code_QSARr>
InChI=1S/C3HF5O/c4-1-2(5,6)9-3(1,7)8/h1H

> <InChI Key_QSARr>
IELDRGPCKXVHLW-UHFFFAOYSA-N

> <Salt_Solvent>


> <Salt_Solvent_ID>
0

> <MPID>
99273

> <OH Reference>
KWOK,ESC & ATKINSON,R (1994)

> <OH>
2.45E-15

> <OH Temperature>
25.0

> <LogOH>
-14.610833915635489

> <Tr_1_Tst_0>
1

$$$$
100807
  Mrv171c012241912032D          

 15 14  0  0  0  0            999 V2000
    1.5199   -2.5933    0.0000 C   0  0  0  0  0  0  0  0  0  0  0  0
    1.9324   -3.3077    0.0000 F   0  0  0  0  0  0  0  0  0  0  0  0
    2.2343   -2.1808    0.0000 F   0  0  0  0  0  0  0  0  0  0  0  0
    0.8054   -3.0058    0.0000 F   0  0  0  0  0  0  0  0  0  0  0  0
    1.1074   -1.8788    0.0000 C   0  0  0  0  0  0  0  0  0  0  0  0
    1.8218   -1.4663    0.0000 F   0  0  0  0  0  0  0  0  0  0  0  0
    0.3929   -2.2913    0.0000 F   0  0  0  0  0  0  0  0  0  0  0  0
    0.6949   -1.1643    0.0000 C   0  0  0  0  0  0  0  0  0  0  0  0
    1.4093   -0.7518    0.0000 F   0  0  0  0  0  0  0  0  0  0  0  0
   -0.0196   -1.5768    0.0000 F   0  0  0  0  0  0  0  0  0  0  0  0
    0.2824   -0.4499    0.0000 C   0  0  0  0  0  0  0  0  0  0  0  0
    0.9968   -0.0374    0.0000 F   0  0  0  0  0  0  0  0  0  0  0  0
   -0.4321   -0.8624    0.0000 F   0  0  0  0  0  0  0  0  0  0  0  0
   -0.1301    0.2646    0.0000 O   0  0  0  0  0  0  0  0  0  0  0  0
   -0.9551    0.2646    0.0000 C   0  0  0  0  0  0  0  0  0  0  0  0
  1  2  1  0  0  0  0
  1  3  1  0  0  0  0
  1  4  1  0  0  0  0
  1  5  1  0  0  0  0
  5  6  1  0  0  0  0
  5  7  1  0  0  0  0
  5  8  1  0  0  0  0
  8  9  1  0  0  0  0
  8 10  1  0  0  0  0
  8 11  1  0  0  0  0
 11 12  1  0  0  0  0
 11 13  1  0  0  0  0
 11 14  1  0  0  0  0
 14 15  1  0  0  0  0
M  END
> <ChemID>
100807

> <CAS>
163702-07-6

> <Original_SMILES>
COC(F)(F)C(F)(F)C(F)(F)C(F)(F)F

> <preferred_name>
Butane, 1,1,1,2,2,3,3,4,4-nonafluoro-4-methoxy-

> <dsstox_substance_id>
DTXSID4073120

> <dsstox_compound_id>
DTXCID4035253

> <qc_level>
Public_High

> <Canonical_QSARr>
COC(F)(F)C(F)(F)C(F)(F)C(F)(F)F

> <InChI_Code_QSARr>
InChI=1S/C5H3F9O/c1-15-5(13,14)3(8,9)2(6,7)4(10,11)12/h1H3

> <InChI Key_QSARr>
OKIYQFLILPKULA-UHFFFAOYSA-N

> <Salt_Solvent>


> <Salt_Solvent_ID>
0

> <MPID>
99274

> <OH Reference>
CAVALLI,F ET AL. (1998)

> <OH>
7.2E-15

> <OH Temperature>
22.0

> <LogOH>
-14.14266750356874

> <Tr_1_Tst_0>
0

$$$$
100815
  Mrv171c012241912032D          

  9  8  0  0  0  0            999 V2000
    1.1249   -2.1081    0.0000 O   0  0  0  0  0  0  0  0  0  0  0  0
    0.4104   -2.5206    0.0000 C   0  0  0  0  0  0  0  0  0  0  0  0
    1.1249   -1.2831    0.0000 C   0  0  0  0  0  0  0  0  0  0  0  0
    1.9499   -1.2831    0.0000 F   0  0  0  0  0  0  0  0  0  0  0  0
    0.2999   -1.2831    0.0000 F   0  0  0  0  0  0  0  0  0  0  0  0
    1.1249   -0.4581    0.0000 C   0  0  0  0  0  0  0  0  0  0  0  0
    1.1249    0.3669    0.0000 F   0  0  0  0  0  0  0  0  0  0  0  0
    1.9499   -0.4581    0.0000 F   0  0  0  0  0  0  0  0  0  0  0  0
    0.2999   -0.4581    0.0000 F   0  0  0  0  0  0  0  0  0  0  0  0
  1  2  1  0  0  0  0
  1  3  1  0  0  0  0
  3  4  1  0  0  0  0
  3  5  1  0  0  0  0
  3  6  1  0  0  0  0
  6  7  1  0  0  0  0
  6  8  1  0  0  0  0
  6  9  1  0  0  0  0
M  END
> <ChemID>
100815

> <CAS>
22410-44-2

> <Original_SMILES>
COC(F)(F)C(F)(F)F

> <preferred_name>


> <dsstox_substance_id>
DTXSID20871517

> <dsstox_compound_id>
DTXCID50819184

> <qc_level>


> <Canonical_QSARr>
COC(F)(F)C(F)(F)F

> <InChI_Code_QSARr>
InChI=1S/C3H3F5O/c1-9-3(7,8)2(4,5)6/h1H3

> <InChI Key_QSARr>
GCDWNCOAODIANN-UHFFFAOYSA-N

> <Salt_Solvent>


> <Salt_Solvent_ID>
0

> <MPID>
99275

> <OH Reference>
TOKUHASHI,K ET AL. (1999)

> <OH>
1.21E-14

> <OH Temperature>
25.0

> <LogOH>
-13.917214629683551

> <Tr_1_Tst_0>
1

$$$$
100816
  Mrv171c012241912032D          

 12 11  0  0  0  0            999 V2000
    0.8250   -1.9938    0.0000 C   0  0  0  0  0  0  0  0  0  0  0  0
    0.8250   -2.8188    0.0000 F   0  0  0  0  0  0  0  0  0  0  0  0
    1.6500   -1.9937    0.0000 F   0  0  0  0  0  0  0  0  0  0  0  0
   -0.0000   -1.9938    0.0000 F   0  0  0  0  0  0  0  0  0  0  0  0
    0.8250   -1.1687    0.0000 C   0  0  0  0  0  0  0  0  0  0  0  0
    1.6500   -1.1687    0.0000 F   0  0  0  0  0  0  0  0  0  0  0  0
   -0.0000   -1.1687    0.0000 F   0  0  0  0  0  0  0  0  0  0  0  0
    0.8250   -0.3437    0.0000 C   0  0  0  0  0  0  0  0  0  0  0  0
    0.8250    0.4813    0.0000 O   0  0  0  0  0  0  0  0  0  0  0  0
    0.1105    0.8938    0.0000 C   0  0  0  0  0  0  0  0  0  0  0  0
    1.6500   -0.3438    0.0000 F   0  0  0  0  0  0  0  0  0  0  0  0
   -0.0000   -0.3437    0.0000 F   0  0  0  0  0  0  0  0  0  0  0  0
  1  2  1  0  0  0  0
  1  3  1  0  0  0  0
  1  4  1  0  0  0  0
  1  5  1  0  0  0  0
  5  6  1  0  0  0  0
  5  7  1  0  0  0  0
  5  8  1  0  0  0  0
  8  9  1  0  0  0  0
  9 10  1  0  0  0  0
  8 11  1  0  0  0  0
  8 12  1  0  0  0  0
M  END
> <ChemID>
100816

> <CAS>
375-03-1

> <Original_SMILES>
COC(F)(F)C(F)(F)C(F)(F)F

> <preferred_name>
Propane, 1,1,1,2,2,3,3-heptafluoro-3-methoxy-

> <dsstox_substance_id>
DTXSID7074909

> <dsstox_compound_id>
DTXCID1039341

> <qc_level>
Public_High

> <Canonical_QSARr>
COC(F)(F)C(F)(F)C(F)(F)F

> <InChI_Code_QSARr>
InChI=1S/C4H3F7O/c1-12-4(10,11)2(5,6)3(7,8)9/h1H3

> <InChI Key_QSARr>
NOPJRYAFUXTDLX-UHFFFAOYSA-N

> <Salt_Solvent>


> <Salt_Solvent_ID>
0

> <MPID>
99276

> <OH Reference>
TOKUHASHI,K ET AL. (1999)

> <OH>
1.18E-14

> <OH Temperature>
25.0

> <LogOH>
-13.928117992693887

> <Tr_1_Tst_0>
0

$$$$
100817
  Mrv171c012241912032D          

 12 11  0  0  0  0            999 V2000
    3.5946    0.7053    0.0000 F   0  0  0  0  0  0  0  0  0  0  0  0
    3.1821   -0.0092    0.0000 C   0  0  0  0  0  0  0  0  0  0  0  0
    2.4676    0.4033    0.0000 C   0  0  0  0  0  0  0  0  0  0  0  0
    1.7531    0.8158    0.0000 F   0  0  0  0  0  0  0  0  0  0  0  0
    2.0551   -0.3112    0.0000 F   0  0  0  0  0  0  0  0  0  0  0  0
    2.8801    1.1178    0.0000 F   0  0  0  0  0  0  0  0  0  0  0  0
    3.8966   -0.4217    0.0000 C   0  0  0  0  0  0  0  0  0  0  0  0
    4.6110   -0.8342    0.0000 F   0  0  0  0  0  0  0  0  0  0  0  0
    3.4841   -1.1362    0.0000 F   0  0  0  0  0  0  0  0  0  0  0  0
    4.3091    0.2928    0.0000 F   0  0  0  0  0  0  0  0  0  0  0  0
    2.7696   -0.7237    0.0000 O   0  0  0  0  0  0  0  0  0  0  0  0
    1.9446   -0.7237    0.0000 C   0  0  0  0  0  0  0  0  0  0  0  0
  1  2  1  0  0  0  0
  2  3  1  0  0  0  0
  3  4  1  0  0  0  0
  3  5  1  0  0  0  0
  3  6  1  0  0  0  0
  2  7  1  0  0  0  0
  7  8  1  0  0  0  0
  7  9  1  0  0  0  0
  7 10  1  0  0  0  0
  2 11  1  0  0  0  0
 11 12  1  0  0  0  0
M  END
> <ChemID>
100817

> <CAS>
22052-84-2

> <Original_SMILES>
COC(F)(C(F)(F)F)C(F)(F)F

> <preferred_name>
Heptafluoroisopropyl methyl ether

> <dsstox_substance_id>
DTXSID30379276

> <dsstox_compound_id>
DTXCID30330302

> <qc_level>
Public_Low

> <Canonical_QSARr>
COC(F)(C(F)(F)F)C(F)(F)F

> <InChI_Code_QSARr>
InChI=1S/C4H3F7O/c1-12-2(5,3(6,7)8)4(9,10)11/h1H3

> <InChI Key_QSARr>
HRXXERHTOVVTQF-UHFFFAOYSA-N

> <Salt_Solvent>


> <Salt_Solvent_ID>
0

> <MPID>
99277

> <OH Reference>
TOKUHASHI,K ET AL. (1999)

> <OH>
1.52E-14

> <OH Temperature>
25.0

> <LogOH>
-13.818156412055247

> <Tr_1_Tst_0>
1

$$$$
