100001
  Mrv171c012241912102D          

 20 24  0  0  0  0            999 V2000
    2.8348   -2.5049    0.0000 C   0  0  0  0  0  0  0  0  0  0  0  0
    3.1048   -1.7254    0.0000 C   0  0  0  0  0  0  0  0  0  0  0  0
    3.9149   -1.5695    0.0000 C   0  0  0  0  0  0  0  0  0  0  0  0
    4.4550   -2.1931    0.0000 C   0  0  0  0  0  0  0  0  0  0  0  0
    5.2652   -2.0372    0.0000 C   0  0  0  0  0  0  0  0  0  0  0  0
    5.5352   -1.2576    0.0000 C   0  0  0  0  0  0  0  0  0  0  0  0
    4.9951   -0.6340    0.0000 C   0  0  0  0  0  0  0  0  0  0  0  0
    4.1850   -0.7899    0.0000 C   0  0  0  0  0  0  0  0  0  0  0  0
    3.6449   -0.1663    0.0000 C   0  0  0  0  0  0  0  0  0  0  0  0
    2.8348   -0.3222    0.0000 C   0  0  0  0  0  0  0  0  0  0  0  0
    2.5647   -1.1017    0.0000 C   0  0  0  0  0  0  0  0  0  0  0  0
    1.7546   -1.2576    0.0000 C   0  0  0  0  0  0  0  0  0  0  0  0
    1.2145   -0.6340    0.0000 C   0  0  0  0  0  0  0  0  0  0  0  0
    1.4845    0.1456    0.0000 C   0  0  0  0  0  0  0  0  0  0  0  0
    2.2947    0.3015    0.0000 C   0  0  0  0  0  0  0  0  0  0  0  0
    0.4043   -0.7899    0.0000 C   0  0  0  0  0  0  0  0  0  0  0  0
    0.1343   -1.5695    0.0000 C   0  0  0  0  0  0  0  0  0  0  0  0
    0.6744   -2.1931    0.0000 C   0  0  0  0  0  0  0  0  0  0  0  0
    1.4845   -2.0372    0.0000 C   0  0  0  0  0  0  0  0  0  0  0  0
    2.0246   -2.6608    0.0000 C   0  0  0  0  0  0  0  0  0  0  0  0
  2  1  1  0  0  0  0
  2  3  2  0  0  0  0
  4  3  1  0  0  0  0
  5  4  2  0  0  0  0
  6  5  1  0  0  0  0
  7  6  2  0  0  0  0
  8  7  1  0  0  0  0
  3  8  1  0  0  0  0
  8  9  2  0  0  0  0
  9 10  1  0  0  0  0
 10 11  1  0  0  0  0
 11  2  1  0  0  0  0
 11 12  2  0  0  0  0
 12 13  1  0  0  0  0
 13 14  2  0  0  0  0
 14 15  1  0  0  0  0
 15 10  2  0  0  0  0
 13 16  1  0  0  0  0
 16 17  2  0  0  0  0
 17 18  1  0  0  0  0
 18 19  2  0  0  0  0
 19 12  1  0  0  0  0
 20 19  1  0  0  0  0
  1 20  2  0  0  0  0
M  END
> <ChemID>
100001

> <CAS>
50-32-8

> <Original_SMILES>
c1c2ccccc2c2ccc3cccc4ccc1c2c34

> <preferred_name>
Benzo(a)pyrene

> <dsstox_substance_id>
DTXSID2020139

> <dsstox_compound_id>
DTXCID40139

> <qc_level>
DSSTox_Low

> <Canonical_QSARr>
C1C2=CC=C3C=CC=C4C=CC(C2=C34)=C2C=CC=CC2=1

> <InChI_Code_QSARr>
InChI=1S/C20H12/c1-2-7-17-15(4-1)12-16-9-8-13-5-3-6-14-10-11-18(17)20(16)19(13)14/h1-12H

> <InChI Key_QSARr>
FMMWHPNWAFZXNH-UHFFFAOYSA-N

> <Salt_Solvent>


> <Salt_Solvent_ID>
0

> <MPID>
152

> <LogHalfLife>
2.3502

> <Tr_1_Tst_0>
1

$$$$
100002
  Mrv171c012241912102D          

 22 26  0  0  0  0            999 V2000
    3.7119   -2.1422    0.0000 C   0  0  0  0  0  0  0  0  0  0  0  0
    4.1244   -1.4277    0.0000 C   0  0  0  0  0  0  0  0  0  0  0  0
    4.9494   -1.4277    0.0000 C   0  0  0  0  0  0  0  0  0  0  0  0
    5.3619   -2.1422    0.0000 C   0  0  0  0  0  0  0  0  0  0  0  0
    6.1869   -2.1422    0.0000 C   0  0  0  0  0  0  0  0  0  0  0  0
    6.5994   -1.4277    0.0000 C   0  0  0  0  0  0  0  0  0  0  0  0
    6.1869   -0.7133    0.0000 C   0  0  0  0  0  0  0  0  0  0  0  0
    5.3619   -0.7133    0.0000 C   0  0  0  0  0  0  0  0  0  0  0  0
    4.9494    0.0012    0.0000 C   0  0  0  0  0  0  0  0  0  0  0  0
    4.1244    0.0012    0.0000 C   0  0  0  0  0  0  0  0  0  0  0  0
    3.7119   -0.7133    0.0000 C   0  0  0  0  0  0  0  0  0  0  0  0
    2.8869   -0.7133    0.0000 C   0  0  0  0  0  0  0  0  0  0  0  0
    2.4744   -1.4277    0.0000 C   0  0  0  0  0  0  0  0  0  0  0  0
    1.6494   -1.4277    0.0000 C   0  0  0  0  0  0  0  0  0  0  0  0
    1.2369   -0.7133    0.0000 C   0  0  0  0  0  0  0  0  0  0  0  0
    0.4119   -0.7133    0.0000 C   0  0  0  0  0  0  0  0  0  0  0  0
   -0.0006   -1.4277    0.0000 C   0  0  0  0  0  0  0  0  0  0  0  0
    0.4119   -2.1422    0.0000 C   0  0  0  0  0  0  0  0  0  0  0  0
    1.2369   -2.1422    0.0000 C   0  0  0  0  0  0  0  0  0  0  0  0
    1.6494   -2.8567    0.0000 C   0  0  0  0  0  0  0  0  0  0  0  0
    2.4744   -2.8567    0.0000 C   0  0  0  0  0  0  0  0  0  0  0  0
    2.8869   -2.1422    0.0000 C   0  0  0  0  0  0  0  0  0  0  0  0
  2  1  1  0  0  0  0
  2  3  2  0  0  0  0
  4  3  1  0  0  0  0
  5  4  2  0  0  0  0
  6  5  1  0  0  0  0
  7  6  2  0  0  0  0
  8  7  1  0  0  0  0
  3  8  1  0  0  0  0
  8  9  2  0  0  0  0
  9 10  1  0  0  0  0
 10 11  2  0  0  0  0
 11  2  1  0  0  0  0
 12 11  1  0  0  0  0
 13 12  2  0  0  0  0
 13 14  1  0  0  0  0
 15 14  2  0  0  0  0
 16 15  1  0  0  0  0
 17 16  2  0  0  0  0
 18 17  1  0  0  0  0
 19 18  2  0  0  0  0
 14 19  1  0  0  0  0
 19 20  1  0  0  0  0
 20 21  2  0  0  0  0
 21 22  1  0  0  0  0
  1 22  2  0  0  0  0
 22 13  1  0  0  0  0
M  END
> <ChemID>
100002

> <CAS>
53-70-3

> <Original_SMILES>
c1c2c3ccccc3ccc2cc2c3ccccc3ccc21

> <preferred_name>
Dibenz(a,h)anthracene

> <dsstox_substance_id>
DTXSID9020409

> <dsstox_compound_id>
DTXCID10409

> <qc_level>
DSSTox_Low

> <Canonical_QSARr>
C1=C2C3=CC=CC=C3C=CC2=CC2=C3C=CC=CC3=CC=C21

> <InChI_Code_QSARr>
InChI=1S/C22H14/c1-3-7-19-15(5-1)9-11-17-14-22-18(13-21(17)19)12-10-16-6-2-4-8-20(16)22/h1-14H

> <InChI Key_QSARr>
LHRCREOYAASXPZ-UHFFFAOYSA-N

> <Salt_Solvent>


> <Salt_Solvent_ID>
0

> <MPID>
153

> <LogHalfLife>
2.6232

> <Tr_1_Tst_0>
1

$$$$
100003
  Mrv171c012241912102D          

 18 21  0  0  0  0            999 V2000
    2.8633   -1.7226    0.0000 C   0  0  0  0  0  0  0  0  0  0  0  0
    3.6734   -1.5667    0.0000 C   0  0  0  0  0  0  0  0  0  0  0  0
    3.9434   -0.7872    0.0000 C   0  0  0  0  0  0  0  0  0  0  0  0
    4.7536   -0.6313    0.0000 C   0  0  0  0  0  0  0  0  0  0  0  0
    5.2937   -1.2549    0.0000 C   0  0  0  0  0  0  0  0  0  0  0  0
    5.0236   -2.0345    0.0000 C   0  0  0  0  0  0  0  0  0  0  0  0
    4.2135   -2.1904    0.0000 C   0  0  0  0  0  0  0  0  0  0  0  0
    3.9434   -2.9699    0.0000 C   0  0  0  0  0  0  0  0  0  0  0  0
    3.1333   -3.1258    0.0000 C   0  0  0  0  0  0  0  0  0  0  0  0
    2.5932   -2.5022    0.0000 C   0  0  0  0  0  0  0  0  0  0  0  0
    1.7831   -2.6581    0.0000 C   0  0  0  0  0  0  0  0  0  0  0  0
    1.2430   -2.0345    0.0000 C   0  0  0  0  0  0  0  0  0  0  0  0
    0.4329   -2.1904    0.0000 C   0  0  0  0  0  0  0  0  0  0  0  0
   -0.1072   -1.5667    0.0000 C   0  0  0  0  0  0  0  0  0  0  0  0
    0.1628   -0.7872    0.0000 C   0  0  0  0  0  0  0  0  0  0  0  0
    0.9730   -0.6313    0.0000 C   0  0  0  0  0  0  0  0  0  0  0  0
    1.5130   -1.2549    0.0000 C   0  0  0  0  0  0  0  0  0  0  0  0
    2.3232   -1.0990    0.0000 C   0  0  0  0  0  0  0  0  0  0  0  0
  2  1  1  0  0  0  0
  2  3  1  0  0  0  0
  3  4  2  0  0  0  0
  4  5  1  0  0  0  0
  5  6  2  0  0  0  0
  6  7  1  0  0  0  0
  7  2  2  0  0  0  0
  8  7  1  0  0  0  0
  9  8  2  0  0  0  0
 10  9  1  0  0  0  0
 10  1  1  0  0  0  0
 11 10  2  0  0  0  0
 12 11  1  0  0  0  0
 12 13  1  0  0  0  0
 13 14  2  0  0  0  0
 14 15  1  0  0  0  0
 15 16  2  0  0  0  0
 16 17  1  0  0  0  0
 17 12  2  0  0  0  0
 18 17  1  0  0  0  0
  1 18  2  0  0  0  0
M  END
> <ChemID>
100003

> <CAS>
56-55-3

> <Original_SMILES>
c1c2c3ccccc3ccc2cc2ccccc21

> <preferred_name>
Benz(a)anthracene

> <dsstox_substance_id>
DTXSID5023902

> <dsstox_compound_id>
DTXCID903902

> <qc_level>
DSSTox_Low

> <Canonical_QSARr>
C1=C2C3C=CC=CC=3C=CC2=CC2C=CC=CC=21

> <InChI_Code_QSARr>
InChI=1S/C18H12/c1-2-7-15-12-18-16(11-14(15)6-1)10-9-13-5-3-4-8-17(13)18/h1-12H

> <InChI Key_QSARr>
DXBHBZVCASKNBY-UHFFFAOYSA-N

> <Salt_Solvent>


> <Salt_Solvent_ID>
0

> <MPID>
154

> <LogHalfLife>
2.4564

> <Tr_1_Tst_0>
1

$$$$
100004
  Mrv171c012241912102D          

  6  6  0  0  0  0            999 V2000
    1.4289   -0.4125    0.0000 C   0  0  0  0  0  0  0  0  0  0  0  0
    0.7145    0.0000    0.0000 C   0  0  0  0  0  0  0  0  0  0  0  0
    0.0000   -0.4125    0.0000 C   0  0  0  0  0  0  0  0  0  0  0  0
    0.0000   -1.2375    0.0000 C   0  0  0  0  0  0  0  0  0  0  0  0
    0.7145   -1.6500    0.0000 C   0  0  0  0  0  0  0  0  0  0  0  0
    1.4289   -1.2375    0.0000 C   0  0  0  0  0  0  0  0  0  0  0  0
  2  1  1  0  0  0  0
  3  2  2  0  0  0  0
  4  3  1  0  0  0  0
  5  4  2  0  0  0  0
  6  5  1  0  0  0  0
  1  6  2  0  0  0  0
M  END
> <ChemID>
100004

> <CAS>
71-43-2

> <Original_SMILES>
c1ccccc1

> <preferred_name>
Benzene

> <dsstox_substance_id>
DTXSID3039242

> <dsstox_compound_id>
DTXCID20135

> <qc_level>
DSSTox_Low

> <Canonical_QSARr>
C1C=CC=CC=1

> <InChI_Code_QSARr>
InChI=1S/C6H6/c1-2-4-6-5-3-1/h1-6H

> <InChI Key_QSARr>
UHOVQNZJYSORNB-UHFFFAOYSA-N

> <Salt_Solvent>


> <Salt_Solvent_ID>
0

> <MPID>
155

> <LogHalfLife>
0.7782

> <Tr_1_Tst_0>
0

$$$$
100005
  Mrv171c012241912102D          

  6  5  0  0  0  0            999 V2000
    0.3574   -1.7465    0.0000 C   0  0  0  0  0  0  0  0  0  0  0  0
    1.0718   -1.3340    0.0000 C   0  0  0  0  0  0  0  0  0  0  0  0
    1.0718   -0.5090    0.0000 C   0  0  0  0  0  0  0  0  0  0  0  0
    1.0718    0.3160    0.0000 C   0  0  0  0  0  0  0  0  0  0  0  0
    1.8968   -0.5090    0.0000 C   0  0  0  0  0  0  0  0  0  0  0  0
    0.2468   -0.5090    0.0000 C   0  0  0  0  0  0  0  0  0  0  0  0
  1  2  1  0  0  0  0
  2  3  1  0  0  0  0
  3  4  1  0  0  0  0
  3  5  1  0  0  0  0
  3  6  1  0  0  0  0
M  END
> <ChemID>
100005

> <CAS>
75-83-2

> <Original_SMILES>
CCC(C)(C)C

> <preferred_name>
2,2-Dimethylbutane

> <dsstox_substance_id>
DTXSID4025111

> <dsstox_compound_id>
DTXCID405111

> <qc_level>
DSSTox_Low

> <Canonical_QSARr>
CCC(C)(C)C

> <InChI_Code_QSARr>
InChI=1S/C6H14/c1-5-6(2,3)4/h5H2,1-4H3

> <InChI Key_QSARr>
HNRMPXKDFBEGFZ-UHFFFAOYSA-N

> <Salt_Solvent>


> <Salt_Solvent_ID>
0

> <MPID>
156

> <LogHalfLife>
1.2788

> <Tr_1_Tst_0>
1

$$$$
100006
  Mrv171c012241912102D          

 12 14  0  0  0  0            999 V2000
    0.0158   -0.8857    0.0000 C   0  0  0  0  0  0  0  0  0  0  0  0
    0.7694   -0.5501    0.0000 C   0  0  0  0  0  0  0  0  0  0  0  0
    1.0244    0.2345    0.0000 C   0  0  0  0  0  0  0  0  0  0  0  0
    1.8494    0.2345    0.0000 C   0  0  0  0  0  0  0  0  0  0  0  0
    2.1043   -0.5501    0.0000 C   0  0  0  0  0  0  0  0  0  0  0  0
    1.4369   -1.0350    0.0000 C   0  0  0  0  0  0  0  0  0  0  0  0
    1.3506   -1.8555    0.0000 C   0  0  0  0  0  0  0  0  0  0  0  0
    2.2768   -2.1911    0.0000 C   0  0  0  0  0  0  0  0  0  0  0  0
    2.9442   -1.7061    0.0000 C   0  0  0  0  0  0  0  0  0  0  0  0
    2.8580   -0.8857    0.0000 C   0  0  0  0  0  0  0  0  0  0  0  0
    0.5970   -2.1911    0.0000 C   0  0  0  0  0  0  0  0  0  0  0  0
   -0.0705   -1.7061    0.0000 C   0  0  0  0  0  0  0  0  0  0  0  0
  2  1  1  0  0  0  0
  2  3  1  0  0  0  0
  3  4  1  0  0  0  0
  4  5  1  0  0  0  0
  5  6  1  0  0  0  0
  6  2  2  0  0  0  0
  6  7  1  0  0  0  0
  7  8  1  0  0  0  0
  8  9  2  0  0  0  0
  9 10  1  0  0  0  0
 10  5  2  0  0  0  0
 11  7  2  0  0  0  0
 12 11  1  0  0  0  0
  1 12  2  0  0  0  0
M  END
> <ChemID>
100006

> <CAS>
83-32-9

> <Original_SMILES>
C1Cc2cccc3cccc1c23

> <preferred_name>
Acenaphthene

> <dsstox_substance_id>
DTXSID3021774

> <dsstox_compound_id>
DTXCID201774

> <qc_level>
DSSTox_Low

> <Canonical_QSARr>
C1CC2=CC=CC3=CC=CC1=C23

> <InChI_Code_QSARr>
InChI=1S/C12H10/c1-3-9-4-2-6-11-8-7-10(5-1)12(9)11/h1-6H,7-8H2

> <InChI Key_QSARr>
CWRYPZZKDGJXCA-UHFFFAOYSA-N

> <Salt_Solvent>


> <Salt_Solvent_ID>
0

> <MPID>
157

> <LogHalfLife>
1.5911

> <Tr_1_Tst_0>
1

$$$$
100007
  Mrv171c012241912102D          

 14 16  0  0  0  0            999 V2000
    2.2977   -1.4199    0.0000 C   0  0  0  0  0  0  0  0  0  0  0  0
    2.7102   -0.7054    0.0000 C   0  0  0  0  0  0  0  0  0  0  0  0
    3.5352   -0.7054    0.0000 C   0  0  0  0  0  0  0  0  0  0  0  0
    3.9477   -1.4199    0.0000 C   0  0  0  0  0  0  0  0  0  0  0  0
    3.5352   -2.1344    0.0000 C   0  0  0  0  0  0  0  0  0  0  0  0
    2.7102   -2.1344    0.0000 C   0  0  0  0  0  0  0  0  0  0  0  0
    2.2977   -2.8488    0.0000 C   0  0  0  0  0  0  0  0  0  0  0  0
    1.4727   -2.8488    0.0000 C   0  0  0  0  0  0  0  0  0  0  0  0
    1.0602   -2.1344    0.0000 C   0  0  0  0  0  0  0  0  0  0  0  0
    0.2352   -2.1344    0.0000 C   0  0  0  0  0  0  0  0  0  0  0  0
   -0.1773   -1.4199    0.0000 C   0  0  0  0  0  0  0  0  0  0  0  0
    0.2352   -0.7054    0.0000 C   0  0  0  0  0  0  0  0  0  0  0  0
    1.0602   -0.7054    0.0000 C   0  0  0  0  0  0  0  0  0  0  0  0
    1.4727   -1.4199    0.0000 C   0  0  0  0  0  0  0  0  0  0  0  0
  2  1  1  0  0  0  0
  3  2  2  0  0  0  0
  4  3  1  0  0  0  0
  5  4  2  0  0  0  0
  6  5  1  0  0  0  0
  6  1  2  0  0  0  0
  7  6  1  0  0  0  0
  8  7  2  0  0  0  0
  9  8  1  0  0  0  0
  9 10  1  0  0  0  0
 10 11  2  0  0  0  0
 11 12  1  0  0  0  0
 12 13  2  0  0  0  0
 13 14  1  0  0  0  0
  1 14  1  0  0  0  0
 14  9  2  0  0  0  0
M  END
> <ChemID>
100007

> <CAS>
85-01-8

> <Original_SMILES>
c1cc2ccccc2c2ccccc21

> <preferred_name>
Phenanthrene

> <dsstox_substance_id>
DTXSID6024254

> <dsstox_compound_id>
DTXCID904254

> <qc_level>
DSSTox_Low

> <Canonical_QSARr>
C1=CC2C=CC=CC=2C2C=CC=CC=21

> <InChI_Code_QSARr>
InChI=1S/C14H10/c1-3-7-13-11(5-1)9-10-12-6-2-4-8-14(12)13/h1-10H

> <InChI Key_QSARr>
YNPNZTXNASCQKK-UHFFFAOYSA-N

> <Salt_Solvent>


> <Salt_Solvent_ID>
0

> <MPID>
158

> <LogHalfLife>
1.6232

> <Tr_1_Tst_0>
1

$$$$
100008
  Mrv171c012241912102D          

 13 15  0  0  0  0            999 V2000
    2.5498   -0.5036    0.0000 C   0  0  0  0  0  0  0  0  0  0  0  0
    3.1018    0.1095    0.0000 C   0  0  0  0  0  0  0  0  0  0  0  0
    3.9088   -0.0620    0.0000 C   0  0  0  0  0  0  0  0  0  0  0  0
    4.1637   -0.8466    0.0000 C   0  0  0  0  0  0  0  0  0  0  0  0
    3.6117   -1.4597    0.0000 C   0  0  0  0  0  0  0  0  0  0  0  0
    2.8047   -1.2882    0.0000 C   0  0  0  0  0  0  0  0  0  0  0  0
    2.1373   -1.7731    0.0000 C   0  0  0  0  0  0  0  0  0  0  0  0
    1.4699   -1.2882    0.0000 C   0  0  0  0  0  0  0  0  0  0  0  0
    0.6629   -1.4597    0.0000 C   0  0  0  0  0  0  0  0  0  0  0  0
    0.1109   -0.8466    0.0000 C   0  0  0  0  0  0  0  0  0  0  0  0
    0.3658   -0.0620    0.0000 C   0  0  0  0  0  0  0  0  0  0  0  0
    1.1728    0.1095    0.0000 C   0  0  0  0  0  0  0  0  0  0  0  0
    1.7248   -0.5036    0.0000 C   0  0  0  0  0  0  0  0  0  0  0  0
  2  1  1  0  0  0  0
  3  2  2  0  0  0  0
  4  3  1  0  0  0  0
  5  4  2  0  0  0  0
  6  5  1  0  0  0  0
  6  1  2  0  0  0  0
  7  6  1  0  0  0  0
  8  7  1  0  0  0  0
  8  9  1  0  0  0  0
  9 10  2  0  0  0  0
 10 11  1  0  0  0  0
 11 12  2  0  0  0  0
 12 13  1  0  0  0  0
  1 13  1  0  0  0  0
 13  8  2  0  0  0  0
M  END
> <ChemID>
100008

> <CAS>
86-73-7

> <Original_SMILES>
C1c2ccccc2-c2ccccc21

> <preferred_name>
Fluorene

> <dsstox_substance_id>
DTXSID8024105

> <dsstox_compound_id>
DTXCID604105

> <qc_level>
DSSTox_Low

> <Canonical_QSARr>
C1C2C=CC=CC=2C2C=CC=CC=21

> <InChI_Code_QSARr>
InChI=1S/C13H10/c1-3-7-12-10(5-1)9-11-6-2-4-8-13(11)12/h1-8H,9H2

> <InChI Key_QSARr>
NIHNNTQXNPWCJQ-UHFFFAOYSA-N

> <Salt_Solvent>


> <Salt_Solvent_ID>
0

> <MPID>
159

> <LogHalfLife>
1.6435

> <Tr_1_Tst_0>
0

$$$$
100009
  Mrv171c012241912102D          

 11 12  0  0  0  0            999 V2000
    0.8504   -3.0074    0.0000 C   0  0  0  0  0  0  0  0  0  0  0  0
    0.8504   -2.1824    0.0000 C   0  0  0  0  0  0  0  0  0  0  0  0
    0.1359   -1.7699    0.0000 C   0  0  0  0  0  0  0  0  0  0  0  0
    0.1359   -0.9449    0.0000 C   0  0  0  0  0  0  0  0  0  0  0  0
    0.8504   -0.5324    0.0000 C   0  0  0  0  0  0  0  0  0  0  0  0
    1.5648   -0.9449    0.0000 C   0  0  0  0  0  0  0  0  0  0  0  0
    2.2793   -0.5324    0.0000 C   0  0  0  0  0  0  0  0  0  0  0  0
    2.9938   -0.9449    0.0000 C   0  0  0  0  0  0  0  0  0  0  0  0
    2.9938   -1.7699    0.0000 C   0  0  0  0  0  0  0  0  0  0  0  0
    2.2793   -2.1824    0.0000 C   0  0  0  0  0  0  0  0  0  0  0  0
    1.5648   -1.7699    0.0000 C   0  0  0  0  0  0  0  0  0  0  0  0
  1  2  1  0  0  0  0
  3  2  1  0  0  0  0
  4  3  2  0  0  0  0
  5  4  1  0  0  0  0
  6  5  2  0  0  0  0
  6  7  1  0  0  0  0
  7  8  2  0  0  0  0
  8  9  1  0  0  0  0
  9 10  2  0  0  0  0
 10 11  1  0  0  0  0
  2 11  2  0  0  0  0
 11  6  1  0  0  0  0
M  END
> <ChemID>
100009

> <CAS>
90-12-0|1321-94-4

> <Original_SMILES>
Cc1cccc2ccccc21

> <preferred_name>
1-Methylnaphthalene

> <dsstox_substance_id>
DTXSID9020877|DTXSID3025625

> <dsstox_compound_id>
DTXCID30877

> <qc_level>
DSSTox_Low

> <Canonical_QSARr>
CC1C=CC=C2C=CC=CC2=1

> <InChI_Code_QSARr>
InChI=1S/C11H10/c1-9-5-4-7-10-6-2-3-8-11(9)10/h2-8H,1H3

> <InChI Key_QSARr>
QPUYECUOLPXSFR-UHFFFAOYSA-N

> <Salt_Solvent>


> <Salt_Solvent_ID>
0

> <MPID>
160|278

> <LogHalfLife>
0.96215

> <Tr_1_Tst_0>
1

$$$$
100010
  Mrv171c012241912102D          

 10 11  0  0  0  0            999 V2000
    0.7153   -1.6500    0.0000 C   0  0  0  0  0  0  0  0  0  0  0  0
    0.0008   -1.2375    0.0000 C   0  0  0  0  0  0  0  0  0  0  0  0
    0.0008   -0.4125    0.0000 C   0  0  0  0  0  0  0  0  0  0  0  0
    0.7153    0.0000    0.0000 C   0  0  0  0  0  0  0  0  0  0  0  0
    1.4297   -0.4125    0.0000 C   0  0  0  0  0  0  0  0  0  0  0  0
    2.1442    0.0000    0.0000 C   0  0  0  0  0  0  0  0  0  0  0  0
    2.8587   -0.4125    0.0000 C   0  0  0  0  0  0  0  0  0  0  0  0
    2.8587   -1.2375    0.0000 C   0  0  0  0  0  0  0  0  0  0  0  0
    2.1442   -1.6500    0.0000 C   0  0  0  0  0  0  0  0  0  0  0  0
    1.4297   -1.2375    0.0000 C   0  0  0  0  0  0  0  0  0  0  0  0
  2  1  1  0  0  0  0
  3  2  2  0  0  0  0
  4  3  1  0  0  0  0
  5  4  2  0  0  0  0
  5  6  1  0  0  0  0
  6  7  2  0  0  0  0
  7  8  1  0  0  0  0
  8  9  2  0  0  0  0
  9 10  1  0  0  0  0
  1 10  2  0  0  0  0
 10  5  1  0  0  0  0
M  END
> <ChemID>
100010

> <CAS>
91-20-3

> <Original_SMILES>
c1cccc2ccccc21

> <preferred_name>
Naphthalene

> <dsstox_substance_id>
DTXSID8020913

> <dsstox_compound_id>
DTXCID00913

> <qc_level>
DSSTox_Low

> <Canonical_QSARr>
C1=CC=CC2=CC=CC=C21

> <InChI_Code_QSARr>
InChI=1S/C10H8/c1-2-6-10-8-4-3-7-9(10)5-1/h1-8H

> <InChI Key_QSARr>
UFWIBTONFRDIAS-UHFFFAOYSA-N

> <Salt_Solvent>


> <Salt_Solvent_ID>
0

> <MPID>
161

> <LogHalfLife>
0.4771

> <Tr_1_Tst_0>
1

$$$$
100011
  Mrv171c012241912102D          

 11 12  0  0  0  0            999 V2000
    1.8110   -0.4138    0.0000 C   0  0  0  0  0  0  0  0  0  0  0  0
    1.0965   -0.0013    0.0000 C   0  0  0  0  0  0  0  0  0  0  0  0
    0.3820   -0.4138    0.0000 C   0  0  0  0  0  0  0  0  0  0  0  0
   -0.3325   -0.0013    0.0000 C   0  0  0  0  0  0  0  0  0  0  0  0
    0.3820   -1.2388    0.0000 C   0  0  0  0  0  0  0  0  0  0  0  0
    1.0965   -1.6513    0.0000 C   0  0  0  0  0  0  0  0  0  0  0  0
    1.8110   -1.2388    0.0000 C   0  0  0  0  0  0  0  0  0  0  0  0
    2.5254   -1.6513    0.0000 C   0  0  0  0  0  0  0  0  0  0  0  0
    3.2399   -1.2388    0.0000 C   0  0  0  0  0  0  0  0  0  0  0  0
    3.2399   -0.4138    0.0000 C   0  0  0  0  0  0  0  0  0  0  0  0
    2.5254   -0.0013    0.0000 C   0  0  0  0  0  0  0  0  0  0  0  0
  2  1  1  0  0  0  0
  3  2  2  0  0  0  0
  3  4  1  0  0  0  0
  5  3  1  0  0  0  0
  6  5  2  0  0  0  0
  7  6  1  0  0  0  0
  7  1  1  0  0  0  0
  8  7  2  0  0  0  0
  9  8  1  0  0  0  0
 10  9  2  0  0  0  0
 11 10  1  0  0  0  0
  1 11  2  0  0  0  0
M  END
> <ChemID>
100011

> <CAS>
91-57-6

> <Original_SMILES>
Cc1cc2ccccc2cc1

> <preferred_name>
2-Methylnaphthalene

> <dsstox_substance_id>
DTXSID4020878

> <dsstox_compound_id>
DTXCID60878

> <qc_level>
DSSTox_Low

> <Canonical_QSARr>
CC1=CC2=CC=CC=C2C=C1

> <InChI_Code_QSARr>
InChI=1S/C11H10/c1-9-6-7-10-4-2-3-5-11(10)8-9/h2-8H,1H3

> <InChI Key_QSARr>
QIMMUPPBPVKWKM-UHFFFAOYSA-N

> <Salt_Solvent>


> <Salt_Solvent_ID>
0

> <MPID>
162

> <LogHalfLife>
1.1461

> <Tr_1_Tst_0>
1

$$$$
100012
  Mrv171c012241912102D          

 12 13  0  0  0  0            999 V2000
    1.3498   -1.5392    0.0000 C   0  0  0  0  0  0  0  0  0  0  0  0
    1.3498   -2.3642    0.0000 C   0  0  0  0  0  0  0  0  0  0  0  0
    2.0643   -2.7767    0.0000 C   0  0  0  0  0  0  0  0  0  0  0  0
    2.7787   -2.3642    0.0000 C   0  0  0  0  0  0  0  0  0  0  0  0
    2.7787   -1.5392    0.0000 C   0  0  0  0  0  0  0  0  0  0  0  0
    2.0643   -1.1267    0.0000 C   0  0  0  0  0  0  0  0  0  0  0  0
    2.0643   -0.3017    0.0000 C   0  0  0  0  0  0  0  0  0  0  0  0
    2.7787    0.1108    0.0000 C   0  0  0  0  0  0  0  0  0  0  0  0
    2.7787    0.9358    0.0000 C   0  0  0  0  0  0  0  0  0  0  0  0
    2.0643    1.3483    0.0000 C   0  0  0  0  0  0  0  0  0  0  0  0
    1.3498    0.9358    0.0000 C   0  0  0  0  0  0  0  0  0  0  0  0
    1.3498    0.1108    0.0000 C   0  0  0  0  0  0  0  0  0  0  0  0
  2  1  1  0  0  0  0
  3  2  2  0  0  0  0
  4  3  1  0  0  0  0
  5  4  2  0  0  0  0
  6  5  1  0  0  0  0
  1  6  2  0  0  0  0
  6  7  1  0  0  0  0
  8  7  1  0  0  0  0
  9  8  2  0  0  0  0
 10  9  1  0  0  0  0
 11 10  2  0  0  0  0
 12 11  1  0  0  0  0
  7 12  2  0  0  0  0
M  END
> <ChemID>
100012

> <CAS>
92-52-4

> <Original_SMILES>
c1ccccc1-c1ccccc1

> <preferred_name>
Biphenyl

> <dsstox_substance_id>
DTXSID4020161

> <dsstox_compound_id>
DTXCID60161

> <qc_level>
DSSTox_Low

> <Canonical_QSARr>
C1=CC=CC=C1C1C=CC=CC=1

> <InChI_Code_QSARr>
InChI=1S/C12H10/c1-3-7-11(8-4-1)12-9-5-2-6-10-12/h1-10H

> <InChI Key_QSARr>
ZUOUZKKEUPVFJK-UHFFFAOYSA-N

> <Salt_Solvent>


> <Salt_Solvent_ID>
0

> <MPID>
163

> <LogHalfLife>
1.4914

> <Tr_1_Tst_0>
0

$$$$
100013
  Mrv171c012241912102D          

  9 10  0  0  0  0            999 V2000
   -0.1530   -0.8254    0.0000 C   0  0  0  0  0  0  0  0  0  0  0  0
    0.3319   -0.1580    0.0000 C   0  0  0  0  0  0  0  0  0  0  0  0
    1.1166   -0.4129    0.0000 C   0  0  0  0  0  0  0  0  0  0  0  0
    1.8310   -0.0004    0.0000 C   0  0  0  0  0  0  0  0  0  0  0  0
    2.5455   -0.4129    0.0000 C   0  0  0  0  0  0  0  0  0  0  0  0
    2.5455   -1.2379    0.0000 C   0  0  0  0  0  0  0  0  0  0  0  0
    1.8310   -1.6504    0.0000 C   0  0  0  0  0  0  0  0  0  0  0  0
    1.1166   -1.2379    0.0000 C   0  0  0  0  0  0  0  0  0  0  0  0
    0.3319   -1.4929    0.0000 C   0  0  0  0  0  0  0  0  0  0  0  0
  2  1  1  0  0  0  0
  3  2  1  0  0  0  0
  3  4  1  0  0  0  0
  4  5  2  0  0  0  0
  5  6  1  0  0  0  0
  6  7  2  0  0  0  0
  7  8  1  0  0  0  0
  8  3  2  0  0  0  0
  9  8  1  0  0  0  0
  1  9  2  0  0  0  0
M  END
> <ChemID>
100013

> <CAS>
95-13-6

> <Original_SMILES>
C1C=Cc2ccccc21

> <preferred_name>
Indene

> <dsstox_substance_id>
DTXSID8042052

> <dsstox_compound_id>
DTXCID6022052

> <qc_level>
DSSTox_Low

> <Canonical_QSARr>
C1C=CC2C=CC=CC=21

> <InChI_Code_QSARr>
InChI=1S/C9H8/c1-2-5-9-7-3-6-8(9)4-1/h1-6H,7H2

> <InChI Key_QSARr>
YBYIRNPNPLQARY-UHFFFAOYSA-N

> <Salt_Solvent>


> <Salt_Solvent_ID>
0

> <MPID>
164

> <LogHalfLife>
0.4771

> <Tr_1_Tst_0>
1

$$$$
100014
  Mrv171c012241912102D          

  9 10  0  0  0  0            999 V2000
    0.3239   -1.4946    0.0000 S   0  0  0  0  0  0  0  0  0  0  0  0
   -0.1611   -0.8272    0.0000 C   0  0  0  0  0  0  0  0  0  0  0  0
    0.3239   -0.1597    0.0000 C   0  0  0  0  0  0  0  0  0  0  0  0
    1.1085   -0.4147    0.0000 C   0  0  0  0  0  0  0  0  0  0  0  0
    1.8229   -0.0022    0.0000 C   0  0  0  0  0  0  0  0  0  0  0  0
    2.5374   -0.4147    0.0000 C   0  0  0  0  0  0  0  0  0  0  0  0
    2.5374   -1.2397    0.0000 C   0  0  0  0  0  0  0  0  0  0  0  0
    1.8229   -1.6522    0.0000 C   0  0  0  0  0  0  0  0  0  0  0  0
    1.1085   -1.2397    0.0000 C   0  0  0  0  0  0  0  0  0  0  0  0
  2  1  1  0  0  0  0
  3  2  2  0  0  0  0
  4  3  1  0  0  0  0
  4  5  1  0  0  0  0
  5  6  2  0  0  0  0
  6  7  1  0  0  0  0
  7  8  2  0  0  0  0
  8  9  1  0  0  0  0
  1  9  1  0  0  0  0
  9  4  2  0  0  0  0
M  END
> <ChemID>
100014

> <CAS>
95-15-8

> <Original_SMILES>
c1cccc2[s]ccc21

> <preferred_name>
Benzothiophene

> <dsstox_substance_id>
DTXSID2052736

> <dsstox_compound_id>
DTXCID9031276

> <qc_level>
DSSTox_High

> <Canonical_QSARr>
C1=CC=CC2SC=CC=21

> <InChI_Code_QSARr>
InChI=1S/C8H6S/c1-2-4-8-7(3-1)5-6-9-8/h1-6H

> <InChI Key_QSARr>
FCEHBMOGCRZNNI-UHFFFAOYSA-N

> <Salt_Solvent>


> <Salt_Solvent_ID>
0

> <MPID>
165

> <LogHalfLife>
1.3979

> <Tr_1_Tst_0>
1

$$$$
100015
  Mrv171c012241912102D          

  8  8  0  0  0  0            999 V2000
    0.3589   -2.0602    0.0000 C   0  0  0  0  0  0  0  0  0  0  0  0
    1.0734   -2.4727    0.0000 C   0  0  0  0  0  0  0  0  0  0  0  0
    1.7879   -2.0602    0.0000 C   0  0  0  0  0  0  0  0  0  0  0  0
    1.7879   -1.2352    0.0000 C   0  0  0  0  0  0  0  0  0  0  0  0
    1.0734   -0.8227    0.0000 C   0  0  0  0  0  0  0  0  0  0  0  0
    1.0734    0.0023    0.0000 C   0  0  0  0  0  0  0  0  0  0  0  0
    0.3589   -1.2352    0.0000 C   0  0  0  0  0  0  0  0  0  0  0  0
   -0.3556   -0.8227    0.0000 C   0  0  0  0  0  0  0  0  0  0  0  0
  2  1  2  0  0  0  0
  3  2  1  0  0  0  0
  4  3  2  0  0  0  0
  5  4  1  0  0  0  0
  5  6  1  0  0  0  0
  7  5  2  0  0  0  0
  1  7  1  0  0  0  0
  7  8  1  0  0  0  0
M  END
> <ChemID>
100015

> <CAS>
95-47-6

> <Original_SMILES>
Cc1ccccc1C

> <preferred_name>
o-Xylene

> <dsstox_substance_id>
DTXSID3021807

> <dsstox_compound_id>
DTXCID501807

> <qc_level>
DSSTox_Low

> <Canonical_QSARr>
CC1C=CC=CC=1C

> <InChI_Code_QSARr>
InChI=1S/C8H10/c1-7-5-3-4-6-8(7)2/h3-6H,1-2H3

> <InChI Key_QSARr>
CTQNGGLPUBDAKN-UHFFFAOYSA-N

> <Salt_Solvent>


> <Salt_Solvent_ID>
0

> <MPID>
166

> <LogHalfLife>
0.7782

> <Tr_1_Tst_0>
1

$$$$
100016
  Mrv171c012241912102D          

  9  9  0  0  0  0            999 V2000
    2.5410   -1.6499    0.0000 C   0  0  0  0  0  0  0  0  0  0  0  0
    1.8266   -1.2374    0.0000 C   0  0  0  0  0  0  0  0  0  0  0  0
    1.8266   -0.4124    0.0000 C   0  0  0  0  0  0  0  0  0  0  0  0
    1.1121    0.0001    0.0000 C   0  0  0  0  0  0  0  0  0  0  0  0
    1.1121    0.8251    0.0000 C   0  0  0  0  0  0  0  0  0  0  0  0
    0.3976   -0.4124    0.0000 C   0  0  0  0  0  0  0  0  0  0  0  0
    0.3976   -1.2374    0.0000 C   0  0  0  0  0  0  0  0  0  0  0  0
    1.1121   -1.6499    0.0000 C   0  0  0  0  0  0  0  0  0  0  0  0
    1.1121   -2.4749    0.0000 C   0  0  0  0  0  0  0  0  0  0  0  0
  1  2  1  0  0  0  0
  3  2  1  0  0  0  0
  4  3  2  0  0  0  0
  4  5  1  0  0  0  0
  6  4  1  0  0  0  0
  7  6  2  0  0  0  0
  8  7  1  0  0  0  0
  2  8  2  0  0  0  0
  8  9  1  0  0  0  0
M  END
> <ChemID>
100016

> <CAS>
95-63-6

> <Original_SMILES>
Cc1cc(C)c(C)cc1

> <preferred_name>
1,2,4-Trimethylbenzene

> <dsstox_substance_id>
DTXSID6021402

> <dsstox_compound_id>
DTXCID701402

> <qc_level>
DSSTox_Low

> <Canonical_QSARr>
CC1=CC(C)=C(C)C=C1

> <InChI_Code_QSARr>
InChI=1S/C9H12/c1-7-4-5-8(2)9(3)6-7/h4-6H,1-3H3

> <InChI Key_QSARr>
GWHJZXXIDMPWGX-UHFFFAOYSA-N

> <Salt_Solvent>


> <Salt_Solvent_ID>
0

> <MPID>
167

> <LogHalfLife>
0.6021

> <Tr_1_Tst_0>
0

$$$$
100017
  Mrv171c012241912102D          

 10 10  0  0  0  0            999 V2000
    1.5453   -1.0160    0.0000 C   0  0  0  0  0  0  0  0  0  0  0  0
    2.2598   -0.6035    0.0000 C   0  0  0  0  0  0  0  0  0  0  0  0
    0.8308   -0.6035    0.0000 C   0  0  0  0  0  0  0  0  0  0  0  0
    0.8308    0.2215    0.0000 C   0  0  0  0  0  0  0  0  0  0  0  0
    0.1164   -1.0160    0.0000 C   0  0  0  0  0  0  0  0  0  0  0  0
    0.1164   -1.8410    0.0000 C   0  0  0  0  0  0  0  0  0  0  0  0
   -0.5981   -2.2535    0.0000 C   0  0  0  0  0  0  0  0  0  0  0  0
    0.8308   -2.2535    0.0000 C   0  0  0  0  0  0  0  0  0  0  0  0
    0.8308   -3.0785    0.0000 C   0  0  0  0  0  0  0  0  0  0  0  0
    1.5453   -1.8410    0.0000 C   0  0  0  0  0  0  0  0  0  0  0  0
  1  2  1  0  0  0  0
  3  1  1  0  0  0  0
  3  4  1  0  0  0  0
  5  3  2  0  0  0  0
  6  5  1  0  0  0  0
  6  7  1  0  0  0  0
  8  6  2  0  0  0  0
  8  9  1  0  0  0  0
 10  8  1  0  0  0  0
  1 10  2  0  0  0  0
M  END
> <ChemID>
100017

> <CAS>
95-93-2

> <Original_SMILES>
Cc1cc(C)c(C)cc1C

> <preferred_name>
1,2,4,5-Tetramethylbenzene

> <dsstox_substance_id>
DTXSID1029124

> <dsstox_compound_id>
DTXCID309124

> <qc_level>
DSSTox_Low

> <Canonical_QSARr>
CC1C=C(C)C(C)=CC=1C

> <InChI_Code_QSARr>
InChI=1S/C10H14/c1-7-5-9(3)10(4)6-8(7)2/h5-6H,1-4H3

> <InChI Key_QSARr>
SQNZJJAZBFDUTD-UHFFFAOYSA-N

> <Salt_Solvent>


> <Salt_Solvent_ID>
0

> <MPID>
168

> <LogHalfLife>
0.8451

> <Tr_1_Tst_0>
1

$$$$
100018
  Mrv171c012241912102D          

  6  6  0  0  0  0            999 V2000
    1.2717   -0.2189    0.0000 C   0  0  0  0  0  0  0  0  0  0  0  0
    1.2717    0.6061    0.0000 C   0  0  0  0  0  0  0  0  0  0  0  0
    0.6043   -0.7038    0.0000 C   0  0  0  0  0  0  0  0  0  0  0  0
    0.8592   -1.4885    0.0000 C   0  0  0  0  0  0  0  0  0  0  0  0
    1.6842   -1.4885    0.0000 C   0  0  0  0  0  0  0  0  0  0  0  0
    1.9392   -0.7038    0.0000 C   0  0  0  0  0  0  0  0  0  0  0  0
  1  2  1  0  0  0  0
  3  1  1  0  0  0  0
  4  3  1  0  0  0  0
  5  4  1  0  0  0  0
  6  5  1  0  0  0  0
  1  6  1  0  0  0  0
M  END
> <ChemID>
100018

> <CAS>
96-37-7

> <Original_SMILES>
CC1CCCC1

> <preferred_name>
Methylcyclopentane

> <dsstox_substance_id>
DTXSID3025590

> <dsstox_compound_id>
DTXCID205590

> <qc_level>
DSSTox_Low

> <Canonical_QSARr>
CC1CCCC1

> <InChI_Code_QSARr>
InChI=1S/C6H12/c1-6-4-2-3-5-6/h6H,2-5H2,1H3

> <InChI Key_QSARr>
GDOPTJXRTPNYNR-UHFFFAOYSA-N

> <Salt_Solvent>


> <Salt_Solvent_ID>
0

> <MPID>
169

> <LogHalfLife>
0.6021

> <Tr_1_Tst_0>
1

$$$$
100019
  Mrv171c012241912102D          

  9  9  0  0  0  0            999 V2000
    2.1337   -0.9436    0.0000 C   0  0  0  0  0  0  0  0  0  0  0  0
    1.4193   -0.5311    0.0000 C   0  0  0  0  0  0  0  0  0  0  0  0
    1.4193    0.2939    0.0000 C   0  0  0  0  0  0  0  0  0  0  0  0
    0.7048    0.7064    0.0000 C   0  0  0  0  0  0  0  0  0  0  0  0
    2.1337    0.7064    0.0000 C   0  0  0  0  0  0  0  0  0  0  0  0
    0.7048   -0.9436    0.0000 C   0  0  0  0  0  0  0  0  0  0  0  0
    0.7048   -1.7686    0.0000 C   0  0  0  0  0  0  0  0  0  0  0  0
    1.4193   -2.1811    0.0000 C   0  0  0  0  0  0  0  0  0  0  0  0
    2.1337   -1.7686    0.0000 C   0  0  0  0  0  0  0  0  0  0  0  0
  2  1  1  0  0  0  0
  2  3  1  0  0  0  0
  3  4  1  0  0  0  0
  3  5  1  0  0  0  0
  6  2  2  0  0  0  0
  7  6  1  0  0  0  0
  8  7  2  0  0  0  0
  9  8  1  0  0  0  0
  1  9  2  0  0  0  0
M  END
> <ChemID>
100019

> <CAS>
98-82-8

> <Original_SMILES>
CC(C)c1ccccc1

> <preferred_name>
Cumene

> <dsstox_substance_id>
DTXSID1021827

> <dsstox_compound_id>
DTXCID101827

> <qc_level>
DSSTox_High

> <Canonical_QSARr>
CC(C)C1C=CC=CC=1

> <InChI_Code_QSARr>
InChI=1S/C9H12/c1-8(2)9-6-4-3-5-7-9/h3-8H,1-2H3

> <InChI Key_QSARr>
RWGFKTVRMDUZSP-UHFFFAOYSA-N

> <Salt_Solvent>


> <Salt_Solvent_ID>
0

> <MPID>
170

> <LogHalfLife>
1.1761

> <Tr_1_Tst_0>
1

$$$$
100020
  Mrv171c012241912102D          

  8  8  0  0  0  0            999 V2000
    2.2218    0.9732    0.0000 C   0  0  0  0  0  0  0  0  0  0  0  0
    1.5073    0.5607    0.0000 C   0  0  0  0  0  0  0  0  0  0  0  0
    1.5073   -0.2643    0.0000 C   0  0  0  0  0  0  0  0  0  0  0  0
    0.7928   -0.6768    0.0000 C   0  0  0  0  0  0  0  0  0  0  0  0
    0.7928   -1.5018    0.0000 C   0  0  0  0  0  0  0  0  0  0  0  0
    1.5073   -1.9143    0.0000 C   0  0  0  0  0  0  0  0  0  0  0  0
    2.2218   -1.5018    0.0000 C   0  0  0  0  0  0  0  0  0  0  0  0
    2.2218   -0.6768    0.0000 C   0  0  0  0  0  0  0  0  0  0  0  0
  1  2  1  0  0  0  0
  2  3  1  0  0  0  0
  4  3  1  0  0  0  0
  5  4  2  0  0  0  0
  6  5  1  0  0  0  0
  7  6  2  0  0  0  0
  8  7  1  0  0  0  0
  3  8  2  0  0  0  0
M  END
> <ChemID>
100020

> <CAS>
100-41-4

> <Original_SMILES>
CCc1ccccc1

> <preferred_name>
Ethylbenzene

> <dsstox_substance_id>
DTXSID3020596

> <dsstox_compound_id>
DTXCID10596

> <qc_level>
DSSTox_High

> <Canonical_QSARr>
CCC1C=CC=CC=1

> <InChI_Code_QSARr>
InChI=1S/C8H10/c1-2-8-6-4-3-5-7-8/h3-7H,2H2,1H3

> <InChI Key_QSARr>
YNQLUTRBYVCPMQ-UHFFFAOYSA-N

> <Salt_Solvent>


> <Salt_Solvent_ID>
0

> <MPID>
171

> <LogHalfLife>
0.9031

> <Tr_1_Tst_0>
0

$$$$
100021
  Mrv171c012241912102D          

  9  9  0  0  0  0            999 V2000
    1.2747   -0.5068    0.0000 C   0  0  0  0  0  0  0  0  0  0  0  0
    1.2747    0.3182    0.0000 C   0  0  0  0  0  0  0  0  0  0  0  0
    1.9892    0.7307    0.0000 C   0  0  0  0  0  0  0  0  0  0  0  0
    1.9892    1.5557    0.0000 C   0  0  0  0  0  0  0  0  0  0  0  0
    0.5603   -0.9193    0.0000 C   0  0  0  0  0  0  0  0  0  0  0  0
    0.5603   -1.7443    0.0000 C   0  0  0  0  0  0  0  0  0  0  0  0
    1.2747   -2.1568    0.0000 C   0  0  0  0  0  0  0  0  0  0  0  0
    1.9892   -1.7443    0.0000 C   0  0  0  0  0  0  0  0  0  0  0  0
    1.9892   -0.9193    0.0000 C   0  0  0  0  0  0  0  0  0  0  0  0
  1  2  1  0  0  0  0
  2  3  1  0  0  0  0
  3  4  1  0  0  0  0
  5  1  2  0  0  0  0
  6  5  1  0  0  0  0
  7  6  2  0  0  0  0
  8  7  1  0  0  0  0
  9  8  2  0  0  0  0
  1  9  1  0  0  0  0
M  END
> <ChemID>
100021

> <CAS>
103-65-1

> <Original_SMILES>
CCCc1ccccc1

> <preferred_name>
Propylbenzene

> <dsstox_substance_id>
DTXSID3042219

> <dsstox_compound_id>
DTXCID1022219

> <qc_level>
DSSTox_Low

> <Canonical_QSARr>
CCCC1C=CC=CC=1

> <InChI_Code_QSARr>
InChI=1S/C9H12/c1-2-6-9-7-4-3-5-8-9/h3-5,7-8H,2,6H2,1H3

> <InChI Key_QSARr>
ODLMAHJVESYWTB-UHFFFAOYSA-N

> <Salt_Solvent>


> <Salt_Solvent_ID>
0

> <MPID>
172

> <LogHalfLife>
0.6021

> <Tr_1_Tst_0>
1

$$$$
100022
  Mrv171c012241912102D          

  8  8  0  0  0  0            999 V2000
    1.6500   -2.3653    0.0000 C   0  0  0  0  0  0  0  0  0  0  0  0
    1.6500   -1.5403    0.0000 C   0  0  0  0  0  0  0  0  0  0  0  0
    2.3645   -1.1278    0.0000 C   0  0  0  0  0  0  0  0  0  0  0  0
    2.3645   -0.3028    0.0000 C   0  0  0  0  0  0  0  0  0  0  0  0
    1.6500    0.1097    0.0000 C   0  0  0  0  0  0  0  0  0  0  0  0
    1.6500    0.9347    0.0000 C   0  0  0  0  0  0  0  0  0  0  0  0
    0.9355   -0.3028    0.0000 C   0  0  0  0  0  0  0  0  0  0  0  0
    0.9355   -1.1278    0.0000 C   0  0  0  0  0  0  0  0  0  0  0  0
  1  2  1  0  0  0  0
  3  2  1  0  0  0  0
  4  3  2  0  0  0  0
  5  4  1  0  0  0  0
  5  6  1  0  0  0  0
  7  5  2  0  0  0  0
  8  7  1  0  0  0  0
  2  8  2  0  0  0  0
M  END
> <ChemID>
100022

> <CAS>
106-42-3

> <Original_SMILES>
Cc1ccc(C)cc1

> <preferred_name>
p-Xylene

> <dsstox_substance_id>
DTXSID2021868

> <dsstox_compound_id>
DTXCID701868

> <qc_level>
DSSTox_Low

> <Canonical_QSARr>
CC1C=CC(C)=CC=1

> <InChI_Code_QSARr>
InChI=1S/C8H10/c1-7-3-5-8(2)6-4-7/h3-6H,1-2H3

> <InChI Key_QSARr>
URLKBWYHVLBVBO-UHFFFAOYSA-N

> <Salt_Solvent>


> <Salt_Solvent_ID>
0

> <MPID>
173

> <LogHalfLife>
0.9542

> <Tr_1_Tst_0>
1

$$$$
100023
  Mrv171c012241912102D          

  7  6  0  0  0  0            999 V2000
    0.8250    1.4289    0.0000 C   0  0  0  0  0  0  0  0  0  0  0  0
    1.2375    2.1434    0.0000 C   0  0  0  0  0  0  0  0  0  0  0  0
   -0.0000    1.4289    0.0000 C   0  0  0  0  0  0  0  0  0  0  0  0
    1.2375    0.7145    0.0000 C   0  0  0  0  0  0  0  0  0  0  0  0
    0.8250   -0.0000    0.0000 C   0  0  0  0  0  0  0  0  0  0  0  0
    1.2375   -0.7145    0.0000 C   0  0  0  0  0  0  0  0  0  0  0  0
   -0.0000   -0.0000    0.0000 C   0  0  0  0  0  0  0  0  0  0  0  0
  1  2  1  0  0  0  0
  1  3  1  0  0  0  0
  1  4  1  0  0  0  0
  4  5  1  0  0  0  0
  5  6  1  0  0  0  0
  5  7  1  0  0  0  0
M  END
> <ChemID>
100023

> <CAS>
108-08-7

> <Original_SMILES>
CC(C)CC(C)C

> <preferred_name>
2,4-Dimethylpentane

> <dsstox_substance_id>
DTXSID2059358

> <dsstox_compound_id>
DTXCID0033099

> <qc_level>
Public_High

> <Canonical_QSARr>
CC(C)CC(C)C

> <InChI_Code_QSARr>
InChI=1S/C7H16/c1-6(2)5-7(3)4/h6-7H,5H2,1-4H3

> <InChI Key_QSARr>
BZHMBWZPUJHVEE-UHFFFAOYSA-N

> <Salt_Solvent>


> <Salt_Solvent_ID>
0

> <MPID>
174

> <LogHalfLife>
1.6812

> <Tr_1_Tst_0>
1

$$$$
100024
  Mrv171c012241912102D          

  8  8  0  0  0  0            999 V2000
    1.7055   -3.2018    0.0000 C   0  0  0  0  0  0  0  0  0  0  0  0
    2.4199   -2.7893    0.0000 C   0  0  0  0  0  0  0  0  0  0  0  0
    2.4199   -1.9643    0.0000 C   0  0  0  0  0  0  0  0  0  0  0  0
    1.7055   -1.5518    0.0000 C   0  0  0  0  0  0  0  0  0  0  0  0
    1.7055   -0.7268    0.0000 C   0  0  0  0  0  0  0  0  0  0  0  0
    0.9910   -1.9643    0.0000 C   0  0  0  0  0  0  0  0  0  0  0  0
    0.9910   -2.7893    0.0000 C   0  0  0  0  0  0  0  0  0  0  0  0
    0.2765   -3.2018    0.0000 C   0  0  0  0  0  0  0  0  0  0  0  0
  2  1  2  0  0  0  0
  3  2  1  0  0  0  0
  4  3  2  0  0  0  0
  4  5  1  0  0  0  0
  6  4  1  0  0  0  0
  7  6  2  0  0  0  0
  1  7  1  0  0  0  0
  7  8  1  0  0  0  0
M  END
> <ChemID>
100024

> <CAS>
108-38-3

> <Original_SMILES>
Cc1cc(C)ccc1

> <preferred_name>
m-Xylene

> <dsstox_substance_id>
DTXSID6026298

> <dsstox_compound_id>
DTXCID501446

> <qc_level>
DSSTox_Low

> <Canonical_QSARr>
CC1=CC(C)=CC=C1

> <InChI_Code_QSARr>
InChI=1S/C8H10/c1-7-4-3-5-8(2)6-7/h3-6H,1-2H3

> <InChI Key_QSARr>
IVSZLXZYQVIEFR-UHFFFAOYSA-N

> <Salt_Solvent>


> <Salt_Solvent_ID>
0

> <MPID>
175

> <LogHalfLife>
1.0

> <Tr_1_Tst_0>
0

$$$$
100025
  Mrv171c012241912102D          

  9  9  0  0  0  0            999 V2000
    2.1349   -2.0567    0.0000 C   0  0  0  0  0  0  0  0  0  0  0  0
    2.8494   -2.4692    0.0000 C   0  0  0  0  0  0  0  0  0  0  0  0
    2.1349   -1.2317    0.0000 C   0  0  0  0  0  0  0  0  0  0  0  0
    1.4204   -0.8192    0.0000 C   0  0  0  0  0  0  0  0  0  0  0  0
    1.4204    0.0058    0.0000 C   0  0  0  0  0  0  0  0  0  0  0  0
    0.7060   -1.2317    0.0000 C   0  0  0  0  0  0  0  0  0  0  0  0
    0.7060   -2.0567    0.0000 C   0  0  0  0  0  0  0  0  0  0  0  0
   -0.0085   -2.4692    0.0000 C   0  0  0  0  0  0  0  0  0  0  0  0
    1.4204   -2.4692    0.0000 C   0  0  0  0  0  0  0  0  0  0  0  0
  1  2  1  0  0  0  0
  3  1  1  0  0  0  0
  4  3  2  0  0  0  0
  4  5  1  0  0  0  0
  6  4  1  0  0  0  0
  7  6  2  0  0  0  0
  7  8  1  0  0  0  0
  9  7  1  0  0  0  0
  1  9  2  0  0  0  0
M  END
> <ChemID>
100025

> <CAS>
108-67-8

> <Original_SMILES>
Cc1cc(C)cc(C)c1

> <preferred_name>
1,3,5-Trimethylbenzene

> <dsstox_substance_id>
DTXSID6026797

> <dsstox_compound_id>
DTXCID506797

> <qc_level>
DSSTox_Low

> <Canonical_QSARr>
CC1C=C(C)C=C(C)C=1

> <InChI_Code_QSARr>
InChI=1S/C9H12/c1-7-4-8(2)6-9(3)5-7/h4-6H,1-3H3

> <InChI Key_QSARr>
AUHZEENZYGFFBQ-UHFFFAOYSA-N

> <Salt_Solvent>


> <Salt_Solvent_ID>
0

> <MPID>
176

> <LogHalfLife>
0.4771

> <Tr_1_Tst_0>
1

$$$$
100026
  Mrv171c012241912102D          

  7  7  0  0  0  0            999 V2000
    1.4305   -1.2414    0.0000 C   0  0  0  0  0  0  0  0  0  0  0  0
    0.7160   -0.8289    0.0000 C   0  0  0  0  0  0  0  0  0  0  0  0
    0.7160   -0.0039    0.0000 C   0  0  0  0  0  0  0  0  0  0  0  0
    0.0015   -1.2414    0.0000 C   0  0  0  0  0  0  0  0  0  0  0  0
    0.0015   -2.0664    0.0000 C   0  0  0  0  0  0  0  0  0  0  0  0
    0.7160   -2.4789    0.0000 C   0  0  0  0  0  0  0  0  0  0  0  0
    1.4305   -2.0664    0.0000 C   0  0  0  0  0  0  0  0  0  0  0  0
  2  1  1  0  0  0  0
  2  3  1  0  0  0  0
  4  2  1  0  0  0  0
  5  4  1  0  0  0  0
  6  5  1  0  0  0  0
  7  6  1  0  0  0  0
  1  7  1  0  0  0  0
M  END
> <ChemID>
100026

> <CAS>
108-87-2

> <Original_SMILES>
CC1CCCCC1

> <preferred_name>
Methylcyclohexane

> <dsstox_substance_id>
DTXSID0047749

> <dsstox_compound_id>
DTXCID4027733

> <qc_level>
DSSTox_Low

> <Canonical_QSARr>
CC1CCCCC1

> <InChI_Code_QSARr>
InChI=1S/C7H14/c1-7-5-3-2-4-6-7/h7H,2-6H2,1H3

> <InChI Key_QSARr>
UAEPNZWRGJTJPN-UHFFFAOYSA-N

> <Salt_Solvent>


> <Salt_Solvent_ID>
0

> <MPID>
177

> <LogHalfLife>
0.6021

> <Tr_1_Tst_0>
1

$$$$
100027
  Mrv171c012241912102D          

  7  7  0  0  0  0            999 V2000
    1.4153    0.7000    0.0000 C   0  0  0  0  0  0  0  0  0  0  0  0
    1.4153   -0.1250    0.0000 C   0  0  0  0  0  0  0  0  0  0  0  0
    0.7009   -0.5375    0.0000 C   0  0  0  0  0  0  0  0  0  0  0  0
    0.7009   -1.3625    0.0000 C   0  0  0  0  0  0  0  0  0  0  0  0
    1.4153   -1.7750    0.0000 C   0  0  0  0  0  0  0  0  0  0  0  0
    2.1298   -1.3625    0.0000 C   0  0  0  0  0  0  0  0  0  0  0  0
    2.1298   -0.5375    0.0000 C   0  0  0  0  0  0  0  0  0  0  0  0
  1  2  1  0  0  0  0
  3  2  1  0  0  0  0
  4  3  2  0  0  0  0
  5  4  1  0  0  0  0
  6  5  2  0  0  0  0
  7  6  1  0  0  0  0
  2  7  2  0  0  0  0
M  END
> <ChemID>
100027

> <CAS>
108-88-3

> <Original_SMILES>
Cc1ccccc1

> <preferred_name>
Toluene

> <dsstox_substance_id>
DTXSID7021360

> <dsstox_compound_id>
DTXCID501360

> <qc_level>
DSSTox_Low

> <Canonical_QSARr>
CC1C=CC=CC=1

> <InChI_Code_QSARr>
InChI=1S/C7H8/c1-7-5-3-2-4-6-7/h2-6H,1H3

> <InChI Key_QSARr>
YXFVVABEGXRONW-UHFFFAOYSA-N

> <Salt_Solvent>


> <Salt_Solvent_ID>
0

> <MPID>
178

> <LogHalfLife>
0.301

> <Tr_1_Tst_0>
1

$$$$
100028
  Mrv171c012241912102D          

  5  4  0  0  0  0            999 V2000
    2.1723   -0.3899    0.0000 C   0  0  0  0  0  0  0  0  0  0  0  0
    2.5848   -1.1044    0.0000 C   0  0  0  0  0  0  0  0  0  0  0  0
    1.3473   -0.3899    0.0000 C   0  0  0  0  0  0  0  0  0  0  0  0
    0.9348    0.3245    0.0000 C   0  0  0  0  0  0  0  0  0  0  0  0
    0.1098    0.3245    0.0000 C   0  0  0  0  0  0  0  0  0  0  0  0
  1  2  1  0  0  0  0
  1  3  1  0  0  0  0
  3  4  1  0  0  0  0
  4  5  1  0  0  0  0
M  END
> <ChemID>
100028

> <CAS>
109-66-0

> <Original_SMILES>
CCCCC

> <preferred_name>
Pentane

> <dsstox_substance_id>
DTXSID2025846

> <dsstox_compound_id>
DTXCID705846

> <qc_level>
DSSTox_Low

> <Canonical_QSARr>
CCCCC

> <InChI_Code_QSARr>
InChI=1S/C5H12/c1-3-5-4-2/h3-5H2,1-2H3

> <InChI Key_QSARr>
OFBQJSOFQDEBGM-UHFFFAOYSA-N

> <Salt_Solvent>


> <Salt_Solvent_ID>
0

> <MPID>
179

> <LogHalfLife>
0.699

> <Tr_1_Tst_0>
0

$$$$
100029
  Mrv171c012241912102D          

  6  5  0  0  0  0            999 V2000
    0.0018   -0.4119    0.0000 C   0  0  0  0  0  0  0  0  0  0  0  0
    0.7163    0.0006    0.0000 C   0  0  0  0  0  0  0  0  0  0  0  0
    1.4307   -0.4119    0.0000 C   0  0  0  0  0  0  0  0  0  0  0  0
    2.1452    0.0006    0.0000 C   0  0  0  0  0  0  0  0  0  0  0  0
    2.8597   -0.4119    0.0000 C   0  0  0  0  0  0  0  0  0  0  0  0
    3.5741    0.0006    0.0000 C   0  0  0  0  0  0  0  0  0  0  0  0
  1  2  1  0  0  0  0
  2  3  1  0  0  0  0
  3  4  1  0  0  0  0
  4  5  1  0  0  0  0
  5  6  1  0  0  0  0
M  END
> <ChemID>
100029

> <CAS>
110-54-3

> <Original_SMILES>
CCCCCC

> <preferred_name>
Hexane

> <dsstox_substance_id>
DTXSID0021917

> <dsstox_compound_id>
DTXCID001917

> <qc_level>
DSSTox_Low

> <Canonical_QSARr>
CCCCCC

> <InChI_Code_QSARr>
InChI=1S/C6H14/c1-3-5-6-4-2/h3-6H2,1-2H3

> <InChI Key_QSARr>
VLKZOEOYAKHREP-UHFFFAOYSA-N

> <Salt_Solvent>


> <Salt_Solvent_ID>
0

> <MPID>
180

> <LogHalfLife>
0.9542

> <Tr_1_Tst_0>
1

$$$$
100030
  Mrv171c012241912102D          

  6  6  0  0  0  0            999 V2000
    1.4289   -0.4125    0.0000 C   0  0  0  0  0  0  0  0  0  0  0  0
    0.7145    0.0000    0.0000 C   0  0  0  0  0  0  0  0  0  0  0  0
    0.0000   -0.4125    0.0000 C   0  0  0  0  0  0  0  0  0  0  0  0
    0.0000   -1.2375    0.0000 C   0  0  0  0  0  0  0  0  0  0  0  0
    0.7145   -1.6500    0.0000 C   0  0  0  0  0  0  0  0  0  0  0  0
    1.4289   -1.2375    0.0000 C   0  0  0  0  0  0  0  0  0  0  0  0
  2  1  1  0  0  0  0
  3  2  1  0  0  0  0
  4  3  1  0  0  0  0
  5  4  1  0  0  0  0
  6  5  1  0  0  0  0
  1  6  1  0  0  0  0
M  END
> <ChemID>
100030

> <CAS>
110-82-7

> <Original_SMILES>
C1CCCCC1

> <preferred_name>
Cyclohexane

> <dsstox_substance_id>
DTXSID4021923

> <dsstox_compound_id>
DTXCID701923

> <qc_level>
DSSTox_Low

> <Canonical_QSARr>
C1CCCCC1

> <InChI_Code_QSARr>
InChI=1S/C6H12/c1-2-4-6-5-3-1/h1-6H2

> <InChI Key_QSARr>
XDTMQSROBMDMFD-UHFFFAOYSA-N

> <Salt_Solvent>


> <Salt_Solvent_ID>
0

> <MPID>
181

> <LogHalfLife>
1.699

> <Tr_1_Tst_0>
1

$$$$
100031
  Mrv171c012241912102D          

 30 29  0  0  0  0            999 V2000
   11.4463   -1.2593    0.0000 C   0  0  0  0  0  0  0  0  0  0  0  0
   10.7318   -0.8468    0.0000 C   0  0  0  0  0  0  0  0  0  0  0  0
   10.0174   -1.2593    0.0000 C   0  0  0  0  0  0  0  0  0  0  0  0
   10.0174   -2.0843    0.0000 C   0  0  0  0  0  0  0  0  0  0  0  0
    9.3029   -0.8468    0.0000 C   0  0  0  0  0  0  0  0  0  0  0  0
    8.5884   -1.2593    0.0000 C   0  0  0  0  0  0  0  0  0  0  0  0
    7.8740   -0.8468    0.0000 C   0  0  0  0  0  0  0  0  0  0  0  0
    7.1595   -1.2593    0.0000 C   0  0  0  0  0  0  0  0  0  0  0  0
    6.4450   -0.8468    0.0000 C   0  0  0  0  0  0  0  0  0  0  0  0
    6.4450   -0.0218    0.0000 C   0  0  0  0  0  0  0  0  0  0  0  0
    5.7305   -1.2593    0.0000 C   0  0  0  0  0  0  0  0  0  0  0  0
    5.0161   -0.8468    0.0000 C   0  0  0  0  0  0  0  0  0  0  0  0
    4.3016   -1.2593    0.0000 C   0  0  0  0  0  0  0  0  0  0  0  0
    3.5871   -0.8468    0.0000 C   0  0  0  0  0  0  0  0  0  0  0  0
    3.5871   -0.0218    0.0000 C   0  0  0  0  0  0  0  0  0  0  0  0
    2.8727   -1.2593    0.0000 C   0  0  0  0  0  0  0  0  0  0  0  0
    2.1582   -0.8468    0.0000 C   0  0  0  0  0  0  0  0  0  0  0  0
    1.4437   -1.2593    0.0000 C   0  0  0  0  0  0  0  0  0  0  0  0
    0.7293   -0.8468    0.0000 C   0  0  0  0  0  0  0  0  0  0  0  0
    0.0148   -1.2593    0.0000 C   0  0  0  0  0  0  0  0  0  0  0  0
    0.7293   -0.0218    0.0000 C   0  0  0  0  0  0  0  0  0  0  0  0
   12.1608   -0.8468    0.0000 C   0  0  0  0  0  0  0  0  0  0  0  0
   12.8753   -1.2593    0.0000 C   0  0  0  0  0  0  0  0  0  0  0  0
   12.8753   -2.0843    0.0000 C   0  0  0  0  0  0  0  0  0  0  0  0
   13.5897   -0.8468    0.0000 C   0  0  0  0  0  0  0  0  0  0  0  0
   14.3042   -1.2593    0.0000 C   0  0  0  0  0  0  0  0  0  0  0  0
   15.0187   -0.8468    0.0000 C   0  0  0  0  0  0  0  0  0  0  0  0
   15.7331   -1.2593    0.0000 C   0  0  0  0  0  0  0  0  0  0  0  0
   16.4476   -0.8468    0.0000 C   0  0  0  0  0  0  0  0  0  0  0  0
   15.7331   -2.0843    0.0000 C   0  0  0  0  0  0  0  0  0  0  0  0
  1  2  1  0  0  0  0
  2  3  1  0  0  0  0
  3  4  1  0  0  0  0
  3  5  1  0  0  0  0
  5  6  1  0  0  0  0
  6  7  1  0  0  0  0
  7  8  1  0  0  0  0
  8  9  1  0  0  0  0
  9 10  1  0  0  0  0
  9 11  1  0  0  0  0
 11 12  1  0  0  0  0
 12 13  1  0  0  0  0
 13 14  1  0  0  0  0
 14 15  1  0  0  0  0
 14 16  1  0  0  0  0
 16 17  1  0  0  0  0
 17 18  1  0  0  0  0
 18 19  1  0  0  0  0
 19 20  1  0  0  0  0
 19 21  1  0  0  0  0
  1 22  1  0  0  0  0
 22 23  1  0  0  0  0
 23 24  1  0  0  0  0
 23 25  1  0  0  0  0
 25 26  1  0  0  0  0
 26 27  1  0  0  0  0
 27 28  1  0  0  0  0
 28 29  1  0  0  0  0
 28 30  1  0  0  0  0
M  END
> <ChemID>
100031

> <CAS>
111-01-3

> <Original_SMILES>
CC(C)CCCC(C)CCCC(C)CCCCC(C)CCCC(C)CCCC(C)C

> <preferred_name>
Squalane

> <dsstox_substance_id>
DTXSID0046513

> <dsstox_compound_id>
DTXCID8026513

> <qc_level>
DSSTox_Low

> <Canonical_QSARr>
CC(C)CCCC(C)CCCC(C)CCCCC(C)CCCC(C)CCCC(C)C

> <InChI_Code_QSARr>
InChI=1S/C30H62/c1-25(2)15-11-19-29(7)23-13-21-27(5)17-9-10-18-28(6)22-14-24-30(8)20-12-16-26(3)4/h25-30H,9-24H2,1-8H3

> <InChI Key_QSARr>
PRAKJMSDJKAYCZ-UHFFFAOYSA-N

> <Salt_Solvent>


> <Salt_Solvent_ID>
0

> <MPID>
182

> <LogHalfLife>
1.6232

> <Tr_1_Tst_0>
1

$$$$
100032
  Mrv171c012241912102D          

  8  7  0  0  0  0            999 V2000
   -0.0057   -0.4133    0.0000 C   0  0  0  0  0  0  0  0  0  0  0  0
    0.7088   -0.0008    0.0000 C   0  0  0  0  0  0  0  0  0  0  0  0
    1.4233   -0.4133    0.0000 C   0  0  0  0  0  0  0  0  0  0  0  0
    2.1378   -0.0008    0.0000 C   0  0  0  0  0  0  0  0  0  0  0  0
    2.8522   -0.4133    0.0000 C   0  0  0  0  0  0  0  0  0  0  0  0
    3.5667   -0.0008    0.0000 C   0  0  0  0  0  0  0  0  0  0  0  0
    4.2812   -0.4133    0.0000 C   0  0  0  0  0  0  0  0  0  0  0  0
    4.9956   -0.0008    0.0000 C   0  0  0  0  0  0  0  0  0  0  0  0
  1  2  1  0  0  0  0
  2  3  1  0  0  0  0
  3  4  1  0  0  0  0
  4  5  1  0  0  0  0
  5  6  1  0  0  0  0
  6  7  1  0  0  0  0
  7  8  1  0  0  0  0
M  END
> <ChemID>
100032

> <CAS>
111-65-9

> <Original_SMILES>
CCCCCCCC

> <preferred_name>
Octane

> <dsstox_substance_id>
DTXSID0026882

> <dsstox_compound_id>
DTXCID406882

> <qc_level>
DSSTox_Low

> <Canonical_QSARr>
CCCCCCCC

> <InChI_Code_QSARr>
InChI=1S/C8H18/c1-3-5-7-8-6-4-2/h3-8H2,1-2H3

> <InChI Key_QSARr>
TVMXDCGIABBOFY-UHFFFAOYSA-N

> <Salt_Solvent>


> <Salt_Solvent_ID>
0

> <MPID>
183

> <LogHalfLife>
0.9542

> <Tr_1_Tst_0>
0

$$$$
100033
  Mrv171c012241912102D          

  9  8  0  0  0  0            999 V2000
    0.7161   -0.4579    0.0000 C   0  0  0  0  0  0  0  0  0  0  0  0
    0.0017   -0.0454    0.0000 C   0  0  0  0  0  0  0  0  0  0  0  0
    1.4306   -0.0454    0.0000 C   0  0  0  0  0  0  0  0  0  0  0  0
    2.1451   -0.4579    0.0000 C   0  0  0  0  0  0  0  0  0  0  0  0
    2.8595   -0.0454    0.0000 C   0  0  0  0  0  0  0  0  0  0  0  0
    3.5740   -0.4579    0.0000 C   0  0  0  0  0  0  0  0  0  0  0  0
    4.2885   -0.0454    0.0000 C   0  0  0  0  0  0  0  0  0  0  0  0
    5.0030   -0.4579    0.0000 C   0  0  0  0  0  0  0  0  0  0  0  0
    5.7174   -0.0454    0.0000 C   0  0  0  0  0  0  0  0  0  0  0  0
  1  2  1  0  0  0  0
  1  3  1  0  0  0  0
  3  4  1  0  0  0  0
  4  5  1  0  0  0  0
  5  6  1  0  0  0  0
  6  7  1  0  0  0  0
  7  8  1  0  0  0  0
  8  9  1  0  0  0  0
M  END
> <ChemID>
100033

> <CAS>
111-84-2

> <Original_SMILES>
CCCCCCCCC

> <preferred_name>
Nonane

> <dsstox_substance_id>
DTXSID9025796

> <dsstox_compound_id>
DTXCID005796

> <qc_level>
DSSTox_Low

> <Canonical_QSARr>
CCCCCCCCC

> <InChI_Code_QSARr>
InChI=1S/C9H20/c1-3-5-7-9-8-6-4-2/h3-9H2,1-2H3

> <InChI Key_QSARr>
BKIMMITUMNQMOS-UHFFFAOYSA-N

> <Salt_Solvent>


> <Salt_Solvent_ID>
0

> <MPID>
184

> <LogHalfLife>
0.9542

> <Tr_1_Tst_0>
1

$$$$
100034
  Mrv171c012241912102D          

 12 11  0  0  0  0            999 V2000
   -0.0127   -0.4139    0.0000 C   0  0  0  0  0  0  0  0  0  0  0  0
    0.7018   -0.0014    0.0000 C   0  0  0  0  0  0  0  0  0  0  0  0
    1.4163   -0.4139    0.0000 C   0  0  0  0  0  0  0  0  0  0  0  0
    2.1307   -0.0014    0.0000 C   0  0  0  0  0  0  0  0  0  0  0  0
    2.8452   -0.4139    0.0000 C   0  0  0  0  0  0  0  0  0  0  0  0
    3.5597   -0.0014    0.0000 C   0  0  0  0  0  0  0  0  0  0  0  0
    4.2741   -0.4139    0.0000 C   0  0  0  0  0  0  0  0  0  0  0  0
    4.9886   -0.0014    0.0000 C   0  0  0  0  0  0  0  0  0  0  0  0
    5.7031   -0.4139    0.0000 C   0  0  0  0  0  0  0  0  0  0  0  0
    6.4176   -0.0014    0.0000 C   0  0  0  0  0  0  0  0  0  0  0  0
    7.1320   -0.4139    0.0000 C   0  0  0  0  0  0  0  0  0  0  0  0
    7.8465   -0.0014    0.0000 C   0  0  0  0  0  0  0  0  0  0  0  0
  1  2  1  0  0  0  0
  2  3  1  0  0  0  0
  3  4  1  0  0  0  0
  4  5  1  0  0  0  0
  5  6  1  0  0  0  0
  6  7  1  0  0  0  0
  7  8  1  0  0  0  0
  8  9  1  0  0  0  0
  9 10  1  0  0  0  0
 10 11  1  0  0  0  0
 11 12  1  0  0  0  0
M  END
> <ChemID>
100034

> <CAS>
112-40-3

> <Original_SMILES>
CCCCCCCCCCCC

> <preferred_name>
Dodecane

> <dsstox_substance_id>
DTXSID0026913

> <dsstox_compound_id>
DTXCID906913

> <qc_level>
DSSTox_Low

> <Canonical_QSARr>
CCCCCCCCCCCC

> <InChI_Code_QSARr>
InChI=1S/C12H26/c1-3-5-7-9-11-12-10-8-6-4-2/h3-12H2,1-2H3

> <InChI Key_QSARr>
SNRUBQQJIBEYMU-UHFFFAOYSA-N

> <Salt_Solvent>


> <Salt_Solvent_ID>
0

> <MPID>
185

> <LogHalfLife>
1.0

> <Tr_1_Tst_0>
1

$$$$
100035
  Mrv171c012241912102D          

 20 19  0  0  0  0            999 V2000
   -0.0136   -0.4095    0.0000 C   0  0  0  0  0  0  0  0  0  0  0  0
    0.7009    0.0030    0.0000 C   0  0  0  0  0  0  0  0  0  0  0  0
    1.4153   -0.4095    0.0000 C   0  0  0  0  0  0  0  0  0  0  0  0
    2.1298    0.0030    0.0000 C   0  0  0  0  0  0  0  0  0  0  0  0
    2.8443   -0.4095    0.0000 C   0  0  0  0  0  0  0  0  0  0  0  0
    3.5587    0.0030    0.0000 C   0  0  0  0  0  0  0  0  0  0  0  0
    4.2732   -0.4095    0.0000 C   0  0  0  0  0  0  0  0  0  0  0  0
    4.9877    0.0030    0.0000 C   0  0  0  0  0  0  0  0  0  0  0  0
    5.7022   -0.4095    0.0000 C   0  0  0  0  0  0  0  0  0  0  0  0
    6.4166    0.0030    0.0000 C   0  0  0  0  0  0  0  0  0  0  0  0
    7.1311   -0.4095    0.0000 C   0  0  0  0  0  0  0  0  0  0  0  0
    7.8456    0.0030    0.0000 C   0  0  0  0  0  0  0  0  0  0  0  0
    8.5600   -0.4095    0.0000 C   0  0  0  0  0  0  0  0  0  0  0  0
    9.2745    0.0030    0.0000 C   0  0  0  0  0  0  0  0  0  0  0  0
    9.9890   -0.4095    0.0000 C   0  0  0  0  0  0  0  0  0  0  0  0
   10.7034    0.0030    0.0000 C   0  0  0  0  0  0  0  0  0  0  0  0
   11.4179   -0.4095    0.0000 C   0  0  0  0  0  0  0  0  0  0  0  0
   12.1324    0.0030    0.0000 C   0  0  0  0  0  0  0  0  0  0  0  0
   12.8469   -0.4095    0.0000 C   0  0  0  0  0  0  0  0  0  0  0  0
   13.5613    0.0030    0.0000 C   0  0  0  0  0  0  0  0  0  0  0  0
  1  2  1  0  0  0  0
  2  3  1  0  0  0  0
  3  4  1  0  0  0  0
  4  5  1  0  0  0  0
  5  6  1  0  0  0  0
  6  7  1  0  0  0  0
  7  8  1  0  0  0  0
  8  9  1  0  0  0  0
  9 10  1  0  0  0  0
 10 11  1  0  0  0  0
 11 12  1  0  0  0  0
 12 13  1  0  0  0  0
 13 14  1  0  0  0  0
 14 15  1  0  0  0  0
 15 16  1  0  0  0  0
 16 17  1  0  0  0  0
 17 18  1  0  0  0  0
 18 19  1  0  0  0  0
 19 20  1  0  0  0  0
M  END
> <ChemID>
100035

> <CAS>
112-95-8

> <Original_SMILES>
CCCCCCCCCCCCCCCCCCCC

> <preferred_name>
Eicosane

> <dsstox_substance_id>
DTXSID1025227

> <dsstox_compound_id>
DTXCID305227

> <qc_level>
DSSTox_Low

> <Canonical_QSARr>
CCCCCCCCCCCCCCCCCCCC

> <InChI_Code_QSARr>
InChI=1S/C20H42/c1-3-5-7-9-11-13-15-17-19-20-18-16-14-12-10-8-6-4-2/h3-20H2,1-2H3

> <InChI Key_QSARr>
CBFCDTFDPHXCNY-UHFFFAOYSA-N

> <Salt_Solvent>


> <Salt_Solvent_ID>
0

> <MPID>
186

> <LogHalfLife>
1.3979

> <Tr_1_Tst_0>
1

$$$$
100036
  Mrv171c012241912102D          

 10 11  0  0  0  0            999 V2000
    1.4297   -0.4125    0.0000 C   0  0  0  0  0  0  0  0  0  0  0  0
    0.7153    0.0000    0.0000 C   0  0  0  0  0  0  0  0  0  0  0  0
    0.0008   -0.4125    0.0000 C   0  0  0  0  0  0  0  0  0  0  0  0
    0.0008   -1.2375    0.0000 C   0  0  0  0  0  0  0  0  0  0  0  0
    0.7153   -1.6500    0.0000 C   0  0  0  0  0  0  0  0  0  0  0  0
    1.4297   -1.2375    0.0000 C   0  0  0  0  0  0  0  0  0  0  0  0
    2.1442   -1.6500    0.0000 C   0  0  0  0  0  0  0  0  0  0  0  0
    2.8587   -1.2375    0.0000 C   0  0  0  0  0  0  0  0  0  0  0  0
    2.8587   -0.4125    0.0000 C   0  0  0  0  0  0  0  0  0  0  0  0
    2.1442    0.0000    0.0000 C   0  0  0  0  0  0  0  0  0  0  0  0
  2  1  1  0  0  0  0
  3  2  2  0  0  0  0
  4  3  1  0  0  0  0
  5  4  2  0  0  0  0
  6  5  1  0  0  0  0
  6  1  2  0  0  0  0
  7  6  1  0  0  0  0
  8  7  1  0  0  0  0
  9  8  1  0  0  0  0
 10  9  1  0  0  0  0
  1 10  1  0  0  0  0
M  END
> <ChemID>
100036

> <CAS>
119-64-2

> <Original_SMILES>
C1CCCc2ccccc21

> <preferred_name>
Tetralin

> <dsstox_substance_id>
DTXSID1026118

> <dsstox_compound_id>
DTXCID306118

> <qc_level>
DSSTox_Low

> <Canonical_QSARr>
C1CCCC2C=CC=CC=21

> <InChI_Code_QSARr>
InChI=1S/C10H12/c1-2-6-10-8-4-3-7-9(10)5-1/h1-2,5-6H,3-4,7-8H2

> <InChI Key_QSARr>
CXWXQJXEFPUFDZ-UHFFFAOYSA-N

> <Salt_Solvent>


> <Salt_Solvent_ID>
0

> <MPID>
187

> <LogHalfLife>
0.9031

> <Tr_1_Tst_0>
0

$$$$
100037
  Mrv171c012241912102D          

 14 16  0  0  0  0            999 V2000
    2.1385   -0.0041    0.0000 C   0  0  0  0  0  0  0  0  0  0  0  0
    2.8530   -0.4166    0.0000 C   0  0  0  0  0  0  0  0  0  0  0  0
    3.5675   -0.0041    0.0000 C   0  0  0  0  0  0  0  0  0  0  0  0
    4.2819   -0.4166    0.0000 C   0  0  0  0  0  0  0  0  0  0  0  0
    4.2819   -1.2416    0.0000 C   0  0  0  0  0  0  0  0  0  0  0  0
    3.5675   -1.6541    0.0000 C   0  0  0  0  0  0  0  0  0  0  0  0
    2.8530   -1.2416    0.0000 C   0  0  0  0  0  0  0  0  0  0  0  0
    2.1385   -1.6541    0.0000 C   0  0  0  0  0  0  0  0  0  0  0  0
    1.4240   -1.2416    0.0000 C   0  0  0  0  0  0  0  0  0  0  0  0
    0.7096   -1.6541    0.0000 C   0  0  0  0  0  0  0  0  0  0  0  0
   -0.0049   -1.2416    0.0000 C   0  0  0  0  0  0  0  0  0  0  0  0
   -0.0049   -0.4166    0.0000 C   0  0  0  0  0  0  0  0  0  0  0  0
    0.7096   -0.0041    0.0000 C   0  0  0  0  0  0  0  0  0  0  0  0
    1.4240   -0.4166    0.0000 C   0  0  0  0  0  0  0  0  0  0  0  0
  2  1  2  0  0  0  0
  2  3  1  0  0  0  0
  3  4  2  0  0  0  0
  4  5  1  0  0  0  0
  5  6  2  0  0  0  0
  6  7  1  0  0  0  0
  7  2  1  0  0  0  0
  8  7  2  0  0  0  0
  9  8  1  0  0  0  0
  9 10  1  0  0  0  0
 10 11  2  0  0  0  0
 11 12  1  0  0  0  0
 12 13  2  0  0  0  0
 13 14  1  0  0  0  0
  1 14  1  0  0  0  0
 14  9  2  0  0  0  0
M  END
> <ChemID>
100037

> <CAS>
120-12-7

> <Original_SMILES>
c1c2ccccc2cc2ccccc21

> <preferred_name>
Anthracene

> <dsstox_substance_id>
DTXSID0023878

> <dsstox_compound_id>
DTXCID203878

> <qc_level>
DSSTox_Low

> <Canonical_QSARr>
C1=C2C=CC=CC2=CC2C=CC=CC=21

> <InChI_Code_QSARr>
InChI=1S/C14H10/c1-2-6-12-10-14-8-4-3-7-13(14)9-11(12)5-1/h1-10H

> <InChI Key_QSARr>
MWPLVEDNUUSJAV-UHFFFAOYSA-N

> <Salt_Solvent>


> <Salt_Solvent_ID>
0

> <MPID>
188

> <LogHalfLife>
2.0899

> <Tr_1_Tst_0>
1

$$$$
100038
  Mrv171c012241912102D          

 10  9  0  0  0  0            999 V2000
    0.7189    0.0002    0.0000 C   0  0  0  0  0  0  0  0  0  0  0  0
    0.0045   -0.4123    0.0000 C   0  0  0  0  0  0  0  0  0  0  0  0
    1.4334   -0.4123    0.0000 C   0  0  0  0  0  0  0  0  0  0  0  0
    2.1479    0.0002    0.0000 C   0  0  0  0  0  0  0  0  0  0  0  0
    2.8624   -0.4123    0.0000 C   0  0  0  0  0  0  0  0  0  0  0  0
    3.5768    0.0002    0.0000 C   0  0  0  0  0  0  0  0  0  0  0  0
    4.2913   -0.4123    0.0000 C   0  0  0  0  0  0  0  0  0  0  0  0
    5.0058    0.0002    0.0000 C   0  0  0  0  0  0  0  0  0  0  0  0
    5.7202   -0.4123    0.0000 C   0  0  0  0  0  0  0  0  0  0  0  0
    6.4347    0.0002    0.0000 C   0  0  0  0  0  0  0  0  0  0  0  0
  1  2  1  0  0  0  0
  1  3  1  0  0  0  0
  3  4  1  0  0  0  0
  4  5  1  0  0  0  0
  5  6  1  0  0  0  0
  6  7  1  0  0  0  0
  7  8  1  0  0  0  0
  8  9  1  0  0  0  0
  9 10  1  0  0  0  0
M  END
> <ChemID>
100038

> <CAS>
124-18-5

> <Original_SMILES>
CCCCCCCCCC

> <preferred_name>
Decane

> <dsstox_substance_id>
DTXSID6024913

> <dsstox_compound_id>
DTXCID704913

> <qc_level>
DSSTox_Low

> <Canonical_QSARr>
CCCCCCCCCC

> <InChI_Code_QSARr>
InChI=1S/C10H22/c1-3-5-7-9-10-8-6-4-2/h3-10H2,1-2H3

> <InChI Key_QSARr>
DIOQZVSQGTUSAI-UHFFFAOYSA-N

> <Salt_Solvent>


> <Salt_Solvent_ID>
0

> <MPID>
189

> <LogHalfLife>
0.9542

> <Tr_1_Tst_0>
1

$$$$
100039
  Mrv171c012241912102D          

 16 19  0  0  0  0            999 V2000
    2.2044   -1.4429    0.0000 C   0  0  0  0  0  0  0  0  0  0  0  0
    2.6169   -0.7285    0.0000 C   0  0  0  0  0  0  0  0  0  0  0  0
    2.2044   -0.0140    0.0000 C   0  0  0  0  0  0  0  0  0  0  0  0
    1.3794   -0.0140    0.0000 C   0  0  0  0  0  0  0  0  0  0  0  0
    0.9669   -0.7285    0.0000 C   0  0  0  0  0  0  0  0  0  0  0  0
    0.1419   -0.7285    0.0000 C   0  0  0  0  0  0  0  0  0  0  0  0
   -0.2706   -1.4429    0.0000 C   0  0  0  0  0  0  0  0  0  0  0  0
    0.1419   -2.1574    0.0000 C   0  0  0  0  0  0  0  0  0  0  0  0
    0.9669   -2.1574    0.0000 C   0  0  0  0  0  0  0  0  0  0  0  0
    1.3794   -2.8719    0.0000 C   0  0  0  0  0  0  0  0  0  0  0  0
    2.2044   -2.8719    0.0000 C   0  0  0  0  0  0  0  0  0  0  0  0
    2.6169   -2.1574    0.0000 C   0  0  0  0  0  0  0  0  0  0  0  0
    3.4419   -2.1574    0.0000 C   0  0  0  0  0  0  0  0  0  0  0  0
    3.8544   -1.4429    0.0000 C   0  0  0  0  0  0  0  0  0  0  0  0
    3.4419   -0.7285    0.0000 C   0  0  0  0  0  0  0  0  0  0  0  0
    1.3794   -1.4429    0.0000 C   0  0  0  0  0  0  0  0  0  0  0  0
  2  1  1  0  0  0  0
  2  3  1  0  0  0  0
  3  4  2  0  0  0  0
  4  5  1  0  0  0  0
  5  6  2  0  0  0  0
  6  7  1  0  0  0  0
  7  8  2  0  0  0  0
  8  9  1  0  0  0  0
  9 10  1  0  0  0  0
 10 11  2  0  0  0  0
 11 12  1  0  0  0  0
 12  1  2  0  0  0  0
 12 13  1  0  0  0  0
 13 14  2  0  0  0  0
 14 15  1  0  0  0  0
 15  2  2  0  0  0  0
  9 16  2  0  0  0  0
  1 16  1  0  0  0  0
 16  5  1  0  0  0  0
M  END
> <ChemID>
100039

> <CAS>
129-00-0

> <Original_SMILES>
c1cc2cccc3ccc4cccc1c4c32

> <preferred_name>
Pyrene

> <dsstox_substance_id>
DTXSID3024289

> <dsstox_compound_id>
DTXCID804289

> <qc_level>
DSSTox_Low

> <Canonical_QSARr>
C1=CC2C=CC=C3C=CC4=CC=CC1=C4C=23

> <InChI_Code_QSARr>
InChI=1S/C16H10/c1-3-11-7-9-13-5-2-6-14-10-8-12(4-1)15(11)16(13)14/h1-10H

> <InChI Key_QSARr>
BBEAQIROQSPTKN-UHFFFAOYSA-N

> <Salt_Solvent>


> <Salt_Solvent_ID>
0

> <MPID>
190

> <LogHalfLife>
2.3747

> <Tr_1_Tst_0>
1

$$$$
100040
  Mrv171c012241912102D          

 13 15  0  0  0  0            999 V2000
    2.6771   -0.4818    0.0000 C   0  0  0  0  0  0  0  0  0  0  0  0
    3.4841   -0.3102    0.0000 C   0  0  0  0  0  0  0  0  0  0  0  0
    4.0361   -0.9233    0.0000 C   0  0  0  0  0  0  0  0  0  0  0  0
    3.7812   -1.7080    0.0000 C   0  0  0  0  0  0  0  0  0  0  0  0
    2.9742   -1.8795    0.0000 C   0  0  0  0  0  0  0  0  0  0  0  0
    2.4221   -1.2664    0.0000 C   0  0  0  0  0  0  0  0  0  0  0  0
    1.5971   -1.2664    0.0000 C   0  0  0  0  0  0  0  0  0  0  0  0
    1.0451   -1.8795    0.0000 C   0  0  0  0  0  0  0  0  0  0  0  0
    0.2381   -1.7080    0.0000 C   0  0  0  0  0  0  0  0  0  0  0  0
   -0.0168   -0.9233    0.0000 C   0  0  0  0  0  0  0  0  0  0  0  0
    0.5352   -0.3102    0.0000 C   0  0  0  0  0  0  0  0  0  0  0  0
    1.3422   -0.4818    0.0000 C   0  0  0  0  0  0  0  0  0  0  0  0
    2.0096    0.0032    0.0000 S   0  0  0  0  0  0  0  0  0  0  0  0
  2  1  1  0  0  0  0
  3  2  2  0  0  0  0
  4  3  1  0  0  0  0
  5  4  2  0  0  0  0
  6  5  1  0  0  0  0
  6  1  2  0  0  0  0
  7  6  1  0  0  0  0
  7  8  1  0  0  0  0
  8  9  2  0  0  0  0
  9 10  1  0  0  0  0
 10 11  2  0  0  0  0
 11 12  1  0  0  0  0
 12  7  2  0  0  0  0
 13 12  1  0  0  0  0
  1 13  1  0  0  0  0
M  END
> <ChemID>
100040

> <CAS>
132-65-0

> <Original_SMILES>
c1cccc2[s]c3ccccc3c21

> <preferred_name>
Dibenzothiophene

> <dsstox_substance_id>
DTXSID0047741

> <dsstox_compound_id>
DTXCID0027725

> <qc_level>
DSSTox_Low

> <Canonical_QSARr>
C1=CC=CC2SC3C=CC=CC=3C=21

> <InChI_Code_QSARr>
InChI=1S/C12H8S/c1-3-7-11-9(5-1)10-6-2-4-8-12(10)13-11/h1-8H

> <InChI Key_QSARr>
IYYZUPMFVPLQIF-UHFFFAOYSA-N

> <Salt_Solvent>


> <Salt_Solvent_ID>
0

> <MPID>
191

> <LogHalfLife>
1.5563

> <Tr_1_Tst_0>
0

$$$$
100041
  Mrv171c012241912102D          

 10 10  0  0  0  0            999 V2000
    1.0697   -2.8457    0.0000 C   0  0  0  0  0  0  0  0  0  0  0  0
    1.0697   -2.0207    0.0000 C   0  0  0  0  0  0  0  0  0  0  0  0
    1.7842   -1.6082    0.0000 C   0  0  0  0  0  0  0  0  0  0  0  0
    2.4986   -2.0207    0.0000 C   0  0  0  0  0  0  0  0  0  0  0  0
    3.2131   -1.6082    0.0000 C   0  0  0  0  0  0  0  0  0  0  0  0
    3.2131   -0.7832    0.0000 C   0  0  0  0  0  0  0  0  0  0  0  0
    2.4986   -0.3707    0.0000 C   0  0  0  0  0  0  0  0  0  0  0  0
    2.4986    0.4543    0.0000 C   0  0  0  0  0  0  0  0  0  0  0  0
    1.7842    0.8668    0.0000 C   0  0  0  0  0  0  0  0  0  0  0  0
    1.7842   -0.7832    0.0000 C   0  0  0  0  0  0  0  0  0  0  0  0
  1  2  1  0  0  0  0
  2  3  1  0  0  0  0
  4  3  1  0  0  0  0
  5  4  2  0  0  0  0
  6  5  1  0  0  0  0
  7  6  2  0  0  0  0
  7  8  1  0  0  0  0
  8  9  1  0  0  0  0
 10  7  1  0  0  0  0
  3 10  2  0  0  0  0
M  END
> <ChemID>
100041

> <CAS>
141-93-5

> <Original_SMILES>
CCc1cc(CC)ccc1

> <preferred_name>
1,3-Diethylbenzene

> <dsstox_substance_id>
DTXSID1022003

> <dsstox_compound_id>
DTXCID402003

> <qc_level>
DSSTox_Low

> <Canonical_QSARr>
CCC1C=C(CC)C=CC=1

> <InChI_Code_QSARr>
InChI=1S/C10H14/c1-3-9-6-5-7-10(4-2)8-9/h5-8H,3-4H2,1-2H3

> <InChI Key_QSARr>
AFZZYIJIWUTJFO-UHFFFAOYSA-N

> <Salt_Solvent>


> <Salt_Solvent_ID>
0

> <MPID>
192

> <LogHalfLife>
0.8451

> <Tr_1_Tst_0>
1

$$$$
100042
  Mrv171c012241912102D          

  7  6  0  0  0  0            999 V2000
    0.7182   -0.4688    0.0000 C   0  0  0  0  0  0  0  0  0  0  0  0
    0.0038   -0.0563    0.0000 C   0  0  0  0  0  0  0  0  0  0  0  0
    1.4327   -0.0563    0.0000 C   0  0  0  0  0  0  0  0  0  0  0  0
    2.1472   -0.4688    0.0000 C   0  0  0  0  0  0  0  0  0  0  0  0
    2.8617   -0.0563    0.0000 C   0  0  0  0  0  0  0  0  0  0  0  0
    3.5761   -0.4688    0.0000 C   0  0  0  0  0  0  0  0  0  0  0  0
    4.2906   -0.0563    0.0000 C   0  0  0  0  0  0  0  0  0  0  0  0
  1  2  1  0  0  0  0
  1  3  1  0  0  0  0
  3  4  1  0  0  0  0
  4  5  1  0  0  0  0
  5  6  1  0  0  0  0
  6  7  1  0  0  0  0
M  END
> <ChemID>
100042

> <CAS>
142-82-5

> <Original_SMILES>
CCCCCCC

> <preferred_name>
Heptane

> <dsstox_substance_id>
DTXSID6024127

> <dsstox_compound_id>
DTXCID004127

> <qc_level>
DSSTox_Low

> <Canonical_QSARr>
CCCCCCC

> <InChI_Code_QSARr>
InChI=1S/C7H16/c1-3-5-7-6-4-2/h3-7H2,1-2H3

> <InChI Key_QSARr>
IMNFDUFMRHMDMM-UHFFFAOYSA-N

> <Salt_Solvent>


> <Salt_Solvent_ID>
0

> <MPID>
193

> <LogHalfLife>
0.8451

> <Tr_1_Tst_0>
1

$$$$
100043
  Mrv171c012241912102D          

 24 29  0  0  0  0            999 V2000
    1.4586    0.9355    0.0000 C   0  0  0  0  0  0  0  0  0  0  0  0
    1.8711    1.6500    0.0000 C   0  0  0  0  0  0  0  0  0  0  0  0
    1.4586    2.3645    0.0000 C   0  0  0  0  0  0  0  0  0  0  0  0
    0.6336    2.3645    0.0000 C   0  0  0  0  0  0  0  0  0  0  0  0
    0.2211    1.6500    0.0000 C   0  0  0  0  0  0  0  0  0  0  0  0
   -0.6039    1.6500    0.0000 C   0  0  0  0  0  0  0  0  0  0  0  0
   -1.0164    2.3645    0.0000 C   0  0  0  0  0  0  0  0  0  0  0  0
   -1.8414    2.3645    0.0000 C   0  0  0  0  0  0  0  0  0  0  0  0
   -2.2539    1.6500    0.0000 C   0  0  0  0  0  0  0  0  0  0  0  0
   -1.8414    0.9355    0.0000 C   0  0  0  0  0  0  0  0  0  0  0  0
   -1.0164    0.9355    0.0000 C   0  0  0  0  0  0  0  0  0  0  0  0
   -0.6039    0.2211    0.0000 C   0  0  0  0  0  0  0  0  0  0  0  0
    0.2211    0.2211    0.0000 C   0  0  0  0  0  0  0  0  0  0  0  0
    0.6336   -0.4934    0.0000 C   0  0  0  0  0  0  0  0  0  0  0  0
    1.4586   -0.4934    0.0000 C   0  0  0  0  0  0  0  0  0  0  0  0
    1.8711    0.2211    0.0000 C   0  0  0  0  0  0  0  0  0  0  0  0
    2.6961    0.2211    0.0000 C   0  0  0  0  0  0  0  0  0  0  0  0
    3.1086    0.9355    0.0000 C   0  0  0  0  0  0  0  0  0  0  0  0
    3.9336    0.9355    0.0000 C   0  0  0  0  0  0  0  0  0  0  0  0
    4.3461    1.6500    0.0000 C   0  0  0  0  0  0  0  0  0  0  0  0
    3.9336    2.3645    0.0000 C   0  0  0  0  0  0  0  0  0  0  0  0
    3.1086    2.3645    0.0000 C   0  0  0  0  0  0  0  0  0  0  0  0
    2.6961    1.6500    0.0000 C   0  0  0  0  0  0  0  0  0  0  0  0
    0.6336    0.9355    0.0000 C   0  0  0  0  0  0  0  0  0  0  0  0
  2  1  1  0  0  0  0
  2  3  2  0  0  0  0
  3  4  1  0  0  0  0
  4  5  2  0  0  0  0
  5  6  1  0  0  0  0
  7  6  2  0  0  0  0
  8  7  1  0  0  0  0
  9  8  2  0  0  0  0
 10  9  1  0  0  0  0
 11 10  2  0  0  0  0
  6 11  1  0  0  0  0
 11 12  1  0  0  0  0
 12 13  2  0  0  0  0
 13 14  1  0  0  0  0
 14 15  2  0  0  0  0
 15 16  1  0  0  0  0
 16  1  1  0  0  0  0
 16 17  2  0  0  0  0
 17 18  1  0  0  0  0
 19 18  2  0  0  0  0
 20 19  1  0  0  0  0
 21 20  2  0  0  0  0
 22 21  1  0  0  0  0
 23 22  2  0  0  0  0
 18 23  1  0  0  0  0
 23  2  1  0  0  0  0
 13 24  1  0  0  0  0
  1 24  2  0  0  0  0
 24  5  1  0  0  0  0
M  END
> <ChemID>
100043

> <CAS>
189-55-9

> <Original_SMILES>
c1c2ccccc2c2ccc3c4c2c1ccc4cc1ccccc13

> <preferred_name>
Dibenzo[a,i]pyrene

> <dsstox_substance_id>
DTXSID9059751

> <dsstox_compound_id>
DTXCID3035971

> <qc_level>
Public_High

> <Canonical_QSARr>
C1=C2C=CC3=CC4=CC=CC=C4C4=CC=C(C2=C34)C2=CC=CC=C21

> <InChI_Code_QSARr>
InChI=1S/C24H14/c1-3-7-19-15(5-1)13-17-9-10-18-14-16-6-2-4-8-20(16)22-12-11-21(19)23(17)24(18)22/h1-14H

> <InChI Key_QSARr>
TUGYIJVAYAHHHM-UHFFFAOYSA-N

> <Salt_Solvent>


> <Salt_Solvent_ID>
0

> <MPID>
194

> <LogHalfLife>
2.4713

> <Tr_1_Tst_0>
1

$$$$
100044
  Mrv171c012241912102D          

 24 30  0  0  0  0            999 V2000
    2.1416   -2.8884    0.0000 C   0  0  0  0  0  0  0  0  0  0  0  0
    2.1416   -3.7134    0.0000 C   0  0  0  0  0  0  0  0  0  0  0  0
    1.4271   -4.1259    0.0000 C   0  0  0  0  0  0  0  0  0  0  0  0
    0.7127   -3.7134    0.0000 C   0  0  0  0  0  0  0  0  0  0  0  0
    0.7127   -2.8884    0.0000 C   0  0  0  0  0  0  0  0  0  0  0  0
   -0.0018   -2.4759    0.0000 C   0  0  0  0  0  0  0  0  0  0  0  0
   -0.0018   -1.6509    0.0000 C   0  0  0  0  0  0  0  0  0  0  0  0
    0.7127   -1.2384    0.0000 C   0  0  0  0  0  0  0  0  0  0  0  0
    0.7127   -0.4134    0.0000 C   0  0  0  0  0  0  0  0  0  0  0  0
    1.4271   -0.0009    0.0000 C   0  0  0  0  0  0  0  0  0  0  0  0
    2.1416   -0.4134    0.0000 C   0  0  0  0  0  0  0  0  0  0  0  0
    2.8561   -0.0009    0.0000 C   0  0  0  0  0  0  0  0  0  0  0  0
    3.5705   -0.4134    0.0000 C   0  0  0  0  0  0  0  0  0  0  0  0
    3.5705   -1.2384    0.0000 C   0  0  0  0  0  0  0  0  0  0  0  0
    4.2850   -1.6509    0.0000 C   0  0  0  0  0  0  0  0  0  0  0  0
    4.2850   -2.4759    0.0000 C   0  0  0  0  0  0  0  0  0  0  0  0
    3.5705   -2.8884    0.0000 C   0  0  0  0  0  0  0  0  0  0  0  0
    3.5705   -3.7134    0.0000 C   0  0  0  0  0  0  0  0  0  0  0  0
    2.8561   -4.1259    0.0000 C   0  0  0  0  0  0  0  0  0  0  0  0
    2.8561   -2.4759    0.0000 C   0  0  0  0  0  0  0  0  0  0  0  0
    2.8561   -1.6509    0.0000 C   0  0  0  0  0  0  0  0  0  0  0  0
    2.1416   -1.2384    0.0000 C   0  0  0  0  0  0  0  0  0  0  0  0
    1.4271   -1.6509    0.0000 C   0  0  0  0  0  0  0  0  0  0  0  0
    1.4271   -2.4759    0.0000 C   0  0  0  0  0  0  0  0  0  0  0  0
  2  1  2  0  0  0  0
  2  3  1  0  0  0  0
  3  4  2  0  0  0  0
  4  5  1  0  0  0  0
  5  6  1  0  0  0  0
  6  7  2  0  0  0  0
  7  8  1  0  0  0  0
  9  8  1  0  0  0  0
 10  9  2  0  0  0  0
 11 10  1  0  0  0  0
 11 12  1  0  0  0  0
 12 13  2  0  0  0  0
 13 14  1  0  0  0  0
 15 14  1  0  0  0  0
 16 15  2  0  0  0  0
 17 16  1  0  0  0  0
 17 18  1  0  0  0  0
 18 19  2  0  0  0  0
 19  2  1  0  0  0  0
 20 17  2  0  0  0  0
 20  1  1  0  0  0  0
 21 20  1  0  0  0  0
 14 21  2  0  0  0  0
 21 22  1  0  0  0  0
 22 11  2  0  0  0  0
 23 22  1  0  0  0  0
  8 23  2  0  0  0  0
 23 24  1  0  0  0  0
  1 24  1  0  0  0  0
 24  5  2  0  0  0  0
M  END
> <ChemID>
100044

> <CAS>
191-07-1

> <Original_SMILES>
c1cc2ccc3ccc4ccc5ccc6ccc1c1c6c5c4c3c21

> <preferred_name>
Coronene

> <dsstox_substance_id>
DTXSID5047740

> <dsstox_compound_id>
DTXCID5027724

> <qc_level>
DSSTox_Low

> <Canonical_QSARr>
C1=CC2C=CC3C=CC4C=CC5C=CC6C=CC1=C1C=6C=5C=4C=3C=21

> <InChI_Code_QSARr>
InChI=1S/C24H12/c1-2-14-5-6-16-9-11-18-12-10-17-8-7-15-4-3-13(1)19-20(14)22(16)24(18)23(17)21(15)19/h1-12H

> <InChI Key_QSARr>
VPUGDVKSAQVFFS-UHFFFAOYSA-N

> <Salt_Solvent>


> <Salt_Solvent_ID>
0

> <MPID>
195

> <LogHalfLife>
2.8651

> <Tr_1_Tst_0>
0

$$$$
100045
  Mrv171c012241912102D          

 22 27  0  0  0  0            999 V2000
    1.6117   -2.4741    0.0000 C   0  0  0  0  0  0  0  0  0  0  0  0
    0.8972   -2.8866    0.0000 C   0  0  0  0  0  0  0  0  0  0  0  0
    0.8972   -3.7116    0.0000 C   0  0  0  0  0  0  0  0  0  0  0  0
    1.6117   -4.1241    0.0000 C   0  0  0  0  0  0  0  0  0  0  0  0
    2.3262   -3.7116    0.0000 C   0  0  0  0  0  0  0  0  0  0  0  0
    3.0406   -4.1241    0.0000 C   0  0  0  0  0  0  0  0  0  0  0  0
    3.7551   -3.7116    0.0000 C   0  0  0  0  0  0  0  0  0  0  0  0
    3.7551   -2.8866    0.0000 C   0  0  0  0  0  0  0  0  0  0  0  0
    4.4696   -2.4741    0.0000 C   0  0  0  0  0  0  0  0  0  0  0  0
    4.4696   -1.6491    0.0000 C   0  0  0  0  0  0  0  0  0  0  0  0
    3.7551   -1.2366    0.0000 C   0  0  0  0  0  0  0  0  0  0  0  0
    3.0406   -1.6491    0.0000 C   0  0  0  0  0  0  0  0  0  0  0  0
    2.3262   -1.2366    0.0000 C   0  0  0  0  0  0  0  0  0  0  0  0
    2.3262   -0.4116    0.0000 C   0  0  0  0  0  0  0  0  0  0  0  0
    1.6117    0.0009    0.0000 C   0  0  0  0  0  0  0  0  0  0  0  0
    0.8972   -0.4116    0.0000 C   0  0  0  0  0  0  0  0  0  0  0  0
    0.8972   -1.2366    0.0000 C   0  0  0  0  0  0  0  0  0  0  0  0
    0.1828   -1.6491    0.0000 C   0  0  0  0  0  0  0  0  0  0  0  0
    0.1828   -2.4741    0.0000 C   0  0  0  0  0  0  0  0  0  0  0  0
    1.6117   -1.6491    0.0000 C   0  0  0  0  0  0  0  0  0  0  0  0
    3.0406   -2.4741    0.0000 C   0  0  0  0  0  0  0  0  0  0  0  0
    2.3262   -2.8866    0.0000 C   0  0  0  0  0  0  0  0  0  0  0  0
  2  1  2  0  0  0  0
  2  3  1  0  0  0  0
  3  4  2  0  0  0  0
  4  5  1  0  0  0  0
  5  6  1  0  0  0  0
  6  7  2  0  0  0  0
  7  8  1  0  0  0  0
  9  8  1  0  0  0  0
 10  9  2  0  0  0  0
 11 10  1  0  0  0  0
 12 11  2  0  0  0  0
 12 13  1  0  0  0  0
 14 13  1  0  0  0  0
 15 14  2  0  0  0  0
 16 15  1  0  0  0  0
 17 16  2  0  0  0  0
 17 18  1  0  0  0  0
 18 19  2  0  0  0  0
 19  2  1  0  0  0  0
 20 17  1  0  0  0  0
 13 20  2  0  0  0  0
 20  1  1  0  0  0  0
 21 12  1  0  0  0  0
  8 21  2  0  0  0  0
 21 22  1  0  0  0  0
  1 22  1  0  0  0  0
 22  5  2  0  0  0  0
M  END
> <ChemID>
100045

> <CAS>
191-24-2

> <Original_SMILES>
c1cc2ccc3cccc4c3c2c2c3c4cccc3ccc21

> <preferred_name>
Benzo(g,h,i)perylene

> <dsstox_substance_id>
DTXSID5023908

> <dsstox_compound_id>
DTXCID303908

> <qc_level>
DSSTox_Low

> <Canonical_QSARr>
C1=CC=C2C=CC3C=CC4C=CC5C=CC=C6C=5C=4C=3C2=C61

> <InChI_Code_QSARr>
InChI=1S/C22H12/c1-3-13-7-9-15-11-12-16-10-8-14-4-2-6-18-17(5-1)19(13)21(15)22(16)20(14)18/h1-12H

> <InChI Key_QSARr>
GYFAGKUZYNFMBN-UHFFFAOYSA-N

> <Salt_Solvent>


> <Salt_Solvent_ID>
0

> <MPID>
196

> <LogHalfLife>
2.7497

> <Tr_1_Tst_0>
1

$$$$
100046
  Mrv171c012241912102D          

 20 24  0  0  0  0            999 V2000
    2.5716   -1.1997    0.0000 C   0  0  0  0  0  0  0  0  0  0  0  0
    1.8571   -1.6122    0.0000 C   0  0  0  0  0  0  0  0  0  0  0  0
    1.8571   -2.4372    0.0000 C   0  0  0  0  0  0  0  0  0  0  0  0
    1.1427   -2.8497    0.0000 C   0  0  0  0  0  0  0  0  0  0  0  0
    0.4282   -2.4372    0.0000 C   0  0  0  0  0  0  0  0  0  0  0  0
    0.4282   -1.6122    0.0000 C   0  0  0  0  0  0  0  0  0  0  0  0
    1.1427   -1.1997    0.0000 C   0  0  0  0  0  0  0  0  0  0  0  0
    1.1427   -0.3747    0.0000 C   0  0  0  0  0  0  0  0  0  0  0  0
    1.8571    0.0378    0.0000 C   0  0  0  0  0  0  0  0  0  0  0  0
    2.5716   -0.3747    0.0000 C   0  0  0  0  0  0  0  0  0  0  0  0
    1.1427   -3.6747    0.0000 C   0  0  0  0  0  0  0  0  0  0  0  0
    1.8571   -4.0872    0.0000 C   0  0  0  0  0  0  0  0  0  0  0  0
    2.5716   -3.6747    0.0000 C   0  0  0  0  0  0  0  0  0  0  0  0
    2.5716   -2.8497    0.0000 C   0  0  0  0  0  0  0  0  0  0  0  0
    3.2861   -2.4372    0.0000 C   0  0  0  0  0  0  0  0  0  0  0  0
    4.0005   -2.8497    0.0000 C   0  0  0  0  0  0  0  0  0  0  0  0
    4.7150   -2.4372    0.0000 C   0  0  0  0  0  0  0  0  0  0  0  0
    4.7150   -1.6122    0.0000 C   0  0  0  0  0  0  0  0  0  0  0  0
    4.0005   -1.1997    0.0000 C   0  0  0  0  0  0  0  0  0  0  0  0
    3.2861   -1.6122    0.0000 C   0  0  0  0  0  0  0  0  0  0  0  0
  2  1  1  0  0  0  0
  2  3  2  0  0  0  0
  3  4  1  0  0  0  0
  4  5  1  0  0  0  0
  5  6  2  0  0  0  0
  6  7  1  0  0  0  0
  7  2  1  0  0  0  0
  7  8  2  0  0  0  0
  8  9  1  0  0  0  0
  9 10  2  0  0  0  0
 10  1  1  0  0  0  0
  4 11  2  0  0  0  0
 11 12  1  0  0  0  0
 12 13  2  0  0  0  0
 13 14  1  0  0  0  0
 14  3  1  0  0  0  0
 15 14  2  0  0  0  0
 15 16  1  0  0  0  0
 16 17  2  0  0  0  0
 17 18  1  0  0  0  0
 18 19  2  0  0  0  0
 19 20  1  0  0  0  0
  1 20  2  0  0  0  0
 20 15  1  0  0  0  0
M  END
> <ChemID>
100046

> <CAS>
192-97-2

> <Original_SMILES>
c1cc2cccc3c2c2c(cccc21)c1ccccc31

> <preferred_name>
Benzo(e)pyrene

> <dsstox_substance_id>
DTXSID3023764

> <dsstox_compound_id>
DTXCID103764

> <qc_level>
DSSTox_High

> <Canonical_QSARr>
C1=CC2=CC=CC3C2=C2C(C=CC=C21)=C1C=CC=CC=31

> <InChI_Code_QSARr>
InChI=1S/C20H12/c1-2-8-16-15(7-1)17-9-3-5-13-11-12-14-6-4-10-18(16)20(14)19(13)17/h1-12H

> <InChI Key_QSARr>
TXVHTIQJNYSSKO-UHFFFAOYSA-N

> <Salt_Solvent>


> <Salt_Solvent_ID>
0

> <MPID>
197

> <LogHalfLife>
2.5623

> <Tr_1_Tst_0>
1

$$$$
100047
  Mrv171c012241912102D          

 22 27  0  0  0  0            999 V2000
    3.3875   -1.5481    0.0000 C   0  0  0  0  0  0  0  0  0  0  0  0
    4.0067   -1.0028    0.0000 C   0  0  0  0  0  0  0  0  0  0  0  0
    3.8441   -0.1940    0.0000 C   0  0  0  0  0  0  0  0  0  0  0  0
    3.0623    0.0696    0.0000 C   0  0  0  0  0  0  0  0  0  0  0  0
    2.4432   -0.4757    0.0000 C   0  0  0  0  0  0  0  0  0  0  0  0
    1.6614   -0.2121    0.0000 C   0  0  0  0  0  0  0  0  0  0  0  0
    1.0423   -0.7573    0.0000 C   0  0  0  0  0  0  0  0  0  0  0  0
    1.2049   -1.5662    0.0000 C   0  0  0  0  0  0  0  0  0  0  0  0
    0.5857   -2.1114    0.0000 C   0  0  0  0  0  0  0  0  0  0  0  0
    0.7484   -2.9202    0.0000 C   0  0  0  0  0  0  0  0  0  0  0  0
    1.5301   -3.1838    0.0000 C   0  0  0  0  0  0  0  0  0  0  0  0
    2.1493   -2.6385    0.0000 C   0  0  0  0  0  0  0  0  0  0  0  0
    2.9310   -2.9021    0.0000 C   0  0  0  0  0  0  0  0  0  0  0  0
    3.5502   -2.3569    0.0000 C   0  0  0  0  0  0  0  0  0  0  0  0
    4.3696   -2.4522    0.0000 C   0  0  0  0  0  0  0  0  0  0  0  0
    4.7135   -1.7022    0.0000 C   0  0  0  0  0  0  0  0  0  0  0  0
    5.5349   -1.6250    0.0000 C   0  0  0  0  0  0  0  0  0  0  0  0
    6.0124   -2.2978    0.0000 C   0  0  0  0  0  0  0  0  0  0  0  0
    5.6686   -3.0477    0.0000 C   0  0  0  0  0  0  0  0  0  0  0  0
    4.8472   -3.1249    0.0000 C   0  0  0  0  0  0  0  0  0  0  0  0
    1.9866   -1.8297    0.0000 C   0  0  0  0  0  0  0  0  0  0  0  0
    2.6058   -1.2845    0.0000 C   0  0  0  0  0  0  0  0  0  0  0  0
  2  1  2  0  0  0  0
  2  3  1  0  0  0  0
  3  4  2  0  0  0  0
  4  5  1  0  0  0  0
  5  6  1  0  0  0  0
  6  7  2  0  0  0  0
  7  8  1  0  0  0  0
  9  8  2  0  0  0  0
 10  9  1  0  0  0  0
 11 10  2  0  0  0  0
 12 11  1  0  0  0  0
 12 13  1  0  0  0  0
 13 14  2  0  0  0  0
 14  1  1  0  0  0  0
 14 15  1  0  0  0  0
 16 15  2  0  0  0  0
 16  2  1  0  0  0  0
 17 16  1  0  0  0  0
 18 17  2  0  0  0  0
 19 18  1  0  0  0  0
 20 19  2  0  0  0  0
 15 20  1  0  0  0  0
 21 12  2  0  0  0  0
  8 21  1  0  0  0  0
 21 22  1  0  0  0  0
  1 22  1  0  0  0  0
 22  5  2  0  0  0  0
M  END
> <ChemID>
100047

> <CAS>
193-39-5

> <Original_SMILES>
c1c2c3c4c5c1cccc5ccc4ccc3-c1ccccc1-2

> <preferred_name>
Indeno(1,2,3-cd)pyrene

> <dsstox_substance_id>
DTXSID8024153

> <dsstox_compound_id>
DTXCID304153

> <qc_level>
DSSTox_Low

> <Canonical_QSARr>
C1=C2C3C4C5C(C=CC=4C=CC=3C3C=CC=CC=32)=CC=CC=51

> <InChI_Code_QSARr>
InChI=1S/C22H12/c1-2-7-17-16(6-1)18-11-10-14-9-8-13-4-3-5-15-12-19(17)22(18)21(14)20(13)15/h1-12H

> <InChI Key_QSARr>
SXQBHARYMNFBPS-UHFFFAOYSA-N

> <Salt_Solvent>


> <Salt_Solvent_ID>
0

> <MPID>
198

> <LogHalfLife>
2.5185

> <Tr_1_Tst_0>
1

$$$$
100048
  Mrv171c012241912102D          

 20 24  0  0  0  0            999 V2000
    1.3495   -1.8440    0.0000 C   0  0  0  0  0  0  0  0  0  0  0  0
    0.6351   -2.2565    0.0000 C   0  0  0  0  0  0  0  0  0  0  0  0
   -0.0794   -1.8440    0.0000 C   0  0  0  0  0  0  0  0  0  0  0  0
   -0.0794   -1.0190    0.0000 C   0  0  0  0  0  0  0  0  0  0  0  0
    0.6351   -0.6065    0.0000 C   0  0  0  0  0  0  0  0  0  0  0  0
    0.6351    0.2185    0.0000 C   0  0  0  0  0  0  0  0  0  0  0  0
    1.3495    0.6310    0.0000 C   0  0  0  0  0  0  0  0  0  0  0  0
    2.0640    0.2185    0.0000 C   0  0  0  0  0  0  0  0  0  0  0  0
    2.0640   -0.6065    0.0000 C   0  0  0  0  0  0  0  0  0  0  0  0
    2.7785   -1.0190    0.0000 C   0  0  0  0  0  0  0  0  0  0  0  0
    2.7785   -1.8440    0.0000 C   0  0  0  0  0  0  0  0  0  0  0  0
    3.4929   -2.2565    0.0000 C   0  0  0  0  0  0  0  0  0  0  0  0
    3.4929   -3.0815    0.0000 C   0  0  0  0  0  0  0  0  0  0  0  0
    2.7785   -3.4940    0.0000 C   0  0  0  0  0  0  0  0  0  0  0  0
    2.0640   -3.0815    0.0000 C   0  0  0  0  0  0  0  0  0  0  0  0
    2.0640   -2.2565    0.0000 C   0  0  0  0  0  0  0  0  0  0  0  0
    4.2074   -1.8440    0.0000 C   0  0  0  0  0  0  0  0  0  0  0  0
    4.2074   -1.0190    0.0000 C   0  0  0  0  0  0  0  0  0  0  0  0
    3.4929   -0.6065    0.0000 C   0  0  0  0  0  0  0  0  0  0  0  0
    1.3495   -1.0190    0.0000 C   0  0  0  0  0  0  0  0  0  0  0  0
  2  1  2  0  0  0  0
  3  2  1  0  0  0  0
  4  3  2  0  0  0  0
  5  4  1  0  0  0  0
  5  6  1  0  0  0  0
  6  7  2  0  0  0  0
  7  8  1  0  0  0  0
  8  9  2  0  0  0  0
  9 10  1  0  0  0  0
 11 10  1  0  0  0  0
 11 12  2  0  0  0  0
 12 13  1  0  0  0  0
 13 14  2  0  0  0  0
 14 15  1  0  0  0  0
 15 16  2  0  0  0  0
 16  1  1  0  0  0  0
 16 11  1  0  0  0  0
 17 12  1  0  0  0  0
 18 17  2  0  0  0  0
 19 18  1  0  0  0  0
 10 19  2  0  0  0  0
  9 20  1  0  0  0  0
  1 20  1  0  0  0  0
 20  5  2  0  0  0  0
M  END
> <ChemID>
100048

> <CAS>
198-55-0

> <Original_SMILES>
c1ccc2c3c(cccc31)c1cccc3cccc2c31

> <preferred_name>
Perylene

> <dsstox_substance_id>
DTXSID4047753

> <dsstox_compound_id>
DTXCID9027736

> <qc_level>
DSSTox_Low

> <Canonical_QSARr>
C1=CC=C2C3C(=CC=CC=31)C1=CC=CC3C=CC=C2C=31

> <InChI_Code_QSARr>
InChI=1S/C20H12/c1-5-13-6-2-11-17-18-12-4-8-14-7-3-10-16(20(14)18)15(9-1)19(13)17/h1-12H

> <InChI Key_QSARr>
CSHWQDPOILHKBI-UHFFFAOYSA-N

> <Salt_Solvent>


> <Salt_Solvent_ID>
0

> <MPID>
199

> <LogHalfLife>
2.9533

> <Tr_1_Tst_0>
0

$$$$
100049
  Mrv171c012241912102D          

 18 22  0  0  0  0            999 V2000
    2.8157    1.2777    0.0000 C   0  0  0  0  0  0  0  0  0  0  0  0
    3.4831    1.7626    0.0000 C   0  0  0  0  0  0  0  0  0  0  0  0
    3.2282    2.5473    0.0000 C   0  0  0  0  0  0  0  0  0  0  0  0
    3.7802    3.1603    0.0000 C   0  0  0  0  0  0  0  0  0  0  0  0
    4.5872    2.9888    0.0000 C   0  0  0  0  0  0  0  0  0  0  0  0
    4.8421    2.2042    0.0000 C   0  0  0  0  0  0  0  0  0  0  0  0
    4.2368    1.4271    0.0000 C   0  0  0  0  0  0  0  0  0  0  0  0
    4.3230    0.6066    0.0000 C   0  0  0  0  0  0  0  0  0  0  0  0
    3.6556    0.1217    0.0000 C   0  0  0  0  0  0  0  0  0  0  0  0
    2.9019    0.4572    0.0000 C   0  0  0  0  0  0  0  0  0  0  0  0
    1.9757    0.1217    0.0000 C   0  0  0  0  0  0  0  0  0  0  0  0
    1.3083    0.6066    0.0000 C   0  0  0  0  0  0  0  0  0  0  0  0
    1.3945    1.4271    0.0000 C   0  0  0  0  0  0  0  0  0  0  0  0
    2.1482    1.7626    0.0000 C   0  0  0  0  0  0  0  0  0  0  0  0
    2.4032    2.5473    0.0000 C   0  0  0  0  0  0  0  0  0  0  0  0
    1.8511    3.1603    0.0000 C   0  0  0  0  0  0  0  0  0  0  0  0
    1.0442    2.9888    0.0000 C   0  0  0  0  0  0  0  0  0  0  0  0
    0.7892    2.2042    0.0000 C   0  0  0  0  0  0  0  0  0  0  0  0
  2  1  2  0  0  0  0
  2  3  1  0  0  0  0
  3  4  2  0  0  0  0
  4  5  1  0  0  0  0
  5  6  2  0  0  0  0
  6  7  1  0  0  0  0
  7  2  1  0  0  0  0
  8  7  2  0  0  0  0
  9  8  1  0  0  0  0
 10  9  2  0  0  0  0
 10  1  1  0  0  0  0
 11 10  1  0  0  0  0
 12 11  2  0  0  0  0
 13 12  1  0  0  0  0
 13 14  1  0  0  0  0
  1 14  1  0  0  0  0
 14 15  2  0  0  0  0
  3 15  1  0  0  0  0
 15 16  1  0  0  0  0
 16 17  2  0  0  0  0
 17 18  1  0  0  0  0
 18 13  2  0  0  0  0
M  END
> <ChemID>
100049

> <CAS>
203-12-3

> <Original_SMILES>
c1cc2cccc3c2c2c4c3cccc4ccc21

> <preferred_name>
Benzo[ghi]fluoranthene

> <dsstox_substance_id>
DTXSID4075455

> <dsstox_compound_id>
DTXCID1036254

> <qc_level>
Public_High

> <Canonical_QSARr>
C1=CC=C2C=CC3=CC=C4C=CC=C5C4=C3C2=C51

> <InChI_Code_QSARr>
InChI=1S/C18H10/c1-3-11-7-9-13-10-8-12-4-2-6-15-14(5-1)16(11)18(13)17(12)15/h1-10H

> <InChI Key_QSARr>
YEIHPPOCKIHUQJ-UHFFFAOYSA-N

> <Salt_Solvent>


> <Salt_Solvent_ID>
0

> <MPID>
200

> <LogHalfLife>
2.5441

> <Tr_1_Tst_0>
1

$$$$
100050
  Mrv171c012241912102D          

 20 24  0  0  0  0            999 V2000
    3.0006   -1.4481    0.0000 C   0  0  0  0  0  0  0  0  0  0  0  0
    3.8242   -1.4010    0.0000 C   0  0  0  0  0  0  0  0  0  0  0  0
    4.2769   -2.0907    0.0000 C   0  0  0  0  0  0  0  0  0  0  0  0
    5.1005   -2.0436    0.0000 C   0  0  0  0  0  0  0  0  0  0  0  0
    5.4715   -1.3067    0.0000 C   0  0  0  0  0  0  0  0  0  0  0  0
    5.0189   -0.6170    0.0000 C   0  0  0  0  0  0  0  0  0  0  0  0
    4.1952   -0.6641    0.0000 C   0  0  0  0  0  0  0  0  0  0  0  0
    3.7425    0.0256    0.0000 C   0  0  0  0  0  0  0  0  0  0  0  0
    2.9189   -0.0215    0.0000 C   0  0  0  0  0  0  0  0  0  0  0  0
    2.5479   -0.7584    0.0000 C   0  0  0  0  0  0  0  0  0  0  0  0
    1.7520   -0.9758    0.0000 C   0  0  0  0  0  0  0  0  0  0  0  0
    1.7128   -1.7998    0.0000 C   0  0  0  0  0  0  0  0  0  0  0  0
    0.9796   -2.1779    0.0000 C   0  0  0  0  0  0  0  0  0  0  0  0
    0.2855   -1.7319    0.0000 C   0  0  0  0  0  0  0  0  0  0  0  0
    0.3247   -0.9079    0.0000 C   0  0  0  0  0  0  0  0  0  0  0  0
    1.0580   -0.5298    0.0000 C   0  0  0  0  0  0  0  0  0  0  0  0
    1.2072   -3.1363    0.0000 C   0  0  0  0  0  0  0  0  0  0  0  0
    1.9788   -3.4283    0.0000 C   0  0  0  0  0  0  0  0  0  0  0  0
    2.6174   -2.9060    0.0000 C   0  0  0  0  0  0  0  0  0  0  0  0
    2.4845   -2.0918    0.0000 C   0  0  0  0  0  0  0  0  0  0  0  0
  2  1  1  0  0  0  0
  2  3  1  0  0  0  0
  3  4  2  0  0  0  0
  4  5  1  0  0  0  0
  5  6  2  0  0  0  0
  6  7  1  0  0  0  0
  7  2  2  0  0  0  0
  8  7  1  0  0  0  0
  9  8  2  0  0  0  0
 10  9  1  0  0  0  0
 10  1  2  0  0  0  0
 11 10  1  0  0  0  0
 11 12  1  0  0  0  0
 12 13  1  0  0  0  0
 13 14  1  0  0  0  0
 14 15  2  0  0  0  0
 15 16  1  0  0  0  0
 16 11  2  0  0  0  0
 13 17  2  0  0  0  0
 17 18  1  0  0  0  0
 18 19  2  0  0  0  0
 19 20  1  0  0  0  0
  1 20  1  0  0  0  0
 20 12  2  0  0  0  0
M  END
> <ChemID>
100050

> <CAS>
205-82-3

> <Original_SMILES>
c1cc2c(c3ccccc31)-c1cccc3cccc-2c31

> <preferred_name>
Benzo(j)fluoranthene

> <dsstox_substance_id>
DTXSID8052691

> <dsstox_compound_id>
DTXCID8031289

> <qc_level>
DSSTox_Low

> <Canonical_QSARr>
C1=CC=CC2C3=C(C=CC=21)C1=CC=CC2=CC=CC3=C21

> <InChI_Code_QSARr>
InChI=1S/C20H12/c1-2-8-15-13(5-1)11-12-17-16-9-3-6-14-7-4-10-18(19(14)16)20(15)17/h1-12H

> <InChI Key_QSARr>
KHNYNFUTFKJLDD-UHFFFAOYSA-N

> <Salt_Solvent>


> <Salt_Solvent_ID>
0

> <MPID>
201

> <LogHalfLife>
2.4771

> <Tr_1_Tst_0>
1

$$$$
100051
  Mrv171c012241912102D          

 20 24  0  0  0  0            999 V2000
    2.8036   -0.7938    0.0000 C   0  0  0  0  0  0  0  0  0  0  0  0
    3.5135   -0.3735    0.0000 C   0  0  0  0  0  0  0  0  0  0  0  0
    3.5044    0.4515    0.0000 C   0  0  0  0  0  0  0  0  0  0  0  0
    2.7855    0.8561    0.0000 C   0  0  0  0  0  0  0  0  0  0  0  0
    2.0756    0.4357    0.0000 C   0  0  0  0  0  0  0  0  0  0  0  0
    2.0847   -0.3892    0.0000 C   0  0  0  0  0  0  0  0  0  0  0  0
    1.4777   -0.9480    0.0000 C   0  0  0  0  0  0  0  0  0  0  0  0
    0.6563   -0.8708    0.0000 C   0  0  0  0  0  0  0  0  0  0  0  0
    0.1788   -1.5435    0.0000 C   0  0  0  0  0  0  0  0  0  0  0  0
    0.5226   -2.2935    0.0000 C   0  0  0  0  0  0  0  0  0  0  0  0
    1.3440   -2.3707    0.0000 C   0  0  0  0  0  0  0  0  0  0  0  0
    1.8215   -1.6979    0.0000 C   0  0  0  0  0  0  0  0  0  0  0  0
    2.6410   -1.6026    0.0000 C   0  0  0  0  0  0  0  0  0  0  0  0
    3.2602   -2.1479    0.0000 C   0  0  0  0  0  0  0  0  0  0  0  0
    4.0419   -1.8843    0.0000 C   0  0  0  0  0  0  0  0  0  0  0  0
    4.6611   -2.4295    0.0000 C   0  0  0  0  0  0  0  0  0  0  0  0
    5.4428   -2.1660    0.0000 C   0  0  0  0  0  0  0  0  0  0  0  0
    5.6055   -1.3572    0.0000 C   0  0  0  0  0  0  0  0  0  0  0  0
    4.9863   -0.8119    0.0000 C   0  0  0  0  0  0  0  0  0  0  0  0
    4.2046   -1.0755    0.0000 C   0  0  0  0  0  0  0  0  0  0  0  0
  2  1  2  0  0  0  0
  2  3  1  0  0  0  0
  3  4  2  0  0  0  0
  4  5  1  0  0  0  0
  5  6  2  0  0  0  0
  6  1  1  0  0  0  0
  6  7  1  0  0  0  0
  8  7  1  0  0  0  0
  9  8  2  0  0  0  0
 10  9  1  0  0  0  0
 11 10  2  0  0  0  0
 12 11  1  0  0  0  0
  7 12  2  0  0  0  0
 12 13  1  0  0  0  0
  1 13  1  0  0  0  0
 13 14  2  0  0  0  0
 14 15  1  0  0  0  0
 16 15  1  0  0  0  0
 17 16  2  0  0  0  0
 18 17  1  0  0  0  0
 19 18  2  0  0  0  0
 20 19  1  0  0  0  0
 15 20  2  0  0  0  0
 20  2  1  0  0  0  0
M  END
> <ChemID>
100051

> <CAS>
205-99-2

> <Original_SMILES>
c1c2c3c(cccc3-c3ccccc3-2)c2ccccc21

> <preferred_name>
Benzo(b)fluoranthene

> <dsstox_substance_id>
DTXSID0023907

> <dsstox_compound_id>
DTXCID903907

> <qc_level>
DSSTox_Low

> <Canonical_QSARr>
C1=C2C3C(=CC=CC=3C3C=CC=CC=31)C1C=CC=CC=12

> <InChI_Code_QSARr>
InChI=1S/C20H12/c1-2-7-14-13(6-1)12-19-16-9-4-3-8-15(16)18-11-5-10-17(14)20(18)19/h1-12H

> <InChI Key_QSARr>
FTOVXSOBNPWTSH-UHFFFAOYSA-N

> <Salt_Solvent>


> <Salt_Solvent_ID>
0

> <MPID>
202

> <LogHalfLife>
2.4502

> <Tr_1_Tst_0>
1

$$$$
100052
  Mrv171c012241912102D          

 16 19  0  0  0  0            999 V2000
    1.7518   -1.4991    0.0000 C   0  0  0  0  0  0  0  0  0  0  0  0
    2.0068   -2.2837    0.0000 C   0  0  0  0  0  0  0  0  0  0  0  0
    2.8318   -2.2837    0.0000 C   0  0  0  0  0  0  0  0  0  0  0  0
    3.0867   -1.4991    0.0000 C   0  0  0  0  0  0  0  0  0  0  0  0
    2.4193   -1.0142    0.0000 C   0  0  0  0  0  0  0  0  0  0  0  0
    2.3330   -0.1937    0.0000 C   0  0  0  0  0  0  0  0  0  0  0  0
    1.5794    0.1419    0.0000 C   0  0  0  0  0  0  0  0  0  0  0  0
    0.9119   -0.3430    0.0000 C   0  0  0  0  0  0  0  0  0  0  0  0
    0.9449   -1.3276    0.0000 C   0  0  0  0  0  0  0  0  0  0  0  0
    0.3928   -1.9407    0.0000 C   0  0  0  0  0  0  0  0  0  0  0  0
    0.6478   -2.7253    0.0000 C   0  0  0  0  0  0  0  0  0  0  0  0
    1.4547   -2.8968    0.0000 C   0  0  0  0  0  0  0  0  0  0  0  0
    3.8937   -1.3276    0.0000 C   0  0  0  0  0  0  0  0  0  0  0  0
    4.4457   -1.9407    0.0000 C   0  0  0  0  0  0  0  0  0  0  0  0
    4.1908   -2.7253    0.0000 C   0  0  0  0  0  0  0  0  0  0  0  0
    3.3838   -2.8968    0.0000 C   0  0  0  0  0  0  0  0  0  0  0  0
  2  1  1  0  0  0  0
  2  3  1  0  0  0  0
  4  3  2  0  0  0  0
  4  5  1  0  0  0  0
  5  1  2  0  0  0  0
  5  6  1  0  0  0  0
  6  7  2  0  0  0  0
  7  8  1  0  0  0  0
  8  9  2  0  0  0  0
  1  9  1  0  0  0  0
  9 10  1  0  0  0  0
 10 11  2  0  0  0  0
 11 12  1  0  0  0  0
 12  2  2  0  0  0  0
 13  4  1  0  0  0  0
 14 13  2  0  0  0  0
 15 14  1  0  0  0  0
 16 15  2  0  0  0  0
  3 16  1  0  0  0  0
M  END
> <ChemID>
100052

> <CAS>
206-44-0

> <Original_SMILES>
c1ccc2c3c(cccc31)-c1ccccc1-2

> <preferred_name>
Fluoranthene

> <dsstox_substance_id>
DTXSID3024104

> <dsstox_compound_id>
DTXCID204104

> <qc_level>
DSSTox_Low

> <Canonical_QSARr>
C1=CC=C2C3=C(C=CC=C31)C1C=CC=CC=12

> <InChI_Code_QSARr>
InChI=1S/C16H10/c1-2-8-13-12(7-1)14-9-3-5-11-6-4-10-15(13)16(11)14/h1-10H

> <InChI Key_QSARr>
GVEPBJHOBDJJJI-UHFFFAOYSA-N

> <Salt_Solvent>


> <Salt_Solvent_ID>
0

> <MPID>
203

> <LogHalfLife>
2.1673

> <Tr_1_Tst_0>
0

$$$$
100053
  Mrv171c012241912102D          

 20 24  0  0  0  0            999 V2000
    2.2055   -1.1779    0.0000 C   0  0  0  0  0  0  0  0  0  0  0  0
    1.3841   -1.1007    0.0000 C   0  0  0  0  0  0  0  0  0  0  0  0
    0.9066   -1.7735    0.0000 C   0  0  0  0  0  0  0  0  0  0  0  0
    1.2504   -2.5234    0.0000 C   0  0  0  0  0  0  0  0  0  0  0  0
    2.0718   -2.6006    0.0000 C   0  0  0  0  0  0  0  0  0  0  0  0
    2.5493   -1.9278    0.0000 C   0  0  0  0  0  0  0  0  0  0  0  0
    3.3688   -1.8326    0.0000 C   0  0  0  0  0  0  0  0  0  0  0  0
    3.9880   -2.3778    0.0000 C   0  0  0  0  0  0  0  0  0  0  0  0
    4.7697   -2.1142    0.0000 C   0  0  0  0  0  0  0  0  0  0  0  0
    5.3889   -2.6595    0.0000 C   0  0  0  0  0  0  0  0  0  0  0  0
    6.1706   -2.3959    0.0000 C   0  0  0  0  0  0  0  0  0  0  0  0
    6.3332   -1.5871    0.0000 C   0  0  0  0  0  0  0  0  0  0  0  0
    5.7141   -1.0418    0.0000 C   0  0  0  0  0  0  0  0  0  0  0  0
    4.9323   -1.3054    0.0000 C   0  0  0  0  0  0  0  0  0  0  0  0
    4.3132   -0.7602    0.0000 C   0  0  0  0  0  0  0  0  0  0  0  0
    3.5314   -1.0237    0.0000 C   0  0  0  0  0  0  0  0  0  0  0  0
    2.8125   -0.6191    0.0000 C   0  0  0  0  0  0  0  0  0  0  0  0
    2.6320    0.1859    0.0000 C   0  0  0  0  0  0  0  0  0  0  0  0
    1.8447    0.4322    0.0000 C   0  0  0  0  0  0  0  0  0  0  0  0
    1.2377   -0.1266    0.0000 C   0  0  0  0  0  0  0  0  0  0  0  0
  2  1  1  0  0  0  0
  2  3  2  0  0  0  0
  3  4  1  0  0  0  0
  4  5  2  0  0  0  0
  5  6  1  0  0  0  0
  6  1  2  0  0  0  0
  6  7  1  0  0  0  0
  8  7  1  0  0  0  0
  9  8  2  0  0  0  0
  9 10  1  0  0  0  0
 10 11  2  0  0  0  0
 11 12  1  0  0  0  0
 12 13  2  0  0  0  0
 13 14  1  0  0  0  0
 14  9  1  0  0  0  0
 15 14  2  0  0  0  0
 16 15  1  0  0  0  0
  7 16  2  0  0  0  0
 16 17  1  0  0  0  0
  1 17  1  0  0  0  0
 17 18  2  0  0  0  0
 18 19  1  0  0  0  0
 19 20  2  0  0  0  0
 20  2  1  0  0  0  0
M  END
> <ChemID>
100053

> <CAS>
207-08-9

> <Original_SMILES>
c1c2-c3cccc4cccc(c43)-c2cc2ccccc21

> <preferred_name>
Benzo(k)fluoranthene

> <dsstox_substance_id>
DTXSID0023909

> <dsstox_compound_id>
DTXCID703909

> <qc_level>
DSSTox_Low

> <Canonical_QSARr>
C1C2C3C=CC=C4C=CC=C(C4=3)C=2C=C2C=CC=CC2=1

> <InChI_Code_QSARr>
InChI=1S/C20H12/c1-2-6-15-12-19-17-10-4-8-13-7-3-9-16(20(13)17)18(19)11-14(15)5-1/h1-12H

> <InChI Key_QSARr>
HAXBIWFMXWRORI-UHFFFAOYSA-N

> <Salt_Solvent>


> <Salt_Solvent_ID>
0

> <MPID>
204

> <LogHalfLife>
2.5453

> <Tr_1_Tst_0>
1

$$$$
100054
  Mrv171c012241912102D          

 12 14  0  0  0  0            999 V2000
    1.0219   -0.0469    0.0000 C   0  0  0  0  0  0  0  0  0  0  0  0
    0.7670   -0.8315    0.0000 C   0  0  0  0  0  0  0  0  0  0  0  0
    1.4344   -1.3165    0.0000 C   0  0  0  0  0  0  0  0  0  0  0  0
    1.3482   -2.1369    0.0000 C   0  0  0  0  0  0  0  0  0  0  0  0
    0.5945   -2.4725    0.0000 C   0  0  0  0  0  0  0  0  0  0  0  0
   -0.0729   -1.9876    0.0000 C   0  0  0  0  0  0  0  0  0  0  0  0
    0.0133   -1.1671    0.0000 C   0  0  0  0  0  0  0  0  0  0  0  0
    2.2743   -2.4725    0.0000 C   0  0  0  0  0  0  0  0  0  0  0  0
    2.9418   -1.9876    0.0000 C   0  0  0  0  0  0  0  0  0  0  0  0
    2.8555   -1.1671    0.0000 C   0  0  0  0  0  0  0  0  0  0  0  0
    2.1019   -0.8315    0.0000 C   0  0  0  0  0  0  0  0  0  0  0  0
    1.8469   -0.0469    0.0000 C   0  0  0  0  0  0  0  0  0  0  0  0
  2  1  1  0  0  0  0
  2  3  2  0  0  0  0
  3  4  1  0  0  0  0
  4  5  2  0  0  0  0
  5  6  1  0  0  0  0
  6  7  2  0  0  0  0
  7  2  1  0  0  0  0
  4  8  1  0  0  0  0
  8  9  2  0  0  0  0
  9 10  1  0  0  0  0
 10 11  2  0  0  0  0
 11  3  1  0  0  0  0
 12 11  1  0  0  0  0
  1 12  2  0  0  0  0
M  END
> <ChemID>
100054

> <CAS>
208-96-8

> <Original_SMILES>
c1ccc2C=Cc3cccc1c32

> <preferred_name>
Acenaphthylene

> <dsstox_substance_id>
DTXSID3023845

> <dsstox_compound_id>
DTXCID103845

> <qc_level>
DSSTox_Low

> <Canonical_QSARr>
C1=CC=C2C=CC=C3C=CC1=C32

> <InChI_Code_QSARr>
InChI=1S/C12H8/c1-3-9-4-2-6-11-8-7-10(5-1)12(9)11/h1-8H

> <InChI Key_QSARr>
HXGDTGSAIMULJN-UHFFFAOYSA-N

> <Salt_Solvent>


> <Salt_Solvent_ID>
0

> <MPID>
205

> <LogHalfLife>
1.5798

> <Tr_1_Tst_0>
1

$$$$
100055
  Mrv171c012241912102D          

 18 21  0  0  0  0            999 V2000
   -0.6039    0.6039    0.0000 C   0  0  0  0  0  0  0  0  0  0  0  0
   -1.0164    1.3184    0.0000 C   0  0  0  0  0  0  0  0  0  0  0  0
   -0.6039    2.0329    0.0000 C   0  0  0  0  0  0  0  0  0  0  0  0
    0.2211    2.0329    0.0000 C   0  0  0  0  0  0  0  0  0  0  0  0
    0.6336    1.3184    0.0000 C   0  0  0  0  0  0  0  0  0  0  0  0
    0.2211    0.6039    0.0000 C   0  0  0  0  0  0  0  0  0  0  0  0
    0.6336   -0.1105    0.0000 C   0  0  0  0  0  0  0  0  0  0  0  0
    1.4586   -0.1105    0.0000 C   0  0  0  0  0  0  0  0  0  0  0  0
    1.8711   -0.8250    0.0000 C   0  0  0  0  0  0  0  0  0  0  0  0
    1.4586   -1.5395    0.0000 C   0  0  0  0  0  0  0  0  0  0  0  0
    0.6336   -1.5395    0.0000 C   0  0  0  0  0  0  0  0  0  0  0  0
    0.2211   -0.8250    0.0000 C   0  0  0  0  0  0  0  0  0  0  0  0
   -0.6039   -0.8250    0.0000 C   0  0  0  0  0  0  0  0  0  0  0  0
   -1.0164   -1.5395    0.0000 C   0  0  0  0  0  0  0  0  0  0  0  0
   -1.8414   -1.5395    0.0000 C   0  0  0  0  0  0  0  0  0  0  0  0
   -2.2539   -0.8250    0.0000 C   0  0  0  0  0  0  0  0  0  0  0  0
   -1.8414   -0.1105    0.0000 C   0  0  0  0  0  0  0  0  0  0  0  0
   -1.0164   -0.1105    0.0000 C   0  0  0  0  0  0  0  0  0  0  0  0
  2  1  2  0  0  0  0
  3  2  1  0  0  0  0
  4  3  2  0  0  0  0
  5  4  1  0  0  0  0
  6  5  2  0  0  0  0
  6  1  1  0  0  0  0
  7  6  1  0  0  0  0
  7  8  2  0  0  0  0
  8  9  1  0  0  0  0
  9 10  2  0  0  0  0
 10 11  1  0  0  0  0
 11 12  2  0  0  0  0
 12  7  1  0  0  0  0
 13 12  1  0  0  0  0
 13 14  2  0  0  0  0
 14 15  1  0  0  0  0
 15 16  2  0  0  0  0
 16 17  1  0  0  0  0
 17 18  2  0  0  0  0
  1 18  1  0  0  0  0
 18 13  1  0  0  0  0
M  END
> <ChemID>
100055

> <CAS>
217-59-4

> <Original_SMILES>
c1cccc2c1c1ccccc1c1ccccc12

> <preferred_name>
Triphenylene

> <dsstox_substance_id>
DTXSID9059757

> <dsstox_compound_id>
DTXCID7036537

> <qc_level>
Public_High

> <Canonical_QSARr>
C1C=CC=C2C=1C1=CC=CC=C1C1=CC=CC=C12

> <InChI_Code_QSARr>
InChI=1S/C18H12/c1-2-8-14-13(7-1)15-9-3-4-11-17(15)18-12-6-5-10-16(14)18/h1-12H

> <InChI Key_QSARr>
SLGBZMMZGDRARJ-UHFFFAOYSA-N

> <Salt_Solvent>


> <Salt_Solvent_ID>
0

> <MPID>
206

> <LogHalfLife>
2.5775

> <Tr_1_Tst_0>
1

$$$$
100056
  Mrv171c012241912102D          

 18 21  0  0  0  0            999 V2000
    2.9488   -1.3848    0.0000 C   0  0  0  0  0  0  0  0  0  0  0  0
    3.7589   -1.2289    0.0000 C   0  0  0  0  0  0  0  0  0  0  0  0
    4.2990   -1.8525    0.0000 C   0  0  0  0  0  0  0  0  0  0  0  0
    5.1091   -1.6966    0.0000 C   0  0  0  0  0  0  0  0  0  0  0  0
    5.3792   -0.9171    0.0000 C   0  0  0  0  0  0  0  0  0  0  0  0
    4.8391   -0.2934    0.0000 C   0  0  0  0  0  0  0  0  0  0  0  0
    4.0290   -0.4493    0.0000 C   0  0  0  0  0  0  0  0  0  0  0  0
    3.4889    0.1743    0.0000 C   0  0  0  0  0  0  0  0  0  0  0  0
    2.6787    0.0184    0.0000 C   0  0  0  0  0  0  0  0  0  0  0  0
    2.4087   -0.7612    0.0000 C   0  0  0  0  0  0  0  0  0  0  0  0
    1.5985   -0.9171    0.0000 C   0  0  0  0  0  0  0  0  0  0  0  0
    1.3285   -1.6966    0.0000 C   0  0  0  0  0  0  0  0  0  0  0  0
    0.5184   -1.8525    0.0000 C   0  0  0  0  0  0  0  0  0  0  0  0
   -0.0217   -1.2289    0.0000 C   0  0  0  0  0  0  0  0  0  0  0  0
    0.2483   -0.4493    0.0000 C   0  0  0  0  0  0  0  0  0  0  0  0
    1.0585   -0.2934    0.0000 C   0  0  0  0  0  0  0  0  0  0  0  0
    1.8686   -2.3203    0.0000 C   0  0  0  0  0  0  0  0  0  0  0  0
    2.6787   -2.1643    0.0000 C   0  0  0  0  0  0  0  0  0  0  0  0
  2  1  1  0  0  0  0
  2  3  1  0  0  0  0
  3  4  2  0  0  0  0
  4  5  1  0  0  0  0
  5  6  2  0  0  0  0
  6  7  1  0  0  0  0
  7  2  2  0  0  0  0
  8  7  1  0  0  0  0
  9  8  2  0  0  0  0
 10  9  1  0  0  0  0
 10  1  2  0  0  0  0
 11 10  1  0  0  0  0
 11 12  2  0  0  0  0
 12 13  1  0  0  0  0
 13 14  2  0  0  0  0
 14 15  1  0  0  0  0
 15 16  2  0  0  0  0
 16 11  1  0  0  0  0
 17 12  1  0  0  0  0
 18 17  2  0  0  0  0
  1 18  1  0  0  0  0
M  END
> <ChemID>
100056

> <CAS>
218-01-9

> <Original_SMILES>
c1cc2c3ccccc3ccc2c2ccccc21

> <preferred_name>
Chrysene

> <dsstox_substance_id>
DTXSID0022432

> <dsstox_compound_id>
DTXCID702432

> <qc_level>
DSSTox_Low

> <Canonical_QSARr>
C1=CC2C3C=CC=CC=3C=CC=2C2C=CC=CC=21

> <InChI_Code_QSARr>
InChI=1S/C18H12/c1-3-7-15-13(5-1)9-11-18-16-8-4-2-6-14(16)10-12-17(15)18/h1-12H

> <InChI Key_QSARr>
WDECIBYCCFPHNR-UHFFFAOYSA-N

> <Salt_Solvent>


> <Salt_Solvent_ID>
0

> <MPID>
207

> <LogHalfLife>
2.5775

> <Tr_1_Tst_0>
0

$$$$
100057
  Mrv171c012241912102D          

 17 20  0  0  0  0            999 V2000
    2.6342    0.3182    0.0000 C   0  0  0  0  0  0  0  0  0  0  0  0
    3.4578    0.3654    0.0000 C   0  0  0  0  0  0  0  0  0  0  0  0
    3.9105   -0.3244    0.0000 C   0  0  0  0  0  0  0  0  0  0  0  0
    4.7342   -0.2772    0.0000 C   0  0  0  0  0  0  0  0  0  0  0  0
    5.1052    0.4597    0.0000 C   0  0  0  0  0  0  0  0  0  0  0  0
    4.6525    1.1494    0.0000 C   0  0  0  0  0  0  0  0  0  0  0  0
    3.8288    1.1022    0.0000 C   0  0  0  0  0  0  0  0  0  0  0  0
    3.3762    1.7920    0.0000 C   0  0  0  0  0  0  0  0  0  0  0  0
    2.5525    1.7448    0.0000 C   0  0  0  0  0  0  0  0  0  0  0  0
    2.1815    1.0080    0.0000 C   0  0  0  0  0  0  0  0  0  0  0  0
    1.3857    0.7906    0.0000 C   0  0  0  0  0  0  0  0  0  0  0  0
    1.3465   -0.0335    0.0000 C   0  0  0  0  0  0  0  0  0  0  0  0
    0.6132   -0.4116    0.0000 C   0  0  0  0  0  0  0  0  0  0  0  0
   -0.0808    0.0344    0.0000 C   0  0  0  0  0  0  0  0  0  0  0  0
   -0.0416    0.8585    0.0000 C   0  0  0  0  0  0  0  0  0  0  0  0
    0.6916    1.2366    0.0000 C   0  0  0  0  0  0  0  0  0  0  0  0
    2.1181   -0.3254    0.0000 C   0  0  0  0  0  0  0  0  0  0  0  0
  2  1  2  0  0  0  0
  2  3  1  0  0  0  0
  3  4  2  0  0  0  0
  4  5  1  0  0  0  0
  5  6  2  0  0  0  0
  6  7  1  0  0  0  0
  7  2  1  0  0  0  0
  8  7  2  0  0  0  0
  9  8  1  0  0  0  0
 10  9  2  0  0  0  0
 10  1  1  0  0  0  0
 11 10  1  0  0  0  0
 11 12  1  0  0  0  0
 12 13  2  0  0  0  0
 13 14  1  0  0  0  0
 14 15  2  0  0  0  0
 15 16  1  0  0  0  0
 16 11  2  0  0  0  0
 17 12  1  0  0  0  0
  1 17  1  0  0  0  0
M  END
> <ChemID>
100057

> <CAS>
238-84-6

> <Original_SMILES>
C1c2c3ccccc3ccc2-c2ccccc21

> <preferred_name>
11H-Benzo[a]fluorene

> <dsstox_substance_id>
DTXSID3075204

> <dsstox_compound_id>
DTXCID3036943

> <qc_level>
Public_High

> <Canonical_QSARr>
C1C2C(=CC=C3C=CC=CC3=2)C2=CC=CC=C21

> <InChI_Code_QSARr>
InChI=1S/C17H12/c1-3-7-14-12(5-1)9-10-16-15-8-4-2-6-13(15)11-17(14)16/h1-10H,11H2

> <InChI Key_QSARr>
HKMTVMBEALTRRR-UHFFFAOYSA-N

> <Salt_Solvent>


> <Salt_Solvent_ID>
0

> <MPID>
208

> <LogHalfLife>
2.1492

> <Tr_1_Tst_0>
1

$$$$
100058
  Mrv171c012241912102D          

 10 12  0  0  0  0            999 V2000
    0.6599   -1.5902    0.0000 C   0  0  0  0  0  0  0  0  0  0  0  0
   -0.0755   -1.9639    0.0000 C   0  0  0  0  0  0  0  0  0  0  0  0
    0.3739   -1.1736    0.0000 C   0  0  0  0  0  0  0  0  0  0  0  0
    0.3739   -0.4262    0.0000 C   0  0  0  0  0  0  0  0  0  0  0  0
    1.1094   -0.0525    0.0000 C   0  0  0  0  0  0  0  0  0  0  0  0
    1.8450   -0.4262    0.0000 C   0  0  0  0  0  0  0  0  0  0  0  0
    1.8450   -1.1736    0.0000 C   0  0  0  0  0  0  0  0  0  0  0  0
    1.1094   -1.5473    0.0000 C   0  0  0  0  0  0  0  0  0  0  0  0
    1.3955   -1.9639    0.0000 C   0  0  0  0  0  0  0  0  0  0  0  0
    0.6599   -0.8428    0.0000 C   0  0  0  0  0  0  0  0  0  0  0  0
  2  1  1  0  0  0  0
  3  2  1  0  0  0  0
 10  5  1  0  0  0  0
  4  5  1  0  0  0  0
  5  6  1  0  0  0  0
  9  1  1  0  0  0  0
  7  8  1  0  0  0  0
  8  3  1  0  0  0  0
  7  9  1  0  0  0  0
  6  7  1  0  0  0  0
  3  4  1  0  0  0  0
  1 10  1  0  0  0  0
M  END
> <ChemID>
100058

> <CAS>
281-23-2

> <Original_SMILES>
C1C2CC3CC1CC(C2)C3

> <preferred_name>
Adamantane

> <dsstox_substance_id>
DTXSID5022017

> <dsstox_compound_id>
DTXCID302017

> <qc_level>
DSSTox_Low

> <Canonical_QSARr>
C1C2CC3CC1CC(C2)C3

> <InChI_Code_QSARr>
InChI=1S/C10H16/c1-7-2-9-4-8(1)5-10(3-7)6-9/h7-10H,1-6H2

> <InChI Key_QSARr>
ORILYTVJVMAKLC-UHFFFAOYSA-N

> <Salt_Solvent>


> <Salt_Solvent_ID>
0

> <MPID>
209

> <LogHalfLife>
3.0

> <Tr_1_Tst_0>
1

$$$$
100059
  Mrv171c012241912102D          

  5  5  0  0  0  0            999 V2000
    1.3349   -0.3510    0.0000 C   0  0  0  0  0  0  0  0  0  0  0  0
    0.6675    0.1339    0.0000 C   0  0  0  0  0  0  0  0  0  0  0  0
    0.0000   -0.3510    0.0000 C   0  0  0  0  0  0  0  0  0  0  0  0
    0.2550   -1.1356    0.0000 C   0  0  0  0  0  0  0  0  0  0  0  0
    1.0800   -1.1356    0.0000 C   0  0  0  0  0  0  0  0  0  0  0  0
  2  1  1  0  0  0  0
  3  2  1  0  0  0  0
  4  3  1  0  0  0  0
  5  4  1  0  0  0  0
  1  5  1  0  0  0  0
M  END
> <ChemID>
100059

> <CAS>
287-92-3

> <Original_SMILES>
C1CCCC1

> <preferred_name>
Cyclopentane

> <dsstox_substance_id>
DTXSID6024886

> <dsstox_compound_id>
DTXCID804886

> <qc_level>
DSSTox_Low

> <Canonical_QSARr>
C1CCCC1

> <InChI_Code_QSARr>
InChI=1S/C5H10/c1-2-4-5-3-1/h1-5H2

> <InChI Key_QSARr>
RGSFGYAAUTVSQA-UHFFFAOYSA-N

> <Salt_Solvent>


> <Salt_Solvent_ID>
0

> <MPID>
210

> <LogHalfLife>
1.699

> <Tr_1_Tst_0>
1

$$$$
100060
  Mrv171c012241912102D          

  7  6  0  0  0  0            999 V2000
    1.0018   -0.0474    0.0000 C   0  0  0  0  0  0  0  0  0  0  0  0
    1.4143    0.6671    0.0000 C   0  0  0  0  0  0  0  0  0  0  0  0
    0.2873    0.3651    0.0000 C   0  0  0  0  0  0  0  0  0  0  0  0
    1.7163   -0.4599    0.0000 C   0  0  0  0  0  0  0  0  0  0  0  0
    0.5893   -0.7618    0.0000 C   0  0  0  0  0  0  0  0  0  0  0  0
    1.0018   -1.4763    0.0000 C   0  0  0  0  0  0  0  0  0  0  0  0
   -0.2357   -0.7618    0.0000 C   0  0  0  0  0  0  0  0  0  0  0  0
  1  2  1  0  0  0  0
  1  3  1  0  0  0  0
  1  4  1  0  0  0  0
  1  5  1  0  0  0  0
  5  6  1  0  0  0  0
  5  7  1  0  0  0  0
M  END
> <ChemID>
100060

> <CAS>
464-06-2

> <Original_SMILES>
CC(C)C(C)(C)C

> <preferred_name>
2,2,3-Trimethylbutane

> <dsstox_substance_id>
DTXSID7060047

> <dsstox_compound_id>
DTXCID3040489

> <qc_level>
Public_High

> <Canonical_QSARr>
CC(C)C(C)(C)C

> <InChI_Code_QSARr>
InChI=1S/C7H16/c1-6(2)7(3,4)5/h6H,1-5H3

> <InChI Key_QSARr>
ZISSAWUMDACLOM-UHFFFAOYSA-N

> <Salt_Solvent>


> <Salt_Solvent_ID>
0

> <MPID>
211

> <LogHalfLife>
0.7782

> <Tr_1_Tst_0>
0

$$$$
100061
  Mrv171c012241912102D          

 10 10  0  0  0  0            999 V2000
    1.2860    1.0725    0.0000 C   0  0  0  0  0  0  0  0  0  0  0  0
    2.0005    1.4850    0.0000 C   0  0  0  0  0  0  0  0  0  0  0  0
    0.5716    1.4850    0.0000 C   0  0  0  0  0  0  0  0  0  0  0  0
    0.5716    2.3100    0.0000 C   0  0  0  0  0  0  0  0  0  0  0  0
   -0.1429    1.0725    0.0000 C   0  0  0  0  0  0  0  0  0  0  0  0
   -0.1429    0.2475    0.0000 C   0  0  0  0  0  0  0  0  0  0  0  0
    0.5716   -0.1650    0.0000 C   0  0  0  0  0  0  0  0  0  0  0  0
    0.5716   -0.9900    0.0000 C   0  0  0  0  0  0  0  0  0  0  0  0
    1.2860    0.2475    0.0000 C   0  0  0  0  0  0  0  0  0  0  0  0
    2.0005   -0.1650    0.0000 C   0  0  0  0  0  0  0  0  0  0  0  0
  1  2  1  0  0  0  0
  3  1  1  0  0  0  0
  3  4  1  0  0  0  0
  5  3  2  0  0  0  0
  6  5  1  0  0  0  0
  7  6  2  0  0  0  0
  7  8  1  0  0  0  0
  9  7  1  0  0  0  0
  1  9  2  0  0  0  0
  9 10  1  0  0  0  0
M  END
> <ChemID>
100061

> <CAS>
488-23-3

> <Original_SMILES>
Cc1ccc(C)c(C)c1C

> <preferred_name>
1,2,3,4-Tetramethylbenzene

> <dsstox_substance_id>
DTXSID4060072

> <dsstox_compound_id>
DTXCID3040645

> <qc_level>
Public_High

> <Canonical_QSARr>
CC1=CC=C(C)C(C)=C1C

> <InChI_Code_QSARr>
InChI=1S/C10H14/c1-7-5-6-8(2)10(4)9(7)3/h5-6H,1-4H3

> <InChI Key_QSARr>
UOHMMEJUHBCKEE-UHFFFAOYSA-N

> <Salt_Solvent>


> <Salt_Solvent_ID>
0

> <MPID>
212

> <LogHalfLife>
0.6021

> <Tr_1_Tst_0>
1

$$$$
100062
  Mrv171c012241912102D          

  9 10  0  0  0  0            999 V2000
    1.1098   -0.4143    0.0000 C   0  0  0  0  0  0  0  0  0  0  0  0
    0.3252   -0.1594    0.0000 C   0  0  0  0  0  0  0  0  0  0  0  0
   -0.1597   -0.8268    0.0000 C   0  0  0  0  0  0  0  0  0  0  0  0
    0.3252   -1.4943    0.0000 C   0  0  0  0  0  0  0  0  0  0  0  0
    1.1098   -1.2393    0.0000 C   0  0  0  0  0  0  0  0  0  0  0  0
    1.8243   -1.6518    0.0000 C   0  0  0  0  0  0  0  0  0  0  0  0
    2.5388   -1.2393    0.0000 C   0  0  0  0  0  0  0  0  0  0  0  0
    2.5388   -0.4143    0.0000 C   0  0  0  0  0  0  0  0  0  0  0  0
    1.8243   -0.0018    0.0000 C   0  0  0  0  0  0  0  0  0  0  0  0
  2  1  1  0  0  0  0
  3  2  1  0  0  0  0
  4  3  1  0  0  0  0
  5  4  1  0  0  0  0
  5  1  1  0  0  0  0
  6  5  2  0  0  0  0
  7  6  1  0  0  0  0
  8  7  2  0  0  0  0
  9  8  1  0  0  0  0
  1  9  2  0  0  0  0
M  END
> <ChemID>
100062

> <CAS>
496-11-7

> <Original_SMILES>
C1CCc2ccccc21

> <preferred_name>
Indan

> <dsstox_substance_id>
DTXSID4052132

> <dsstox_compound_id>
DTXCID9030701

> <qc_level>
DSSTox_High

> <Canonical_QSARr>
C1CCC2=CC=CC=C21

> <InChI_Code_QSARr>
InChI=1S/C9H10/c1-2-5-9-7-3-6-8(9)4-1/h1-2,4-5H,3,6-7H2

> <InChI Key_QSARr>
PQNFLJBBNBOBRQ-UHFFFAOYSA-N

> <Salt_Solvent>


> <Salt_Solvent_ID>
0

> <MPID>
213

> <LogHalfLife>
0.7782

> <Tr_1_Tst_0>
1

$$$$
100063
  Mrv171c012241912102D          

  9  9  0  0  0  0            999 V2000
    2.1436   -1.2419    0.0000 C   0  0  0  0  0  0  0  0  0  0  0  0
    2.8581   -0.8294    0.0000 C   0  0  0  0  0  0  0  0  0  0  0  0
    1.4292   -0.8294    0.0000 C   0  0  0  0  0  0  0  0  0  0  0  0
    1.4292   -0.0044    0.0000 C   0  0  0  0  0  0  0  0  0  0  0  0
    0.7147   -1.2419    0.0000 C   0  0  0  0  0  0  0  0  0  0  0  0
    0.0002   -0.8294    0.0000 C   0  0  0  0  0  0  0  0  0  0  0  0
    0.7147   -2.0669    0.0000 C   0  0  0  0  0  0  0  0  0  0  0  0
    1.4292   -2.4794    0.0000 C   0  0  0  0  0  0  0  0  0  0  0  0
    2.1436   -2.0669    0.0000 C   0  0  0  0  0  0  0  0  0  0  0  0
  1  2  1  0  0  0  0
  3  1  1  0  0  0  0
  3  4  1  0  0  0  0
  5  3  2  0  0  0  0
  5  6  1  0  0  0  0
  7  5  1  0  0  0  0
  8  7  2  0  0  0  0
  9  8  1  0  0  0  0
  1  9  2  0  0  0  0
M  END
> <ChemID>
100063

> <CAS>
526-73-8

> <Original_SMILES>
Cc1c(C)cccc1C

> <preferred_name>
1,2,3-Trimethylbenzene

> <dsstox_substance_id>
DTXSID8047769

> <dsstox_compound_id>
DTXCID7027750

> <qc_level>
DSSTox_Low

> <Canonical_QSARr>
CC1C=CC=C(C)C=1C

> <InChI_Code_QSARr>
InChI=1S/C9H12/c1-7-5-4-6-8(2)9(7)3/h4-6H,1-3H3

> <InChI Key_QSARr>
FYGHSUNMUKGBRK-UHFFFAOYSA-N

> <Salt_Solvent>


> <Salt_Solvent_ID>
0

> <MPID>
214

> <LogHalfLife>
0.6021

> <Tr_1_Tst_0>
1

$$$$
100064
  Mrv171c012241912102D          

 10 10  0  0  0  0            999 V2000
    3.1010   -0.6863    0.0000 C   0  0  0  0  0  0  0  0  0  0  0  0
    2.3865   -1.0988    0.0000 C   0  0  0  0  0  0  0  0  0  0  0  0
    1.6721   -0.6863    0.0000 C   0  0  0  0  0  0  0  0  0  0  0  0
    1.6721    0.1387    0.0000 C   0  0  0  0  0  0  0  0  0  0  0  0
    0.9576   -1.0988    0.0000 C   0  0  0  0  0  0  0  0  0  0  0  0
    0.9576   -1.9238    0.0000 C   0  0  0  0  0  0  0  0  0  0  0  0
    0.2431   -2.3363    0.0000 C   0  0  0  0  0  0  0  0  0  0  0  0
    1.6721   -2.3363    0.0000 C   0  0  0  0  0  0  0  0  0  0  0  0
    2.3865   -1.9238    0.0000 C   0  0  0  0  0  0  0  0  0  0  0  0
    3.1010   -2.3363    0.0000 C   0  0  0  0  0  0  0  0  0  0  0  0
  1  2  1  0  0  0  0
  3  2  1  0  0  0  0
  3  4  1  0  0  0  0
  5  3  2  0  0  0  0
  6  5  1  0  0  0  0
  6  7  1  0  0  0  0
  8  6  2  0  0  0  0
  9  8  1  0  0  0  0
  2  9  2  0  0  0  0
  9 10  1  0  0  0  0
M  END
> <ChemID>
100064

> <CAS>
527-53-7

> <Original_SMILES>
Cc1cc(C)c(C)c(C)c1

> <preferred_name>
1,2,3,5-Tetramethylbenzene

> <dsstox_substance_id>
DTXSID6026119

> <dsstox_compound_id>
DTXCID706119

> <qc_level>
DSSTox_Low

> <Canonical_QSARr>
CC1C=C(C)C=C(C)C=1C

> <InChI_Code_QSARr>
InChI=1S/C10H14/c1-7-5-8(2)10(4)9(3)6-7/h5-6H,1-4H3

> <InChI Key_QSARr>
BFIMMTCNYPIMRN-UHFFFAOYSA-N

> <Salt_Solvent>


> <Salt_Solvent_ID>
0

> <MPID>
215

> <LogHalfLife>
0.4771

> <Tr_1_Tst_0>
0

$$$$
100065
  Mrv171c012241912102D          

 10 10  0  0  0  0            999 V2000
    0.7087   -2.0069    0.0000 C   0  0  0  0  0  0  0  0  0  0  0  0
    0.7087   -1.1819    0.0000 C   0  0  0  0  0  0  0  0  0  0  0  0
    1.4232   -0.7694    0.0000 C   0  0  0  0  0  0  0  0  0  0  0  0
    1.4232    0.0556    0.0000 C   0  0  0  0  0  0  0  0  0  0  0  0
    2.1377   -1.1819    0.0000 C   0  0  0  0  0  0  0  0  0  0  0  0
   -0.0058   -2.4194    0.0000 C   0  0  0  0  0  0  0  0  0  0  0  0
   -0.0058   -3.2444    0.0000 C   0  0  0  0  0  0  0  0  0  0  0  0
    0.7087   -3.6569    0.0000 C   0  0  0  0  0  0  0  0  0  0  0  0
    1.4232   -3.2444    0.0000 C   0  0  0  0  0  0  0  0  0  0  0  0
    1.4232   -2.4194    0.0000 C   0  0  0  0  0  0  0  0  0  0  0  0
  1  2  1  0  0  0  0
  2  3  1  0  0  0  0
  3  4  1  0  0  0  0
  3  5  1  0  0  0  0
  6  1  1  0  0  0  0
  7  6  2  0  0  0  0
  8  7  1  0  0  0  0
  9  8  2  0  0  0  0
 10  9  1  0  0  0  0
  1 10  2  0  0  0  0
M  END
> <ChemID>
100065

> <CAS>
538-93-2

> <Original_SMILES>
CC(C)Cc1ccccc1

> <preferred_name>
Isobutylbenzene

> <dsstox_substance_id>
DTXSID6027181

> <dsstox_compound_id>
DTXCID707181

> <qc_level>
DSSTox_Low

> <Canonical_QSARr>
CC(C)CC1C=CC=CC=1

> <InChI_Code_QSARr>
InChI=1S/C10H14/c1-9(2)8-10-6-4-3-5-7-10/h3-7,9H,8H2,1-2H3

> <InChI Key_QSARr>
KXUHSQYYJYAXGZ-UHFFFAOYSA-N

> <Salt_Solvent>


> <Salt_Solvent_ID>
0

> <MPID>
216

> <LogHalfLife>
1.0

> <Tr_1_Tst_0>
1

$$$$
100066
  Mrv171c012241912102D          

  8  7  0  0  0  0            999 V2000
    1.3964   -0.1388    0.0000 C   0  0  0  0  0  0  0  0  0  0  0  0
    0.9839    0.5757    0.0000 C   0  0  0  0  0  0  0  0  0  0  0  0
    0.6819   -0.5513    0.0000 C   0  0  0  0  0  0  0  0  0  0  0  0
    2.1109    0.2737    0.0000 C   0  0  0  0  0  0  0  0  0  0  0  0
    1.8089   -0.8532    0.0000 C   0  0  0  0  0  0  0  0  0  0  0  0
    1.3964   -1.5677    0.0000 C   0  0  0  0  0  0  0  0  0  0  0  0
    1.8089   -2.2822    0.0000 C   0  0  0  0  0  0  0  0  0  0  0  0
    0.5714   -1.5677    0.0000 C   0  0  0  0  0  0  0  0  0  0  0  0
  1  2  1  0  0  0  0
  1  3  1  0  0  0  0
  1  4  1  0  0  0  0
  1  5  1  0  0  0  0
  5  6  1  0  0  0  0
  6  7  1  0  0  0  0
  6  8  1  0  0  0  0
M  END
> <ChemID>
100066

> <CAS>
540-84-1

> <Original_SMILES>
CC(C)CC(C)(C)C

> <preferred_name>
2,2,4-Trimethylpentane

> <dsstox_substance_id>
DTXSID7024370

> <dsstox_compound_id>
DTXCID104370

> <qc_level>
DSSTox_Low

> <Canonical_QSARr>
CC(C)CC(C)(C)C

> <InChI_Code_QSARr>
InChI=1S/C8H18/c1-7(2)6-8(3,4)5/h7H,6H2,1-5H3

> <InChI Key_QSARr>
NHTMVDHEPJAVLT-UHFFFAOYSA-N

> <Salt_Solvent>


> <Salt_Solvent_ID>
0

> <MPID>
217

> <LogHalfLife>
1.6021

> <Tr_1_Tst_0>
1

$$$$
100067
  Mrv171c012241912102D          

 16 15  0  0  0  0            999 V2000
    0.0216   -0.4161    0.0000 C   0  0  0  0  0  0  0  0  0  0  0  0
    0.7360   -0.0036    0.0000 C   0  0  0  0  0  0  0  0  0  0  0  0
    1.4505   -0.4161    0.0000 C   0  0  0  0  0  0  0  0  0  0  0  0
    2.1650   -0.0036    0.0000 C   0  0  0  0  0  0  0  0  0  0  0  0
    2.8795   -0.4161    0.0000 C   0  0  0  0  0  0  0  0  0  0  0  0
    3.5939   -0.0036    0.0000 C   0  0  0  0  0  0  0  0  0  0  0  0
    4.3084   -0.4161    0.0000 C   0  0  0  0  0  0  0  0  0  0  0  0
    5.0229   -0.0036    0.0000 C   0  0  0  0  0  0  0  0  0  0  0  0
    5.7373   -0.4161    0.0000 C   0  0  0  0  0  0  0  0  0  0  0  0
    6.4518   -0.0036    0.0000 C   0  0  0  0  0  0  0  0  0  0  0  0
    7.1663   -0.4161    0.0000 C   0  0  0  0  0  0  0  0  0  0  0  0
    7.8808   -0.0036    0.0000 C   0  0  0  0  0  0  0  0  0  0  0  0
    8.5952   -0.4161    0.0000 C   0  0  0  0  0  0  0  0  0  0  0  0
    9.3097   -0.0036    0.0000 C   0  0  0  0  0  0  0  0  0  0  0  0
   10.0242   -0.4161    0.0000 C   0  0  0  0  0  0  0  0  0  0  0  0
   10.7386   -0.0036    0.0000 C   0  0  0  0  0  0  0  0  0  0  0  0
  1  2  1  0  0  0  0
  2  3  1  0  0  0  0
  3  4  1  0  0  0  0
  4  5  1  0  0  0  0
  5  6  1  0  0  0  0
  6  7  1  0  0  0  0
  7  8  1  0  0  0  0
  8  9  1  0  0  0  0
  9 10  1  0  0  0  0
 10 11  1  0  0  0  0
 11 12  1  0  0  0  0
 12 13  1  0  0  0  0
 13 14  1  0  0  0  0
 14 15  1  0  0  0  0
 15 16  1  0  0  0  0
M  END
> <ChemID>
100067

> <CAS>
544-76-3

> <Original_SMILES>
CCCCCCCCCCCCCCCC

> <preferred_name>
Hexadecane

> <dsstox_substance_id>
DTXSID0027195

> <dsstox_compound_id>
DTXCID607195

> <qc_level>
DSSTox_Low

> <Canonical_QSARr>
CCCCCCCCCCCCCCCC

> <InChI_Code_QSARr>
InChI=1S/C16H34/c1-3-5-7-9-11-13-15-16-14-12-10-8-6-4-2/h3-16H2,1-2H3

> <InChI Key_QSARr>
DCAYPVUWAIABOU-UHFFFAOYSA-N

> <Salt_Solvent>


> <Salt_Solvent_ID>
0

> <MPID>
218

> <LogHalfLife>
1.2304

> <Tr_1_Tst_0>
1

$$$$
100068
  Mrv171c012241912102D          

 32 31  0  0  0  0            999 V2000
   -0.3599   -0.4200    0.0000 C   0  0  0  0  0  0  0  0  0  0  0  0
    0.3545   -0.0075    0.0000 C   0  0  0  0  0  0  0  0  0  0  0  0
    1.0690   -0.4200    0.0000 C   0  0  0  0  0  0  0  0  0  0  0  0
    1.7835   -0.0075    0.0000 C   0  0  0  0  0  0  0  0  0  0  0  0
    2.4980   -0.4200    0.0000 C   0  0  0  0  0  0  0  0  0  0  0  0
    3.2124   -0.0075    0.0000 C   0  0  0  0  0  0  0  0  0  0  0  0
    3.9269   -0.4200    0.0000 C   0  0  0  0  0  0  0  0  0  0  0  0
    4.6414   -0.0075    0.0000 C   0  0  0  0  0  0  0  0  0  0  0  0
    5.3558   -0.4200    0.0000 C   0  0  0  0  0  0  0  0  0  0  0  0
    6.0703   -0.0075    0.0000 C   0  0  0  0  0  0  0  0  0  0  0  0
    6.7848   -0.4200    0.0000 C   0  0  0  0  0  0  0  0  0  0  0  0
    7.4993   -0.0075    0.0000 C   0  0  0  0  0  0  0  0  0  0  0  0
    8.2137   -0.4200    0.0000 C   0  0  0  0  0  0  0  0  0  0  0  0
    8.9282   -0.0075    0.0000 C   0  0  0  0  0  0  0  0  0  0  0  0
    9.6427   -0.4200    0.0000 C   0  0  0  0  0  0  0  0  0  0  0  0
   10.3571   -0.0075    0.0000 C   0  0  0  0  0  0  0  0  0  0  0  0
   11.0716   -0.4200    0.0000 C   0  0  0  0  0  0  0  0  0  0  0  0
   11.7861   -0.0075    0.0000 C   0  0  0  0  0  0  0  0  0  0  0  0
   12.5005   -0.4200    0.0000 C   0  0  0  0  0  0  0  0  0  0  0  0
   13.2150   -0.0075    0.0000 C   0  0  0  0  0  0  0  0  0  0  0  0
   13.9295   -0.4200    0.0000 C   0  0  0  0  0  0  0  0  0  0  0  0
   14.6440   -0.0075    0.0000 C   0  0  0  0  0  0  0  0  0  0  0  0
   15.3584   -0.4200    0.0000 C   0  0  0  0  0  0  0  0  0  0  0  0
   16.0729   -0.0075    0.0000 C   0  0  0  0  0  0  0  0  0  0  0  0
   16.7874   -0.4200    0.0000 C   0  0  0  0  0  0  0  0  0  0  0  0
   17.5018   -0.0075    0.0000 C   0  0  0  0  0  0  0  0  0  0  0  0
   18.2163   -0.4200    0.0000 C   0  0  0  0  0  0  0  0  0  0  0  0
   18.9308   -0.0075    0.0000 C   0  0  0  0  0  0  0  0  0  0  0  0
   19.6453   -0.4200    0.0000 C   0  0  0  0  0  0  0  0  0  0  0  0
   20.3597   -0.0075    0.0000 C   0  0  0  0  0  0  0  0  0  0  0  0
   21.0742   -0.4200    0.0000 C   0  0  0  0  0  0  0  0  0  0  0  0
   21.7887   -0.0075    0.0000 C   0  0  0  0  0  0  0  0  0  0  0  0
  1  2  1  0  0  0  0
  2  3  1  0  0  0  0
  3  4  1  0  0  0  0
  4  5  1  0  0  0  0
  5  6  1  0  0  0  0
  6  7  1  0  0  0  0
  7  8  1  0  0  0  0
  8  9  1  0  0  0  0
  9 10  1  0  0  0  0
 10 11  1  0  0  0  0
 11 12  1  0  0  0  0
 12 13  1  0  0  0  0
 13 14  1  0  0  0  0
 14 15  1  0  0  0  0
 15 16  1  0  0  0  0
 16 17  1  0  0  0  0
 17 18  1  0  0  0  0
 18 19  1  0  0  0  0
 19 20  1  0  0  0  0
 20 21  1  0  0  0  0
 21 22  1  0  0  0  0
 22 23  1  0  0  0  0
 23 24  1  0  0  0  0
 24 25  1  0  0  0  0
 25 26  1  0  0  0  0
 26 27  1  0  0  0  0
 27 28  1  0  0  0  0
 28 29  1  0  0  0  0
 29 30  1  0  0  0  0
 30 31  1  0  0  0  0
 31 32  1  0  0  0  0
M  END
> <ChemID>
100068

> <CAS>
544-85-4

> <Original_SMILES>
CCCCCCCCCCCCCCCCCCCCCCCCCCCCCCCC

> <preferred_name>
Dotriacontane

> <dsstox_substance_id>
DTXSID5052202

> <dsstox_compound_id>
DTXCID7030773

> <qc_level>
DSSTox_High

> <Canonical_QSARr>
CCCCCCCCCCCCCCCCCCCCCCCCCCCCCCCC

> <InChI_Code_QSARr>
InChI=1S/C32H66/c1-3-5-7-9-11-13-15-17-19-21-23-25-27-29-31-32-30-28-26-24-22-20-18-16-14-12-10-8-6-4-2/h3-32H2,1-2H3

> <InChI Key_QSARr>
QHMGJGNTMQDRQA-UHFFFAOYSA-N

> <Salt_Solvent>


> <Salt_Solvent_ID>
0

> <MPID>
219

> <LogHalfLife>
2.4533

> <Tr_1_Tst_0>
0

$$$$
100069
  Mrv171c012241912102D          

  8  7  0  0  0  0            999 V2000
    0.8904   -0.0654    0.0000 C   0  0  0  0  0  0  0  0  0  0  0  0
    0.1759    0.3471    0.0000 C   0  0  0  0  0  0  0  0  0  0  0  0
    1.6048   -0.4779    0.0000 C   0  0  0  0  0  0  0  0  0  0  0  0
    1.3029    0.6491    0.0000 C   0  0  0  0  0  0  0  0  0  0  0  0
    0.8904    1.3636    0.0000 C   0  0  0  0  0  0  0  0  0  0  0  0
    0.4779   -0.7798    0.0000 C   0  0  0  0  0  0  0  0  0  0  0  0
    0.8904   -1.4943    0.0000 C   0  0  0  0  0  0  0  0  0  0  0  0
   -0.3471   -0.7798    0.0000 C   0  0  0  0  0  0  0  0  0  0  0  0
  1  2  1  0  0  0  0
  1  3  1  0  0  0  0
  1  4  1  0  0  0  0
  4  5  1  0  0  0  0
  1  6  1  0  0  0  0
  6  7  1  0  0  0  0
  6  8  1  0  0  0  0
M  END
> <ChemID>
100069

> <CAS>
560-21-4

> <Original_SMILES>
CCC(C)(C)C(C)C

> <preferred_name>
Pentane, 2,3,3-trimethyl-

> <dsstox_substance_id>
DTXSID2060333

> <dsstox_compound_id>
DTXCID7042015

> <qc_level>
Public_High

> <Canonical_QSARr>
CCC(C)(C)C(C)C

> <InChI_Code_QSARr>
InChI=1S/C8H18/c1-6-8(4,5)7(2)3/h7H,6H2,1-5H3

> <InChI Key_QSARr>
OKVWYBALHQFVFP-UHFFFAOYSA-N

> <Salt_Solvent>


> <Salt_Solvent_ID>
0

> <MPID>
220

> <LogHalfLife>
1.7243

> <Tr_1_Tst_0>
1

$$$$
100070
  Mrv171c012241912102D          

  7  6  0  0  0  0            999 V2000
    1.9554   -2.0624    0.0000 C   0  0  0  0  0  0  0  0  0  0  0  0
    1.2410   -1.6499    0.0000 C   0  0  0  0  0  0  0  0  0  0  0  0
    1.2410   -0.8249    0.0000 C   0  0  0  0  0  0  0  0  0  0  0  0
    1.2410    0.0001    0.0000 C   0  0  0  0  0  0  0  0  0  0  0  0
    0.5265    0.4126    0.0000 C   0  0  0  0  0  0  0  0  0  0  0  0
    2.0660   -0.8249    0.0000 C   0  0  0  0  0  0  0  0  0  0  0  0
    0.4160   -0.8249    0.0000 C   0  0  0  0  0  0  0  0  0  0  0  0
  1  2  1  0  0  0  0
  2  3  1  0  0  0  0
  3  4  1  0  0  0  0
  4  5  1  0  0  0  0
  3  6  1  0  0  0  0
  3  7  1  0  0  0  0
M  END
> <ChemID>
100070

> <CAS>
562-49-2

> <Original_SMILES>
CC(C)(CC)CC

> <preferred_name>
Pentane,3,3-dimethyl-

> <dsstox_substance_id>
DTXSID0049319

> <dsstox_compound_id>
DTXCID9029275

> <qc_level>
DSSTox_Low

> <Canonical_QSARr>
CC(C)(CC)CC

> <InChI_Code_QSARr>
InChI=1S/C7H16/c1-5-7(3,4)6-2/h5-6H2,1-4H3

> <InChI Key_QSARr>
AEXMKKGTQYQZCS-UHFFFAOYSA-N

> <Salt_Solvent>


> <Salt_Solvent_ID>
0

> <MPID>
221

> <LogHalfLife>
0.9542

> <Tr_1_Tst_0>
1

$$$$
100071
  Mrv171c012241912102D          

  8  7  0  0  0  0            999 V2000
    1.1721   -0.3471    0.0000 C   0  0  0  0  0  0  0  0  0  0  0  0
    1.1721    0.4779    0.0000 C   0  0  0  0  0  0  0  0  0  0  0  0
    1.1721   -1.1721    0.0000 C   0  0  0  0  0  0  0  0  0  0  0  0
    1.9971   -0.3471    0.0000 C   0  0  0  0  0  0  0  0  0  0  0  0
    2.4096   -1.0616    0.0000 C   0  0  0  0  0  0  0  0  0  0  0  0
    0.3471   -0.3471    0.0000 C   0  0  0  0  0  0  0  0  0  0  0  0
   -0.0654    0.3673    0.0000 C   0  0  0  0  0  0  0  0  0  0  0  0
   -0.8904    0.3673    0.0000 C   0  0  0  0  0  0  0  0  0  0  0  0
  1  2  1  0  0  0  0
  1  3  1  0  0  0  0
  1  4  1  0  0  0  0
  4  5  1  0  0  0  0
  1  6  1  0  0  0  0
  6  7  1  0  0  0  0
  7  8  1  0  0  0  0
M  END
> <ChemID>
100071

> <CAS>
563-16-6

> <Original_SMILES>
CCC(C)(C)CCC

> <preferred_name>
3,3-Dimethylhexane

> <dsstox_substance_id>
DTXSID2073194

> <dsstox_compound_id>
DTXCID4042046

> <qc_level>
Public_High

> <Canonical_QSARr>
CCC(C)(C)CCC

> <InChI_Code_QSARr>
InChI=1S/C8H18/c1-5-7-8(3,4)6-2/h5-7H2,1-4H3

> <InChI Key_QSARr>
KUMXLFIBWFCMOJ-UHFFFAOYSA-N

> <Salt_Solvent>


> <Salt_Solvent_ID>
0

> <MPID>
222

> <LogHalfLife>
0.699

> <Tr_1_Tst_0>
1

$$$$
100072
  Mrv171c012241912102D          

  8  7  0  0  0  0            999 V2000
    3.4675   -0.1446    0.0000 C   0  0  0  0  0  0  0  0  0  0  0  0
    4.2925   -0.1446    0.0000 C   0  0  0  0  0  0  0  0  0  0  0  0
    3.4675    0.6804    0.0000 C   0  0  0  0  0  0  0  0  0  0  0  0
    3.4675   -0.9696    0.0000 C   0  0  0  0  0  0  0  0  0  0  0  0
    2.6425   -0.1446    0.0000 C   0  0  0  0  0  0  0  0  0  0  0  0
    2.2300   -0.8590    0.0000 C   0  0  0  0  0  0  0  0  0  0  0  0
    2.2300    0.5699    0.0000 C   0  0  0  0  0  0  0  0  0  0  0  0
    1.4050    0.5699    0.0000 C   0  0  0  0  0  0  0  0  0  0  0  0
  1  2  1  0  0  0  0
  1  3  1  0  0  0  0
  1  4  1  0  0  0  0
  1  5  1  0  0  0  0
  5  6  1  0  0  0  0
  5  7  1  0  0  0  0
  7  8  1  0  0  0  0
M  END
> <ChemID>
100072

> <CAS>
40824-48-4

> <Original_SMILES>
CC[C@H](C)C(C)(C)C

> <preferred_name>
PUBCHEM_22810197

> <dsstox_substance_id>
DTXSID80628408

> <dsstox_compound_id>
DTXCID60579161

> <qc_level>
Public_Low

> <Canonical_QSARr>
CCC(C)C(C)(C)C

> <InChI_Code_QSARr>
InChI=1S/C8H18/c1-6-7(2)8(3,4)5/h7H,6H2,1-5H3

> <InChI Key_QSARr>
XTDQDBVBDLYELW-UHFFFAOYSA-N

> <Salt_Solvent>


> <Salt_Solvent_ID>
0

> <MPID>
223

> <LogHalfLife>
0.8451

> <Tr_1_Tst_0>
0

$$$$
100073
  Mrv171c012241912102D          

  7  6  0  0  0  0            999 V2000
    2.3844   -1.8144    0.0000 C   0  0  0  0  0  0  0  0  0  0  0  0
    1.9719   -1.1000    0.0000 C   0  0  0  0  0  0  0  0  0  0  0  0
    2.3844   -0.3855    0.0000 C   0  0  0  0  0  0  0  0  0  0  0  0
    1.1469   -1.1000    0.0000 C   0  0  0  0  0  0  0  0  0  0  0  0
    0.7344   -1.8144    0.0000 C   0  0  0  0  0  0  0  0  0  0  0  0
    0.7344   -0.3855    0.0000 C   0  0  0  0  0  0  0  0  0  0  0  0
   -0.0906   -0.3855    0.0000 C   0  0  0  0  0  0  0  0  0  0  0  0
  1  2  1  0  0  0  0
  2  3  1  0  0  0  0
  2  4  1  0  0  0  0
  4  5  1  0  0  0  0
  4  6  1  0  0  0  0
  6  7  1  0  0  0  0
M  END
> <ChemID>
100073

> <CAS>
565-59-3

> <Original_SMILES>
CC(C)C(C)CC

> <preferred_name>


> <dsstox_substance_id>
DTXSID20862203

> <dsstox_compound_id>
DTXCID90811001

> <qc_level>


> <Canonical_QSARr>
CC(C)C(C)CC

> <InChI_Code_QSARr>
InChI=1S/C7H16/c1-5-7(4)6(2)3/h6-7H,5H2,1-4H3

> <InChI Key_QSARr>
WGECXQBGLLYSFP-UHFFFAOYSA-N

> <Salt_Solvent>


> <Salt_Solvent_ID>
0

> <MPID>
224

> <LogHalfLife>
0.8451

> <Tr_1_Tst_0>
1

$$$$
100074
  Mrv171c012241912102D          

  8  7  0  0  0  0            999 V2000
    1.4438    0.0000    0.0000 C   0  0  0  0  0  0  0  0  0  0  0  0
    2.2688    0.0000    0.0000 C   0  0  0  0  0  0  0  0  0  0  0  0
    1.0312    0.7145    0.0000 C   0  0  0  0  0  0  0  0  0  0  0  0
    1.4437    1.4289    0.0000 C   0  0  0  0  0  0  0  0  0  0  0  0
    0.2062    0.7145    0.0000 C   0  0  0  0  0  0  0  0  0  0  0  0
    1.0313   -0.7145    0.0000 C   0  0  0  0  0  0  0  0  0  0  0  0
    1.4438   -1.4289    0.0000 C   0  0  0  0  0  0  0  0  0  0  0  0
    0.2063   -0.7145    0.0000 C   0  0  0  0  0  0  0  0  0  0  0  0
  1  2  1  0  0  0  0
  1  3  1  0  0  0  0
  3  4  1  0  0  0  0
  3  5  1  0  0  0  0
  1  6  1  0  0  0  0
  6  7  1  0  0  0  0
  6  8  1  0  0  0  0
M  END
> <ChemID>
100074

> <CAS>
565-75-3

> <Original_SMILES>
CC(C(C)C)C(C)C

> <preferred_name>
2,3,4-Trimethylpentane

> <dsstox_substance_id>
DTXSID6060343

> <dsstox_compound_id>
DTXCID1042079

> <qc_level>
Public_High

> <Canonical_QSARr>
CC(C(C)C)C(C)C

> <InChI_Code_QSARr>
InChI=1S/C8H18/c1-6(2)8(5)7(3)4/h6-8H,1-5H3

> <InChI Key_QSARr>
RLPGDEORIPLBNF-UHFFFAOYSA-N

> <Salt_Solvent>


> <Salt_Solvent_ID>
0

> <MPID>
225

> <LogHalfLife>
1.1761

> <Tr_1_Tst_0>
1

$$$$
100075
  Mrv171c012241912102D          

 12 13  0  0  0  0            999 V2000
    1.6651   -1.2397    0.0000 C   0  0  0  0  0  0  0  0  0  0  0  0
    0.9507   -0.8272    0.0000 C   0  0  0  0  0  0  0  0  0  0  0  0
    0.9507   -0.0022    0.0000 C   0  0  0  0  0  0  0  0  0  0  0  0
    0.2362   -1.2397    0.0000 C   0  0  0  0  0  0  0  0  0  0  0  0
    0.2362   -2.0647    0.0000 C   0  0  0  0  0  0  0  0  0  0  0  0
    0.9507   -2.4772    0.0000 C   0  0  0  0  0  0  0  0  0  0  0  0
    0.9507   -3.3022    0.0000 C   0  0  0  0  0  0  0  0  0  0  0  0
    1.6651   -2.0647    0.0000 C   0  0  0  0  0  0  0  0  0  0  0  0
    2.3796   -2.4772    0.0000 C   0  0  0  0  0  0  0  0  0  0  0  0
    3.0941   -2.0647    0.0000 C   0  0  0  0  0  0  0  0  0  0  0  0
    3.0941   -1.2397    0.0000 C   0  0  0  0  0  0  0  0  0  0  0  0
    2.3796   -0.8272    0.0000 C   0  0  0  0  0  0  0  0  0  0  0  0
  2  1  1  0  0  0  0
  2  3  1  0  0  0  0
  4  2  2  0  0  0  0
  5  4  1  0  0  0  0
  6  5  2  0  0  0  0
  6  7  1  0  0  0  0
  8  6  1  0  0  0  0
  8  1  2  0  0  0  0
  9  8  1  0  0  0  0
 10  9  2  0  0  0  0
 11 10  1  0  0  0  0
 12 11  2  0  0  0  0
  1 12  1  0  0  0  0
M  END
> <ChemID>
100075

> <CAS>
571-58-4

> <Original_SMILES>
Cc1ccc(C)c2ccccc12

> <preferred_name>
1,4-Dimethylnaphthalene

> <dsstox_substance_id>
DTXSID8035423

> <dsstox_compound_id>
DTXCID6015423

> <qc_level>
DSSTox_Low

> <Canonical_QSARr>
CC1=CC=C(C)C2C=CC=CC1=2

> <InChI_Code_QSARr>
InChI=1S/C12H12/c1-9-7-8-10(2)12-6-4-3-5-11(9)12/h3-8H,1-2H3

> <InChI Key_QSARr>
APQSQLNWAIULLK-UHFFFAOYSA-N

> <Salt_Solvent>


> <Salt_Solvent_ID>
0

> <MPID>
226

> <LogHalfLife>
1.1761

> <Tr_1_Tst_0>
1

$$$$
100076
  Mrv171c012241912102D          

 12 13  0  0  0  0            999 V2000
   -0.0000   -0.4125    0.0000 C   0  0  0  0  0  0  0  0  0  0  0  0
   -0.7145    0.0000    0.0000 C   0  0  0  0  0  0  0  0  0  0  0  0
   -1.4289   -0.4125    0.0000 C   0  0  0  0  0  0  0  0  0  0  0  0
   -1.4289   -1.2375    0.0000 C   0  0  0  0  0  0  0  0  0  0  0  0
   -0.7145   -1.6500    0.0000 C   0  0  0  0  0  0  0  0  0  0  0  0
   -0.0000   -1.2375    0.0000 C   0  0  0  0  0  0  0  0  0  0  0  0
    0.7145   -1.6500    0.0000 C   0  0  0  0  0  0  0  0  0  0  0  0
    1.4289   -1.2375    0.0000 C   0  0  0  0  0  0  0  0  0  0  0  0
    2.1434   -1.6500    0.0000 C   0  0  0  0  0  0  0  0  0  0  0  0
    1.4289   -0.4125    0.0000 C   0  0  0  0  0  0  0  0  0  0  0  0
    2.1434    0.0000    0.0000 C   0  0  0  0  0  0  0  0  0  0  0  0
    0.7145    0.0000    0.0000 C   0  0  0  0  0  0  0  0  0  0  0  0
  2  1  1  0  0  0  0
  3  2  2  0  0  0  0
  4  3  1  0  0  0  0
  5  4  2  0  0  0  0
  6  5  1  0  0  0  0
  6  1  1  0  0  0  0
  7  6  2  0  0  0  0
  8  7  1  0  0  0  0
  8  9  1  0  0  0  0
 10  8  2  0  0  0  0
 10 11  1  0  0  0  0
 12 10  1  0  0  0  0
  1 12  2  0  0  0  0
M  END
> <ChemID>
100076

> <CAS>
581-40-8

> <Original_SMILES>
Cc1cc2ccccc2cc1C

> <preferred_name>
2,3-Dimethylnaphthalene

> <dsstox_substance_id>
DTXSID2060383

> <dsstox_compound_id>
DTXCID6042317

> <qc_level>
Public_High

> <Canonical_QSARr>
CC1C=C2C=CC=CC2=CC=1C

> <InChI_Code_QSARr>
InChI=1S/C12H12/c1-9-7-11-5-3-4-6-12(11)8-10(9)2/h3-8H,1-2H3

> <InChI Key_QSARr>
WWGUMAYGTYQSGA-UHFFFAOYSA-N

> <Salt_Solvent>


> <Salt_Solvent_ID>
0

> <MPID>
227

> <LogHalfLife>
1.1761

> <Tr_1_Tst_0>
0

$$$$
100077
  Mrv171c012241912102D          

  8  7  0  0  0  0            999 V2000
    0.0007   -1.2470    0.0000 C   0  0  0  0  0  0  0  0  0  0  0  0
    0.7152   -0.8345    0.0000 C   0  0  0  0  0  0  0  0  0  0  0  0
    1.4297   -1.2470    0.0000 C   0  0  0  0  0  0  0  0  0  0  0  0
    1.4297   -2.0720    0.0000 C   0  0  0  0  0  0  0  0  0  0  0  0
    2.1441   -0.8345    0.0000 C   0  0  0  0  0  0  0  0  0  0  0  0
    2.1441   -0.0095    0.0000 C   0  0  0  0  0  0  0  0  0  0  0  0
    2.8586   -1.2470    0.0000 C   0  0  0  0  0  0  0  0  0  0  0  0
    3.5731   -0.8345    0.0000 C   0  0  0  0  0  0  0  0  0  0  0  0
  1  2  1  0  0  0  0
  2  3  1  0  0  0  0
  3  4  1  0  0  0  0
  3  5  1  0  0  0  0
  5  6  1  0  0  0  0
  5  7  1  0  0  0  0
  7  8  1  0  0  0  0
M  END
> <ChemID>
100077

> <CAS>
583-48-2

> <Original_SMILES>
CC(CC)C(C)CC

> <preferred_name>


> <dsstox_substance_id>
DTXSID30862234

> <dsstox_compound_id>
DTXCID80811030

> <qc_level>


> <Canonical_QSARr>
CC(CC)C(C)CC

> <InChI_Code_QSARr>
InChI=1S/C8H18/c1-5-7(3)8(4)6-2/h7-8H,5-6H2,1-4H3

> <InChI Key_QSARr>
RNTWWGNZUXGTAX-UHFFFAOYSA-N

> <Salt_Solvent>


> <Salt_Solvent_ID>
0

> <MPID>
228

> <LogHalfLife>
0.4771

> <Tr_1_Tst_0>
1

$$$$
100078
  Mrv171c012241912102D          

  8  8  0  0  0  0            999 V2000
   -0.6390   -0.0755    0.0000 C   0  0  0  0  0  0  0  0  0  0  0  0
   -1.3534    0.3370    0.0000 C   0  0  0  0  0  0  0  0  0  0  0  0
   -0.6390   -0.9005    0.0000 C   0  0  0  0  0  0  0  0  0  0  0  0
    0.0755   -1.3130    0.0000 C   0  0  0  0  0  0  0  0  0  0  0  0
    0.7900   -0.9005    0.0000 C   0  0  0  0  0  0  0  0  0  0  0  0
    0.7900   -0.0755    0.0000 C   0  0  0  0  0  0  0  0  0  0  0  0
    0.0755    0.3370    0.0000 C   0  0  0  0  0  0  0  0  0  0  0  0
    0.0755    1.1620    0.0000 C   0  0  0  0  0  0  0  0  0  0  0  0
  1  2  1  0  0  0  0
  3  1  1  0  0  0  0
  4  3  1  0  0  0  0
  5  4  1  0  0  0  0
  6  5  1  0  0  0  0
  7  6  1  0  0  0  0
  1  7  1  0  0  0  0
  7  8  1  0  0  0  0
M  END
> <ChemID>
100078

> <CAS>
583-57-3

> <Original_SMILES>
CC1CCCCC1C

> <preferred_name>
1,2-Dimethylcyclohexane

> <dsstox_substance_id>
DTXSID50858730

> <dsstox_compound_id>
DTXCID50809464

> <qc_level>
DSSTox_Low

> <Canonical_QSARr>
CC1CCCCC1C

> <InChI_Code_QSARr>
InChI=1S/C8H16/c1-7-5-3-4-6-8(7)2/h7-8H,3-6H2,1-2H3

> <InChI Key_QSARr>
KVZJLSYJROEPSQ-UHFFFAOYSA-N

> <Salt_Solvent>


> <Salt_Solvent_ID>
0

> <MPID>
229

> <LogHalfLife>
1.2553

> <Tr_1_Tst_0>
1

$$$$
100079
  Mrv171c012241912102D          

  8  7  0  0  0  0            999 V2000
    0.0014   -1.2470    0.0000 C   0  0  0  0  0  0  0  0  0  0  0  0
    0.7159   -0.8345    0.0000 C   0  0  0  0  0  0  0  0  0  0  0  0
    0.7159   -0.0095    0.0000 C   0  0  0  0  0  0  0  0  0  0  0  0
    1.4303   -1.2470    0.0000 C   0  0  0  0  0  0  0  0  0  0  0  0
    1.4303   -2.0720    0.0000 C   0  0  0  0  0  0  0  0  0  0  0  0
    2.1448   -0.8345    0.0000 C   0  0  0  0  0  0  0  0  0  0  0  0
    2.8593   -1.2470    0.0000 C   0  0  0  0  0  0  0  0  0  0  0  0
    3.5738   -0.8345    0.0000 C   0  0  0  0  0  0  0  0  0  0  0  0
  1  2  1  0  0  0  0
  2  3  1  0  0  0  0
  2  4  1  0  0  0  0
  4  5  1  0  0  0  0
  4  6  1  0  0  0  0
  6  7  1  0  0  0  0
  7  8  1  0  0  0  0
M  END
> <ChemID>
100079

> <CAS>
584-94-1

> <Original_SMILES>
CC(C)C(C)CCC

> <preferred_name>


> <dsstox_substance_id>
DTXSID40862240

> <dsstox_compound_id>
DTXCID80811035

> <qc_level>


> <Canonical_QSARr>
CC(C)C(C)CCC

> <InChI_Code_QSARr>
InChI=1S/C8H18/c1-5-6-8(4)7(2)3/h7-8H,5-6H2,1-4H3

> <InChI Key_QSARr>
JXPOLSKBTUYKJB-UHFFFAOYSA-N

> <Salt_Solvent>


> <Salt_Solvent_ID>
0

> <MPID>
230

> <LogHalfLife>
1.415

> <Tr_1_Tst_0>
0

$$$$
100080
  Mrv171c012241912102D          

  7  6  0  0  0  0            999 V2000
    0.0061   -0.4100    0.0000 C   0  0  0  0  0  0  0  0  0  0  0  0
    0.7206    0.0025    0.0000 C   0  0  0  0  0  0  0  0  0  0  0  0
    1.4351   -0.4100    0.0000 C   0  0  0  0  0  0  0  0  0  0  0  0
    1.4351   -1.2350    0.0000 C   0  0  0  0  0  0  0  0  0  0  0  0
    2.1495    0.0025    0.0000 C   0  0  0  0  0  0  0  0  0  0  0  0
    2.8640   -0.4100    0.0000 C   0  0  0  0  0  0  0  0  0  0  0  0
    3.5785    0.0025    0.0000 C   0  0  0  0  0  0  0  0  0  0  0  0
  1  2  1  0  0  0  0
  2  3  1  0  0  0  0
  3  4  1  0  0  0  0
  3  5  1  0  0  0  0
  5  6  1  0  0  0  0
  6  7  1  0  0  0  0
M  END
> <ChemID>
100080

> <CAS>
589-34-4

> <Original_SMILES>
CCC(C)CCC

> <preferred_name>
3-Methylhexane

> <dsstox_substance_id>
DTXSID3044334

> <dsstox_compound_id>
DTXCID308974

> <qc_level>
DSSTox_Low

> <Canonical_QSARr>
CCC(C)CCC

> <InChI_Code_QSARr>
InChI=1S/C7H16/c1-4-6-7(3)5-2/h7H,4-6H2,1-3H3

> <InChI Key_QSARr>
VLJXXKKOSFGPHI-UHFFFAOYSA-N

> <Salt_Solvent>


> <Salt_Solvent_ID>
0

> <MPID>
231

> <LogHalfLife>
0.9542

> <Tr_1_Tst_0>
1

$$$$
100081
  Mrv171c012241912102D          

  8  7  0  0  0  0            999 V2000
    0.7244    0.0030    0.0000 C   0  0  0  0  0  0  0  0  0  0  0  0
    0.0100   -0.4095    0.0000 C   0  0  0  0  0  0  0  0  0  0  0  0
    1.4389   -0.4095    0.0000 C   0  0  0  0  0  0  0  0  0  0  0  0
    1.4389   -1.2345    0.0000 C   0  0  0  0  0  0  0  0  0  0  0  0
    2.1534    0.0030    0.0000 C   0  0  0  0  0  0  0  0  0  0  0  0
    2.8679   -0.4095    0.0000 C   0  0  0  0  0  0  0  0  0  0  0  0
    3.5823    0.0030    0.0000 C   0  0  0  0  0  0  0  0  0  0  0  0
    2.8679   -1.2345    0.0000 C   0  0  0  0  0  0  0  0  0  0  0  0
  1  2  1  0  0  0  0
  1  3  1  0  0  0  0
  3  4  1  0  0  0  0
  3  5  1  0  0  0  0
  5  6  1  0  0  0  0
  6  7  1  0  0  0  0
  6  8  1  0  0  0  0
M  END
> <ChemID>
100081

> <CAS>
589-43-5

> <Original_SMILES>
CC(C)CC(C)CC

> <preferred_name>
Alkanes, C7-10-iso-

> <dsstox_substance_id>
DTXSID60873237

> <dsstox_compound_id>
DTXCID509821

> <qc_level>
DSSTox_Low

> <Canonical_QSARr>
CC(C)CC(C)CC

> <InChI_Code_QSARr>
InChI=1S/C8H18/c1-5-8(4)6-7(2)3/h7-8H,5-6H2,1-4H3

> <InChI Key_QSARr>
HDGQICNBXPAKLR-UHFFFAOYSA-N

> <Salt_Solvent>


> <Salt_Solvent_ID>
0

> <MPID>
232

> <LogHalfLife>
0.8451

> <Tr_1_Tst_0>
1

$$$$
100082
  Mrv171c012241912102D          

  8  7  0  0  0  0            999 V2000
    3.9039    1.4289    0.0000 C   0  0  0  0  0  0  0  0  0  0  0  0
    3.9039    0.6039    0.0000 C   0  0  0  0  0  0  0  0  0  0  0  0
    3.1894    1.8414    0.0000 C   0  0  0  0  0  0  0  0  0  0  0  0
    2.4749    1.4289    0.0000 C   0  0  0  0  0  0  0  0  0  0  0  0
    1.7605    1.8414    0.0000 C   0  0  0  0  0  0  0  0  0  0  0  0
    4.6184    1.8414    0.0000 C   0  0  0  0  0  0  0  0  0  0  0  0
    5.3328    1.4289    0.0000 C   0  0  0  0  0  0  0  0  0  0  0  0
    6.0473    1.8414    0.0000 C   0  0  0  0  0  0  0  0  0  0  0  0
  1  2  1  0  0  0  0
  1  3  1  0  0  0  0
  3  4  1  0  0  0  0
  4  5  1  0  0  0  0
  1  6  1  0  0  0  0
  6  7  1  0  0  0  0
  7  8  1  0  0  0  0
M  END
> <ChemID>
100082

> <CAS>
589-53-7

> <Original_SMILES>
CC(CCC)CCC

> <preferred_name>
4-Methylheptane

> <dsstox_substance_id>
DTXSID6060428

> <dsstox_compound_id>
DTXCID1042491

> <qc_level>
Public_High

> <Canonical_QSARr>
CC(CCC)CCC

> <InChI_Code_QSARr>
InChI=1S/C8H18/c1-4-6-8(3)7-5-2/h8H,4-7H2,1-3H3

> <InChI Key_QSARr>
CHBAWFGIXDBEBT-UHFFFAOYSA-N

> <Salt_Solvent>


> <Salt_Solvent_ID>
0

> <MPID>
233

> <LogHalfLife>
0.6021

> <Tr_1_Tst_0>
1

$$$$
100083
  Mrv171c012241912102D          

  8  7  0  0  0  0            999 V2000
    0.0031   -0.8155    0.0000 C   0  0  0  0  0  0  0  0  0  0  0  0
    0.7175   -1.2280    0.0000 C   0  0  0  0  0  0  0  0  0  0  0  0
    1.4320   -0.8155    0.0000 C   0  0  0  0  0  0  0  0  0  0  0  0
    1.4320    0.0095    0.0000 C   0  0  0  0  0  0  0  0  0  0  0  0
    2.1465   -1.2280    0.0000 C   0  0  0  0  0  0  0  0  0  0  0  0
    2.8609   -0.8155    0.0000 C   0  0  0  0  0  0  0  0  0  0  0  0
    3.5754   -1.2280    0.0000 C   0  0  0  0  0  0  0  0  0  0  0  0
    4.2899   -0.8155    0.0000 C   0  0  0  0  0  0  0  0  0  0  0  0
  1  2  1  0  0  0  0
  2  3  1  0  0  0  0
  3  4  1  0  0  0  0
  3  5  1  0  0  0  0
  5  6  1  0  0  0  0
  6  7  1  0  0  0  0
  7  8  1  0  0  0  0
M  END
> <ChemID>
100083

> <CAS>
589-81-1

> <Original_SMILES>
CCCCC(C)CC

> <preferred_name>


> <dsstox_substance_id>
DTXSID90862250

> <dsstox_compound_id>
DTXCID70811044

> <qc_level>


> <Canonical_QSARr>
CCCCC(C)CC

> <InChI_Code_QSARr>
InChI=1S/C8H18/c1-4-6-7-8(3)5-2/h8H,4-7H2,1-3H3

> <InChI Key_QSARr>
LAIUFBWHERIJIH-UHFFFAOYSA-N

> <Salt_Solvent>


> <Salt_Solvent_ID>
0

> <MPID>
234

> <LogHalfLife>
0.4771

> <Tr_1_Tst_0>
0

$$$$
100084
  Mrv171c012241912102D          

  7  6  0  0  0  0            999 V2000
    1.7952   -0.8639    0.0000 C   0  0  0  0  0  0  0  0  0  0  0  0
    1.0807   -1.2764    0.0000 C   0  0  0  0  0  0  0  0  0  0  0  0
    1.0807   -2.1014    0.0000 C   0  0  0  0  0  0  0  0  0  0  0  0
    1.7952   -0.0389    0.0000 C   0  0  0  0  0  0  0  0  0  0  0  0
    1.7952    0.7861    0.0000 C   0  0  0  0  0  0  0  0  0  0  0  0
    2.6202   -0.0389    0.0000 C   0  0  0  0  0  0  0  0  0  0  0  0
    0.9702   -0.0389    0.0000 C   0  0  0  0  0  0  0  0  0  0  0  0
  1  2  1  0  0  0  0
  2  3  1  0  0  0  0
  1  4  1  0  0  0  0
  4  5  1  0  0  0  0
  4  6  1  0  0  0  0
  4  7  1  0  0  0  0
M  END
> <ChemID>
100084

> <CAS>
590-35-2

> <Original_SMILES>
CCCC(C)(C)C

> <preferred_name>
Pentane, 2,2-dimethyl-

> <dsstox_substance_id>
DTXSID5060439

> <dsstox_compound_id>
DTXCID2042513

> <qc_level>
Public_High

> <Canonical_QSARr>
CCCC(C)(C)C

> <InChI_Code_QSARr>
InChI=1S/C7H16/c1-5-6-7(2,3)4/h5-6H2,1-4H3

> <InChI Key_QSARr>
CXOWYJMDMMMMJO-UHFFFAOYSA-N

> <Salt_Solvent>


> <Salt_Solvent_ID>
0

> <MPID>
235

> <LogHalfLife>
0.8451

> <Tr_1_Tst_0>
1

$$$$
100085
  Mrv171c012241912102D          

  8  7  0  0  0  0            999 V2000
    2.1619   -1.0855    0.0000 C   0  0  0  0  0  0  0  0  0  0  0  0
    1.4474   -1.4980    0.0000 C   0  0  0  0  0  0  0  0  0  0  0  0
    1.4474   -2.3230    0.0000 C   0  0  0  0  0  0  0  0  0  0  0  0
    0.7330   -2.7355    0.0000 C   0  0  0  0  0  0  0  0  0  0  0  0
    2.1619   -0.2605    0.0000 C   0  0  0  0  0  0  0  0  0  0  0  0
    2.1619    0.5645    0.0000 C   0  0  0  0  0  0  0  0  0  0  0  0
    2.9869   -0.2605    0.0000 C   0  0  0  0  0  0  0  0  0  0  0  0
    1.3369   -0.2605    0.0000 C   0  0  0  0  0  0  0  0  0  0  0  0
  1  2  1  0  0  0  0
  2  3  1  0  0  0  0
  3  4  1  0  0  0  0
  1  5  1  0  0  0  0
  5  6  1  0  0  0  0
  5  7  1  0  0  0  0
  5  8  1  0  0  0  0
M  END
> <ChemID>
100085

> <CAS>
590-73-8

> <Original_SMILES>
CCCCC(C)(C)C

> <preferred_name>
Hexane, 2,2-dimethyl-

> <dsstox_substance_id>
DTXSID9073200

> <dsstox_compound_id>
DTXCID7042518

> <qc_level>
Public_High

> <Canonical_QSARr>
CCCCC(C)(C)C

> <InChI_Code_QSARr>
InChI=1S/C8H18/c1-5-6-7-8(2,3)4/h5-7H2,1-4H3

> <InChI Key_QSARr>
FLTJDUOFAQWHDF-UHFFFAOYSA-N

> <Salt_Solvent>


> <Salt_Solvent_ID>
0

> <MPID>
236

> <LogHalfLife>
0.6021

> <Tr_1_Tst_0>
1

$$$$
100086
  Mrv171c012241912102D          

  7  6  0  0  0  0            999 V2000
    0.0015   -1.2351    0.0000 C   0  0  0  0  0  0  0  0  0  0  0  0
    0.7159   -0.8226    0.0000 C   0  0  0  0  0  0  0  0  0  0  0  0
    0.7159    0.0024    0.0000 C   0  0  0  0  0  0  0  0  0  0  0  0
    1.4304   -1.2351    0.0000 C   0  0  0  0  0  0  0  0  0  0  0  0
    2.1449   -0.8226    0.0000 C   0  0  0  0  0  0  0  0  0  0  0  0
    2.8594   -1.2351    0.0000 C   0  0  0  0  0  0  0  0  0  0  0  0
    3.5738   -0.8226    0.0000 C   0  0  0  0  0  0  0  0  0  0  0  0
  1  2  1  0  0  0  0
  2  3  1  0  0  0  0
  2  4  1  0  0  0  0
  4  5  1  0  0  0  0
  5  6  1  0  0  0  0
  6  7  1  0  0  0  0
M  END
> <ChemID>
100086

> <CAS>
591-76-4

> <Original_SMILES>
CCCCC(C)C

> <preferred_name>
2-Methylhexane

> <dsstox_substance_id>
DTXSID5052256

> <dsstox_compound_id>
DTXCID0030827

> <qc_level>
DSSTox_Low

> <Canonical_QSARr>
CCCCC(C)C

> <InChI_Code_QSARr>
InChI=1S/C7H16/c1-4-5-6-7(2)3/h7H,4-6H2,1-3H3

> <InChI Key_QSARr>
GXDHCNNESPLIKD-UHFFFAOYSA-N

> <Salt_Solvent>


> <Salt_Solvent_ID>
0

> <MPID>
237

> <LogHalfLife>
0.4771

> <Tr_1_Tst_0>
1

$$$$
100087
  Mrv171c012241912102D          

  8  7  0  0  0  0            999 V2000
    0.5230    1.1270    0.0000 C   0  0  0  0  0  0  0  0  0  0  0  0
   -0.1914    0.7145    0.0000 C   0  0  0  0  0  0  0  0  0  0  0  0
    0.5230    1.9520    0.0000 C   0  0  0  0  0  0  0  0  0  0  0  0
    1.2375    0.7145    0.0000 C   0  0  0  0  0  0  0  0  0  0  0  0
    1.9520    1.1270    0.0000 C   0  0  0  0  0  0  0  0  0  0  0  0
    2.6664    0.7145    0.0000 C   0  0  0  0  0  0  0  0  0  0  0  0
    3.3809    1.1270    0.0000 C   0  0  0  0  0  0  0  0  0  0  0  0
    2.6664   -0.1105    0.0000 C   0  0  0  0  0  0  0  0  0  0  0  0
  1  2  1  0  0  0  0
  1  3  1  0  0  0  0
  1  4  1  0  0  0  0
  4  5  1  0  0  0  0
  5  6  1  0  0  0  0
  6  7  1  0  0  0  0
  6  8  1  0  0  0  0
M  END
> <ChemID>
100087

> <CAS>
592-13-2

> <Original_SMILES>
CC(C)CCC(C)C

> <preferred_name>
2,5-Dimethylhexane

> <dsstox_substance_id>
DTXSID4073201

> <dsstox_compound_id>
DTXCID7042564

> <qc_level>
Public_High

> <Canonical_QSARr>
CC(C)CCC(C)C

> <InChI_Code_QSARr>
InChI=1S/C8H18/c1-7(2)5-6-8(3)4/h7-8H,5-6H2,1-4H3

> <InChI Key_QSARr>
UWNADWZGEHDQAB-UHFFFAOYSA-N

> <Salt_Solvent>


> <Salt_Solvent_ID>
0

> <MPID>
238

> <LogHalfLife>
1.3979

> <Tr_1_Tst_0>
0

$$$$
100088
  Mrv171c012241912102D          

  8  7  0  0  0  0            999 V2000
    3.5467    1.8414    0.0000 C   0  0  0  0  0  0  0  0  0  0  0  0
    2.8322    1.4289    0.0000 C   0  0  0  0  0  0  0  0  0  0  0  0
    2.1177    1.8414    0.0000 C   0  0  0  0  0  0  0  0  0  0  0  0
    2.8322    0.6039    0.0000 C   0  0  0  0  0  0  0  0  0  0  0  0
    4.2611    1.4289    0.0000 C   0  0  0  0  0  0  0  0  0  0  0  0
    4.9756    1.8414    0.0000 C   0  0  0  0  0  0  0  0  0  0  0  0
    5.6901    1.4289    0.0000 C   0  0  0  0  0  0  0  0  0  0  0  0
    6.4045    1.8414    0.0000 C   0  0  0  0  0  0  0  0  0  0  0  0
  1  2  1  0  0  0  0
  2  3  1  0  0  0  0
  2  4  1  0  0  0  0
  1  5  1  0  0  0  0
  5  6  1  0  0  0  0
  6  7  1  0  0  0  0
  7  8  1  0  0  0  0
M  END
> <ChemID>
100088

> <CAS>
592-27-8

> <Original_SMILES>
CCCCCC(C)C

> <preferred_name>
2-Methylheptane

> <dsstox_substance_id>
DTXSID2060460

> <dsstox_compound_id>
DTXCID7042566

> <qc_level>
Public_High

> <Canonical_QSARr>
CCCCCC(C)C

> <InChI_Code_QSARr>
InChI=1S/C8H18/c1-4-5-6-7-8(2)3/h8H,4-7H2,1-3H3

> <InChI Key_QSARr>
JVSWJIKNEAIKJW-UHFFFAOYSA-N

> <Salt_Solvent>


> <Salt_Solvent_ID>
0

> <MPID>
239

> <LogHalfLife>
0.4771

> <Tr_1_Tst_0>
1

$$$$
100089
  Mrv171c012241912102D          

 18 17  0  0  0  0            999 V2000
   -0.0537   -0.4051    0.0000 C   0  0  0  0  0  0  0  0  0  0  0  0
    0.6607    0.0074    0.0000 C   0  0  0  0  0  0  0  0  0  0  0  0
    1.3752   -0.4051    0.0000 C   0  0  0  0  0  0  0  0  0  0  0  0
    2.0897    0.0074    0.0000 C   0  0  0  0  0  0  0  0  0  0  0  0
    2.8042   -0.4051    0.0000 C   0  0  0  0  0  0  0  0  0  0  0  0
    3.5186    0.0074    0.0000 C   0  0  0  0  0  0  0  0  0  0  0  0
    4.2331   -0.4051    0.0000 C   0  0  0  0  0  0  0  0  0  0  0  0
    4.9476    0.0074    0.0000 C   0  0  0  0  0  0  0  0  0  0  0  0
    5.6620   -0.4051    0.0000 C   0  0  0  0  0  0  0  0  0  0  0  0
    6.3765    0.0074    0.0000 C   0  0  0  0  0  0  0  0  0  0  0  0
    7.0910   -0.4051    0.0000 C   0  0  0  0  0  0  0  0  0  0  0  0
    7.8055    0.0074    0.0000 C   0  0  0  0  0  0  0  0  0  0  0  0
    8.5199   -0.4051    0.0000 C   0  0  0  0  0  0  0  0  0  0  0  0
    9.2344    0.0074    0.0000 C   0  0  0  0  0  0  0  0  0  0  0  0
    9.9489   -0.4051    0.0000 C   0  0  0  0  0  0  0  0  0  0  0  0
   10.6633    0.0074    0.0000 C   0  0  0  0  0  0  0  0  0  0  0  0
   11.3778   -0.4051    0.0000 C   0  0  0  0  0  0  0  0  0  0  0  0
   12.0923    0.0074    0.0000 C   0  0  0  0  0  0  0  0  0  0  0  0
  1  2  1  0  0  0  0
  2  3  1  0  0  0  0
  3  4  1  0  0  0  0
  4  5  1  0  0  0  0
  5  6  1  0  0  0  0
  6  7  1  0  0  0  0
  7  8  1  0  0  0  0
  8  9  1  0  0  0  0
  9 10  1  0  0  0  0
 10 11  1  0  0  0  0
 11 12  1  0  0  0  0
 12 13  1  0  0  0  0
 13 14  1  0  0  0  0
 14 15  1  0  0  0  0
 15 16  1  0  0  0  0
 16 17  1  0  0  0  0
 17 18  1  0  0  0  0
M  END
> <ChemID>
100089

> <CAS>
593-45-3

> <Original_SMILES>
CCCCCCCCCCCCCCCCCC

> <preferred_name>
Octadecane

> <dsstox_substance_id>
DTXSID9047172

> <dsstox_compound_id>
DTXCID7027172

> <qc_level>
DSSTox_Low

> <Canonical_QSARr>
CCCCCCCCCCCCCCCCCC

> <InChI_Code_QSARr>
InChI=1S/C18H38/c1-3-5-7-9-11-13-15-17-18-16-14-12-10-8-6-4-2/h3-18H2,1-2H3

> <InChI Key_QSARr>
RZJRJXONCZWCBN-UHFFFAOYSA-N

> <Salt_Solvent>


> <Salt_Solvent_ID>
0

> <MPID>
240

> <LogHalfLife>
1.3222

> <Tr_1_Tst_0>
1

$$$$
100090
  Mrv171c012241912102D          

 27 26  0  0  0  0            999 V2000
    7.9702   -4.7107    0.0000 C   0  0  0  0  0  0  0  0  0  0  0  0
    7.2558   -4.2982    0.0000 C   0  0  0  0  0  0  0  0  0  0  0  0
    6.5413   -4.7107    0.0000 C   0  0  0  0  0  0  0  0  0  0  0  0
    5.8268   -4.2982    0.0000 C   0  0  0  0  0  0  0  0  0  0  0  0
    5.1124   -4.7107    0.0000 C   0  0  0  0  0  0  0  0  0  0  0  0
    4.3979   -4.2982    0.0000 C   0  0  0  0  0  0  0  0  0  0  0  0
    3.6834   -4.7107    0.0000 C   0  0  0  0  0  0  0  0  0  0  0  0
    2.9689   -4.2982    0.0000 C   0  0  0  0  0  0  0  0  0  0  0  0
    2.2545   -4.7107    0.0000 C   0  0  0  0  0  0  0  0  0  0  0  0
    1.5400   -4.2982    0.0000 C   0  0  0  0  0  0  0  0  0  0  0  0
    0.8255   -4.7107    0.0000 C   0  0  0  0  0  0  0  0  0  0  0  0
    0.1111   -4.2982    0.0000 C   0  0  0  0  0  0  0  0  0  0  0  0
   -0.6034   -4.7107    0.0000 C   0  0  0  0  0  0  0  0  0  0  0  0
   -1.3179   -4.2982    0.0000 C   0  0  0  0  0  0  0  0  0  0  0  0
    8.6847   -4.2982    0.0000 C   0  0  0  0  0  0  0  0  0  0  0  0
    9.3992   -4.7107    0.0000 C   0  0  0  0  0  0  0  0  0  0  0  0
   10.1137   -4.2982    0.0000 C   0  0  0  0  0  0  0  0  0  0  0  0
   10.8281   -4.7107    0.0000 C   0  0  0  0  0  0  0  0  0  0  0  0
   11.5426   -4.2982    0.0000 C   0  0  0  0  0  0  0  0  0  0  0  0
   12.2571   -4.7107    0.0000 C   0  0  0  0  0  0  0  0  0  0  0  0
   12.9715   -4.2982    0.0000 C   0  0  0  0  0  0  0  0  0  0  0  0
   13.6860   -4.7107    0.0000 C   0  0  0  0  0  0  0  0  0  0  0  0
   14.4005   -4.2982    0.0000 C   0  0  0  0  0  0  0  0  0  0  0  0
   15.1150   -4.7107    0.0000 C   0  0  0  0  0  0  0  0  0  0  0  0
   15.8294   -4.2982    0.0000 C   0  0  0  0  0  0  0  0  0  0  0  0
   16.5439   -4.7107    0.0000 C   0  0  0  0  0  0  0  0  0  0  0  0
   17.2584   -4.2982    0.0000 C   0  0  0  0  0  0  0  0  0  0  0  0
  1  2  1  0  0  0  0
  2  3  1  0  0  0  0
  3  4  1  0  0  0  0
  4  5  1  0  0  0  0
  5  6  1  0  0  0  0
  6  7  1  0  0  0  0
  7  8  1  0  0  0  0
  8  9  1  0  0  0  0
  9 10  1  0  0  0  0
 10 11  1  0  0  0  0
 11 12  1  0  0  0  0
 12 13  1  0  0  0  0
 13 14  1  0  0  0  0
  1 15  1  0  0  0  0
 15 16  1  0  0  0  0
 16 17  1  0  0  0  0
 17 18  1  0  0  0  0
 18 19  1  0  0  0  0
 19 20  1  0  0  0  0
 20 21  1  0  0  0  0
 21 22  1  0  0  0  0
 22 23  1  0  0  0  0
 23 24  1  0  0  0  0
 24 25  1  0  0  0  0
 25 26  1  0  0  0  0
 26 27  1  0  0  0  0
M  END
> <ChemID>
100090

> <CAS>
593-49-7

> <Original_SMILES>
CCCCCCCCCCCCCCCCCCCCCCCCCCC

> <preferred_name>
Heptacosane

> <dsstox_substance_id>
DTXSID6058637

> <dsstox_compound_id>
DTXCID4032324

> <qc_level>
DSSTox_Low

> <Canonical_QSARr>
CCCCCCCCCCCCCCCCCCCCCCCCCCC

> <InChI_Code_QSARr>
InChI=1S/C27H56/c1-3-5-7-9-11-13-15-17-19-21-23-25-27-26-24-22-20-18-16-14-12-10-8-6-4-2/h3-27H2,1-2H3

> <InChI Key_QSARr>
BJQWYEJQWHSSCJ-UHFFFAOYSA-N

> <Salt_Solvent>


> <Salt_Solvent_ID>
0

> <MPID>
241

> <LogHalfLife>
2.1492

> <Tr_1_Tst_0>
1

$$$$
100091
  Mrv171c012241912102D          

  8  7  0  0  0  0            999 V2000
    0.1544   -1.6984    0.0000 C   0  0  0  0  0  0  0  0  0  0  0  0
    0.9794   -1.6984    0.0000 C   0  0  0  0  0  0  0  0  0  0  0  0
    1.3919   -0.9839    0.0000 C   0  0  0  0  0  0  0  0  0  0  0  0
    2.2169   -0.9839    0.0000 C   0  0  0  0  0  0  0  0  0  0  0  0
    2.6294   -0.2694    0.0000 C   0  0  0  0  0  0  0  0  0  0  0  0
    0.9794   -0.2694    0.0000 C   0  0  0  0  0  0  0  0  0  0  0  0
    1.3919    0.4450    0.0000 C   0  0  0  0  0  0  0  0  0  0  0  0
    0.1544   -0.2694    0.0000 C   0  0  0  0  0  0  0  0  0  0  0  0
  1  2  1  0  0  0  0
  2  3  1  0  0  0  0
  3  4  1  0  0  0  0
  4  5  1  0  0  0  0
  3  6  1  0  0  0  0
  6  7  1  0  0  0  0
  6  8  1  0  0  0  0
M  END
> <ChemID>
100091

> <CAS>
68333-81-3

> <Original_SMILES>
CC(C)C(CC)CC

> <preferred_name>
Alkanes, C4-12

> <dsstox_substance_id>
DTXSID5029429

> <dsstox_compound_id>
DTXCID909429

> <qc_level>
DSSTox_Low

> <Canonical_QSARr>
CC(C)C(CC)CC

> <InChI_Code_QSARr>
InChI=1S/C8H18/c1-5-8(6-2)7(3)4/h7-8H,5-6H2,1-4H3

> <InChI Key_QSARr>
DUPUVYJQZSLSJB-UHFFFAOYSA-N

> <Salt_Solvent>


> <Salt_Solvent_ID>
0

> <MPID>
242

> <LogHalfLife>
0.7782

> <Tr_1_Tst_0>
0

$$$$
100092
  Mrv171c012241912102D          

  9  9  0  0  0  0            999 V2000
    1.5714   -0.7019    0.0000 C   0  0  0  0  0  0  0  0  0  0  0  0
    2.2859   -0.2894    0.0000 C   0  0  0  0  0  0  0  0  0  0  0  0
    3.0004   -0.7019    0.0000 C   0  0  0  0  0  0  0  0  0  0  0  0
    0.8570   -0.2894    0.0000 C   0  0  0  0  0  0  0  0  0  0  0  0
    0.8570    0.5356    0.0000 C   0  0  0  0  0  0  0  0  0  0  0  0
    0.1425   -0.7019    0.0000 C   0  0  0  0  0  0  0  0  0  0  0  0
    0.1425   -1.5269    0.0000 C   0  0  0  0  0  0  0  0  0  0  0  0
    0.8570   -1.9394    0.0000 C   0  0  0  0  0  0  0  0  0  0  0  0
    1.5714   -1.5269    0.0000 C   0  0  0  0  0  0  0  0  0  0  0  0
  1  2  1  0  0  0  0
  2  3  1  0  0  0  0
  4  1  1  0  0  0  0
  4  5  1  0  0  0  0
  6  4  2  0  0  0  0
  7  6  1  0  0  0  0
  8  7  2  0  0  0  0
  9  8  1  0  0  0  0
  1  9  2  0  0  0  0
M  END
> <ChemID>
100092

> <CAS>
611-14-3

> <Original_SMILES>
Cc1ccccc1CC

> <preferred_name>
1-Ethyl-2-methylbenzene

> <dsstox_substance_id>
DTXSID2050403

> <dsstox_compound_id>
DTXCID5029477

> <qc_level>
DSSTox_Low

> <Canonical_QSARr>
CC1=CC=CC=C1CC

> <InChI_Code_QSARr>
InChI=1S/C9H12/c1-3-9-7-5-4-6-8(9)2/h4-7H,3H2,1-2H3

> <InChI Key_QSARr>
HYFLWBNQFMXCPA-UHFFFAOYSA-N

> <Salt_Solvent>


> <Salt_Solvent_ID>
0

> <MPID>
243

> <LogHalfLife>
0.6021

> <Tr_1_Tst_0>
1

$$$$
100093
  Mrv171c012241912102D          

  7  6  0  0  0  0            999 V2000
    1.2375    0.7145    0.0000 C   0  0  0  0  0  0  0  0  0  0  0  0
    2.0625    0.7145    0.0000 C   0  0  0  0  0  0  0  0  0  0  0  0
    2.4750   -0.0000    0.0000 C   0  0  0  0  0  0  0  0  0  0  0  0
    0.8250    1.4289    0.0000 C   0  0  0  0  0  0  0  0  0  0  0  0
    0.0000    1.4289    0.0000 C   0  0  0  0  0  0  0  0  0  0  0  0
    0.8250   -0.0000    0.0000 C   0  0  0  0  0  0  0  0  0  0  0  0
    0.0000   -0.0000    0.0000 C   0  0  0  0  0  0  0  0  0  0  0  0
  1  2  1  0  0  0  0
  2  3  1  0  0  0  0
  1  4  1  0  0  0  0
  4  5  1  0  0  0  0
  1  6  1  0  0  0  0
  6  7  1  0  0  0  0
M  END
> <ChemID>
100093

> <CAS>
617-78-7

> <Original_SMILES>
CCC(CC)CC

> <preferred_name>
Pentane, 3-ethyl-

> <dsstox_substance_id>
DTXSID8073211

> <dsstox_compound_id>
DTXCID3043106

> <qc_level>
Public_High

> <Canonical_QSARr>
CCC(CC)CC

> <InChI_Code_QSARr>
InChI=1S/C7H16/c1-4-7(5-2)6-3/h7H,4-6H2,1-3H3

> <InChI Key_QSARr>
AORMDLNPRGXHHL-UHFFFAOYSA-N

> <Salt_Solvent>


> <Salt_Solvent_ID>
0

> <MPID>
244

> <LogHalfLife>
0.6021

> <Tr_1_Tst_0>
1

$$$$
100094
  Mrv171c012241912102D          

  8  7  0  0  0  0            999 V2000
    1.7733   -0.8176    0.0000 C   0  0  0  0  0  0  0  0  0  0  0  0
    1.0589   -0.4051    0.0000 C   0  0  0  0  0  0  0  0  0  0  0  0
    0.3444   -0.8176    0.0000 C   0  0  0  0  0  0  0  0  0  0  0  0
    1.7733   -1.6426    0.0000 C   0  0  0  0  0  0  0  0  0  0  0  0
    1.0589   -2.0551    0.0000 C   0  0  0  0  0  0  0  0  0  0  0  0
    2.4878   -0.4051    0.0000 C   0  0  0  0  0  0  0  0  0  0  0  0
    3.2023   -0.8176    0.0000 C   0  0  0  0  0  0  0  0  0  0  0  0
    3.9168   -0.4051    0.0000 C   0  0  0  0  0  0  0  0  0  0  0  0
  1  2  1  0  0  0  0
  2  3  1  0  0  0  0
  1  4  1  0  0  0  0
  4  5  1  0  0  0  0
  1  6  1  0  0  0  0
  6  7  1  0  0  0  0
  7  8  1  0  0  0  0
M  END
> <ChemID>
100094

> <CAS>
619-99-8

> <Original_SMILES>
CCCC(CC)CC

> <preferred_name>
3-Ethylhexane

> <dsstox_substance_id>
DTXSID6060713

> <dsstox_compound_id>
DTXCID5043186

> <qc_level>
Public_High

> <Canonical_QSARr>
CCCC(CC)CC

> <InChI_Code_QSARr>
InChI=1S/C8H18/c1-4-7-8(5-2)6-3/h8H,4-7H2,1-3H3

> <InChI Key_QSARr>
SFRKSDZMZHIISH-UHFFFAOYSA-N

> <Salt_Solvent>


> <Salt_Solvent_ID>
0

> <MPID>
245

> <LogHalfLife>
0.6021

> <Tr_1_Tst_0>
1

$$$$
100095
  Mrv171c012241912102D          

  9  9  0  0  0  0            999 V2000
    2.0800   -1.1814    0.0000 C   0  0  0  0  0  0  0  0  0  0  0  0
    1.3655   -0.7689    0.0000 C   0  0  0  0  0  0  0  0  0  0  0  0
    1.3655    0.0561    0.0000 C   0  0  0  0  0  0  0  0  0  0  0  0
    2.0800    0.4686    0.0000 C   0  0  0  0  0  0  0  0  0  0  0  0
    0.6511   -1.1814    0.0000 C   0  0  0  0  0  0  0  0  0  0  0  0
    0.6511   -2.0064    0.0000 C   0  0  0  0  0  0  0  0  0  0  0  0
   -0.0634   -2.4189    0.0000 C   0  0  0  0  0  0  0  0  0  0  0  0
    1.3655   -2.4189    0.0000 C   0  0  0  0  0  0  0  0  0  0  0  0
    2.0800   -2.0064    0.0000 C   0  0  0  0  0  0  0  0  0  0  0  0
  2  1  1  0  0  0  0
  2  3  1  0  0  0  0
  3  4  1  0  0  0  0
  5  2  2  0  0  0  0
  6  5  1  0  0  0  0
  6  7  1  0  0  0  0
  8  6  2  0  0  0  0
  9  8  1  0  0  0  0
  1  9  2  0  0  0  0
M  END
> <ChemID>
100095

> <CAS>
620-14-4

> <Original_SMILES>
Cc1cccc(CC)c1

> <preferred_name>
3-Ethyltoluene

> <dsstox_substance_id>
DTXSID6050386

> <dsstox_compound_id>
DTXCID807876

> <qc_level>
DSSTox_High

> <Canonical_QSARr>
CC1C=C(CC)C=CC=1

> <InChI_Code_QSARr>
InChI=1S/C9H12/c1-3-9-6-4-5-8(2)7-9/h4-7H,3H2,1-2H3

> <InChI Key_QSARr>
ZLCSFXXPPANWQY-UHFFFAOYSA-N

> <Salt_Solvent>


> <Salt_Solvent_ID>
0

> <MPID>
246

> <LogHalfLife>
0.4771

> <Tr_1_Tst_0>
0

$$$$
100096
  Mrv171c012241912102D          

  9  9  0  0  0  0            999 V2000
    1.9517   -1.2305    0.0000 C   0  0  0  0  0  0  0  0  0  0  0  0
    1.9517   -2.0555    0.0000 C   0  0  0  0  0  0  0  0  0  0  0  0
    1.2373   -2.4680    0.0000 C   0  0  0  0  0  0  0  0  0  0  0  0
    2.6662   -0.8180    0.0000 C   0  0  0  0  0  0  0  0  0  0  0  0
    2.6662    0.0070    0.0000 C   0  0  0  0  0  0  0  0  0  0  0  0
    1.9517    0.4195    0.0000 C   0  0  0  0  0  0  0  0  0  0  0  0
    1.9517    1.2445    0.0000 C   0  0  0  0  0  0  0  0  0  0  0  0
    1.2373    0.0070    0.0000 C   0  0  0  0  0  0  0  0  0  0  0  0
    1.2373   -0.8180    0.0000 C   0  0  0  0  0  0  0  0  0  0  0  0
  1  2  1  0  0  0  0
  2  3  1  0  0  0  0
  4  1  1  0  0  0  0
  5  4  2  0  0  0  0
  6  5  1  0  0  0  0
  6  7  1  0  0  0  0
  8  6  2  0  0  0  0
  9  8  1  0  0  0  0
  1  9  2  0  0  0  0
M  END
> <ChemID>
100096

> <CAS>
622-96-8

> <Original_SMILES>
Cc1ccc(CC)cc1

> <preferred_name>
4-Ethyltoluene

> <dsstox_substance_id>
DTXSID9029194

> <dsstox_compound_id>
DTXCID409194

> <qc_level>
DSSTox_Low

> <Canonical_QSARr>
CC1C=CC(CC)=CC=1

> <InChI_Code_QSARr>
InChI=1S/C9H12/c1-3-9-6-4-8(2)5-7-9/h4-7H,3H2,1-2H3

> <InChI Key_QSARr>
JRLPEMVDPFPYPJ-UHFFFAOYSA-N

> <Salt_Solvent>


> <Salt_Solvent_ID>
0

> <MPID>
247

> <LogHalfLife>
0.6021

> <Tr_1_Tst_0>
1

$$$$
100097
  Mrv171c012241912102D          

 13 12  0  0  0  0            999 V2000
   -0.0259   -0.0344    0.0000 C   0  0  0  0  0  0  0  0  0  0  0  0
    0.6885   -0.4469    0.0000 C   0  0  0  0  0  0  0  0  0  0  0  0
    1.4030   -0.0344    0.0000 C   0  0  0  0  0  0  0  0  0  0  0  0
    2.1175   -0.4469    0.0000 C   0  0  0  0  0  0  0  0  0  0  0  0
    2.8320   -0.0344    0.0000 C   0  0  0  0  0  0  0  0  0  0  0  0
    3.5464   -0.4469    0.0000 C   0  0  0  0  0  0  0  0  0  0  0  0
    4.2609   -0.0344    0.0000 C   0  0  0  0  0  0  0  0  0  0  0  0
    4.9754   -0.4469    0.0000 C   0  0  0  0  0  0  0  0  0  0  0  0
    5.6898   -0.0344    0.0000 C   0  0  0  0  0  0  0  0  0  0  0  0
    6.4043   -0.4469    0.0000 C   0  0  0  0  0  0  0  0  0  0  0  0
    7.1188   -0.0344    0.0000 C   0  0  0  0  0  0  0  0  0  0  0  0
    7.8332   -0.4469    0.0000 C   0  0  0  0  0  0  0  0  0  0  0  0
    8.5477   -0.0344    0.0000 C   0  0  0  0  0  0  0  0  0  0  0  0
  1  2  1  0  0  0  0
  2  3  1  0  0  0  0
  3  4  1  0  0  0  0
  4  5  1  0  0  0  0
  5  6  1  0  0  0  0
  6  7  1  0  0  0  0
  7  8  1  0  0  0  0
  8  9  1  0  0  0  0
  9 10  1  0  0  0  0
 10 11  1  0  0  0  0
 11 12  1  0  0  0  0
 12 13  1  0  0  0  0
M  END
> <ChemID>
100097

> <CAS>
629-50-5

> <Original_SMILES>
CCCCCCCCCCCCC

> <preferred_name>
Tridecane

> <dsstox_substance_id>
DTXSID6027266

> <dsstox_compound_id>
DTXCID307266

> <qc_level>
DSSTox_Low

> <Canonical_QSARr>
CCCCCCCCCCCCC

> <InChI_Code_QSARr>
InChI=1S/C13H28/c1-3-5-7-9-11-13-12-10-8-6-4-2/h3-13H2,1-2H3

> <InChI Key_QSARr>
IIYFAKIEWZDVMP-UHFFFAOYSA-N

> <Salt_Solvent>


> <Salt_Solvent_ID>
0

> <MPID>
248

> <LogHalfLife>
1.0792

> <Tr_1_Tst_0>
1

$$$$
100098
  Mrv171c012241912102D          

 14 13  0  0  0  0            999 V2000
   -0.0189   -0.4144    0.0000 C   0  0  0  0  0  0  0  0  0  0  0  0
    0.6956   -0.0019    0.0000 C   0  0  0  0  0  0  0  0  0  0  0  0
    1.4100   -0.4144    0.0000 C   0  0  0  0  0  0  0  0  0  0  0  0
    2.1245   -0.0019    0.0000 C   0  0  0  0  0  0  0  0  0  0  0  0
    2.8390   -0.4144    0.0000 C   0  0  0  0  0  0  0  0  0  0  0  0
    3.5535   -0.0019    0.0000 C   0  0  0  0  0  0  0  0  0  0  0  0
    4.2679   -0.4144    0.0000 C   0  0  0  0  0  0  0  0  0  0  0  0
    4.9824   -0.0019    0.0000 C   0  0  0  0  0  0  0  0  0  0  0  0
    5.6969   -0.4144    0.0000 C   0  0  0  0  0  0  0  0  0  0  0  0
    6.4113   -0.0019    0.0000 C   0  0  0  0  0  0  0  0  0  0  0  0
    7.1258   -0.4144    0.0000 C   0  0  0  0  0  0  0  0  0  0  0  0
    7.8403   -0.0019    0.0000 C   0  0  0  0  0  0  0  0  0  0  0  0
    8.5548   -0.4144    0.0000 C   0  0  0  0  0  0  0  0  0  0  0  0
    9.2692   -0.0019    0.0000 C   0  0  0  0  0  0  0  0  0  0  0  0
  1  2  1  0  0  0  0
  2  3  1  0  0  0  0
  3  4  1  0  0  0  0
  4  5  1  0  0  0  0
  5  6  1  0  0  0  0
  6  7  1  0  0  0  0
  7  8  1  0  0  0  0
  8  9  1  0  0  0  0
  9 10  1  0  0  0  0
 10 11  1  0  0  0  0
 11 12  1  0  0  0  0
 12 13  1  0  0  0  0
 13 14  1  0  0  0  0
M  END
> <ChemID>
100098

> <CAS>
629-59-4

> <Original_SMILES>
CCCCCCCCCCCCCC

> <preferred_name>
Tetradecane

> <dsstox_substance_id>
DTXSID1027267

> <dsstox_compound_id>
DTXCID707267

> <qc_level>
DSSTox_Low

> <Canonical_QSARr>
CCCCCCCCCCCCCC

> <InChI_Code_QSARr>
InChI=1S/C14H30/c1-3-5-7-9-11-13-14-12-10-8-6-4-2/h3-14H2,1-2H3

> <InChI Key_QSARr>
BGHCVCJVXZWKCC-UHFFFAOYSA-N

> <Salt_Solvent>


> <Salt_Solvent_ID>
0

> <MPID>
249

> <LogHalfLife>
1.3617

> <Tr_1_Tst_0>
1

$$$$
100099
  Mrv171c012241912102D          

 15 14  0  0  0  0            999 V2000
   -0.0013   -0.0315    0.0000 C   0  0  0  0  0  0  0  0  0  0  0  0
    0.7132   -0.4440    0.0000 C   0  0  0  0  0  0  0  0  0  0  0  0
    1.4276   -0.0315    0.0000 C   0  0  0  0  0  0  0  0  0  0  0  0
    2.1421   -0.4440    0.0000 C   0  0  0  0  0  0  0  0  0  0  0  0
    2.8566   -0.0315    0.0000 C   0  0  0  0  0  0  0  0  0  0  0  0
    3.5710   -0.4440    0.0000 C   0  0  0  0  0  0  0  0  0  0  0  0
    4.2855   -0.0315    0.0000 C   0  0  0  0  0  0  0  0  0  0  0  0
    5.0000   -0.4440    0.0000 C   0  0  0  0  0  0  0  0  0  0  0  0
    5.7145   -0.0315    0.0000 C   0  0  0  0  0  0  0  0  0  0  0  0
    6.4289   -0.4440    0.0000 C   0  0  0  0  0  0  0  0  0  0  0  0
    7.1434   -0.0315    0.0000 C   0  0  0  0  0  0  0  0  0  0  0  0
    7.8579   -0.4440    0.0000 C   0  0  0  0  0  0  0  0  0  0  0  0
    8.5723   -0.0315    0.0000 C   0  0  0  0  0  0  0  0  0  0  0  0
    9.2868   -0.4440    0.0000 C   0  0  0  0  0  0  0  0  0  0  0  0
   10.0013   -0.0315    0.0000 C   0  0  0  0  0  0  0  0  0  0  0  0
  1  2  1  0  0  0  0
  2  3  1  0  0  0  0
  3  4  1  0  0  0  0
  4  5  1  0  0  0  0
  5  6  1  0  0  0  0
  6  7  1  0  0  0  0
  7  8  1  0  0  0  0
  8  9  1  0  0  0  0
  9 10  1  0  0  0  0
 10 11  1  0  0  0  0
 11 12  1  0  0  0  0
 12 13  1  0  0  0  0
 13 14  1  0  0  0  0
 14 15  1  0  0  0  0
M  END
> <ChemID>
100099

> <CAS>
629-62-9

> <Original_SMILES>
CCCCCCCCCCCCCCC

> <preferred_name>
Pentadecane

> <dsstox_substance_id>
DTXSID6027268

> <dsstox_compound_id>
DTXCID107268

> <qc_level>
DSSTox_Low

> <Canonical_QSARr>
CCCCCCCCCCCCCCC

> <InChI_Code_QSARr>
InChI=1S/C15H32/c1-3-5-7-9-11-13-15-14-12-10-8-6-4-2/h3-15H2,1-2H3

> <InChI Key_QSARr>
YCOZIPAWZNQLMR-UHFFFAOYSA-N

> <Salt_Solvent>


> <Salt_Solvent_ID>
0

> <MPID>
250

> <LogHalfLife>
1.415

> <Tr_1_Tst_0>
0

$$$$
100100
  Mrv171c012241912102D          

 17 16  0  0  0  0            999 V2000
    0.0970    0.0140    0.0000 C   0  0  0  0  0  0  0  0  0  0  0  0
    0.8115   -0.3985    0.0000 C   0  0  0  0  0  0  0  0  0  0  0  0
    1.5259    0.0140    0.0000 C   0  0  0  0  0  0  0  0  0  0  0  0
    2.2404   -0.3985    0.0000 C   0  0  0  0  0  0  0  0  0  0  0  0
    2.9549    0.0140    0.0000 C   0  0  0  0  0  0  0  0  0  0  0  0
    3.6693   -0.3985    0.0000 C   0  0  0  0  0  0  0  0  0  0  0  0
    4.3838    0.0140    0.0000 C   0  0  0  0  0  0  0  0  0  0  0  0
    5.0983   -0.3985    0.0000 C   0  0  0  0  0  0  0  0  0  0  0  0
    5.8128    0.0140    0.0000 C   0  0  0  0  0  0  0  0  0  0  0  0
    6.5272   -0.3985    0.0000 C   0  0  0  0  0  0  0  0  0  0  0  0
    7.2417    0.0140    0.0000 C   0  0  0  0  0  0  0  0  0  0  0  0
    7.9562   -0.3985    0.0000 C   0  0  0  0  0  0  0  0  0  0  0  0
    8.6706    0.0140    0.0000 C   0  0  0  0  0  0  0  0  0  0  0  0
    9.3851   -0.3985    0.0000 C   0  0  0  0  0  0  0  0  0  0  0  0
   10.0996    0.0140    0.0000 C   0  0  0  0  0  0  0  0  0  0  0  0
   10.8140   -0.3985    0.0000 C   0  0  0  0  0  0  0  0  0  0  0  0
   11.5285    0.0140    0.0000 C   0  0  0  0  0  0  0  0  0  0  0  0
  1  2  1  0  0  0  0
  2  3  1  0  0  0  0
  3  4  1  0  0  0  0
  4  5  1  0  0  0  0
  5  6  1  0  0  0  0
  6  7  1  0  0  0  0
  7  8  1  0  0  0  0
  8  9  1  0  0  0  0
  9 10  1  0  0  0  0
 10 11  1  0  0  0  0
 11 12  1  0  0  0  0
 12 13  1  0  0  0  0
 13 14  1  0  0  0  0
 14 15  1  0  0  0  0
 15 16  1  0  0  0  0
 16 17  1  0  0  0  0
M  END
> <ChemID>
100100

> <CAS>
629-78-7

> <Original_SMILES>
CCCCCCCCCCCCCCCCC

> <preferred_name>
Heptadecane

> <dsstox_substance_id>
DTXSID7047061

> <dsstox_compound_id>
DTXCID5027061

> <qc_level>
DSSTox_Low

> <Canonical_QSARr>
CCCCCCCCCCCCCCCCC

> <InChI_Code_QSARr>
InChI=1S/C17H36/c1-3-5-7-9-11-13-15-17-16-14-12-10-8-6-4-2/h3-17H2,1-2H3

> <InChI Key_QSARr>
NDJKXXJCMXVBJW-UHFFFAOYSA-N

> <Salt_Solvent>


> <Salt_Solvent_ID>
0

> <MPID>
251

> <LogHalfLife>
1.301

> <Tr_1_Tst_0>
1

$$$$
100101
  Mrv171c012241912102D          

 19 18  0  0  0  0            999 V2000
   -0.0691   -0.0030    0.0000 C   0  0  0  0  0  0  0  0  0  0  0  0
    0.6454   -0.4155    0.0000 C   0  0  0  0  0  0  0  0  0  0  0  0
    1.3598   -0.0030    0.0000 C   0  0  0  0  0  0  0  0  0  0  0  0
    2.0743   -0.4155    0.0000 C   0  0  0  0  0  0  0  0  0  0  0  0
    2.7888   -0.0030    0.0000 C   0  0  0  0  0  0  0  0  0  0  0  0
    3.5033   -0.4155    0.0000 C   0  0  0  0  0  0  0  0  0  0  0  0
    4.2177   -0.0030    0.0000 C   0  0  0  0  0  0  0  0  0  0  0  0
    4.9322   -0.4155    0.0000 C   0  0  0  0  0  0  0  0  0  0  0  0
    5.6467   -0.0030    0.0000 C   0  0  0  0  0  0  0  0  0  0  0  0
    6.3611   -0.4155    0.0000 C   0  0  0  0  0  0  0  0  0  0  0  0
    7.0756   -0.0030    0.0000 C   0  0  0  0  0  0  0  0  0  0  0  0
    7.7901   -0.4155    0.0000 C   0  0  0  0  0  0  0  0  0  0  0  0
    8.5046   -0.0030    0.0000 C   0  0  0  0  0  0  0  0  0  0  0  0
    9.2190   -0.4155    0.0000 C   0  0  0  0  0  0  0  0  0  0  0  0
    9.9335   -0.0030    0.0000 C   0  0  0  0  0  0  0  0  0  0  0  0
   10.6480   -0.4155    0.0000 C   0  0  0  0  0  0  0  0  0  0  0  0
   11.3624   -0.0030    0.0000 C   0  0  0  0  0  0  0  0  0  0  0  0
   12.0769   -0.4155    0.0000 C   0  0  0  0  0  0  0  0  0  0  0  0
   12.7914   -0.0030    0.0000 C   0  0  0  0  0  0  0  0  0  0  0  0
  1  2  1  0  0  0  0
  2  3  1  0  0  0  0
  3  4  1  0  0  0  0
  4  5  1  0  0  0  0
  5  6  1  0  0  0  0
  6  7  1  0  0  0  0
  7  8  1  0  0  0  0
  8  9  1  0  0  0  0
  9 10  1  0  0  0  0
 10 11  1  0  0  0  0
 11 12  1  0  0  0  0
 12 13  1  0  0  0  0
 13 14  1  0  0  0  0
 14 15  1  0  0  0  0
 15 16  1  0  0  0  0
 16 17  1  0  0  0  0
 17 18  1  0  0  0  0
 18 19  1  0  0  0  0
M  END
> <ChemID>
100101

> <CAS>
629-92-5

> <Original_SMILES>
CCCCCCCCCCCCCCCCCCC

> <preferred_name>
Nonadecane

> <dsstox_substance_id>
DTXSID9047170

> <dsstox_compound_id>
DTXCID7027170

> <qc_level>
DSSTox_Low

> <Canonical_QSARr>
CCCCCCCCCCCCCCCCCCC

> <InChI_Code_QSARr>
InChI=1S/C19H40/c1-3-5-7-9-11-13-15-17-19-18-16-14-12-10-8-6-4-2/h3-19H2,1-2H3

> <InChI Key_QSARr>
LQERIDTXQFOHKA-UHFFFAOYSA-N

> <Salt_Solvent>


> <Salt_Solvent_ID>
0

> <MPID>
252

> <LogHalfLife>
1.2553

> <Tr_1_Tst_0>
1

$$$$
100102
  Mrv171c012241912102D          

 21 20  0  0  0  0            999 V2000
   -3.0577   -1.0681    0.0000 C   0  0  0  0  0  0  0  0  0  0  0  0
   -3.7722   -0.6556    0.0000 C   0  0  0  0  0  0  0  0  0  0  0  0
   -2.3433   -0.6556    0.0000 C   0  0  0  0  0  0  0  0  0  0  0  0
   -1.6288   -1.0681    0.0000 C   0  0  0  0  0  0  0  0  0  0  0  0
   -0.9143   -0.6556    0.0000 C   0  0  0  0  0  0  0  0  0  0  0  0
   -0.1999   -1.0681    0.0000 C   0  0  0  0  0  0  0  0  0  0  0  0
    0.5146   -0.6556    0.0000 C   0  0  0  0  0  0  0  0  0  0  0  0
    1.2291   -1.0681    0.0000 C   0  0  0  0  0  0  0  0  0  0  0  0
    1.9436   -0.6556    0.0000 C   0  0  0  0  0  0  0  0  0  0  0  0
    2.6580   -1.0681    0.0000 C   0  0  0  0  0  0  0  0  0  0  0  0
    3.3725   -0.6556    0.0000 C   0  0  0  0  0  0  0  0  0  0  0  0
    4.0870   -1.0681    0.0000 C   0  0  0  0  0  0  0  0  0  0  0  0
    4.8014   -0.6556    0.0000 C   0  0  0  0  0  0  0  0  0  0  0  0
    5.5159   -1.0681    0.0000 C   0  0  0  0  0  0  0  0  0  0  0  0
    6.2304   -0.6556    0.0000 C   0  0  0  0  0  0  0  0  0  0  0  0
    6.9448   -1.0681    0.0000 C   0  0  0  0  0  0  0  0  0  0  0  0
    7.6593   -0.6556    0.0000 C   0  0  0  0  0  0  0  0  0  0  0  0
    8.3738   -1.0681    0.0000 C   0  0  0  0  0  0  0  0  0  0  0  0
    9.0883   -0.6556    0.0000 C   0  0  0  0  0  0  0  0  0  0  0  0
    9.8027   -1.0681    0.0000 C   0  0  0  0  0  0  0  0  0  0  0  0
   10.5172   -0.6556    0.0000 C   0  0  0  0  0  0  0  0  0  0  0  0
  1  2  1  0  0  0  0
  1  3  1  0  0  0  0
  3  4  1  0  0  0  0
  4  5  1  0  0  0  0
  5  6  1  0  0  0  0
  6  7  1  0  0  0  0
  7  8  1  0  0  0  0
  8  9  1  0  0  0  0
  9 10  1  0  0  0  0
 10 11  1  0  0  0  0
 11 12  1  0  0  0  0
 12 13  1  0  0  0  0
 13 14  1  0  0  0  0
 14 15  1  0  0  0  0
 15 16  1  0  0  0  0
 16 17  1  0  0  0  0
 17 18  1  0  0  0  0
 18 19  1  0  0  0  0
 19 20  1  0  0  0  0
 20 21  1  0  0  0  0
M  END
> <ChemID>
100102

> <CAS>
629-94-7

> <Original_SMILES>
CCCCCCCCCCCCCCCCCCCCC

> <preferred_name>
Heneicosane

> <dsstox_substance_id>
DTXSID9047097

> <dsstox_compound_id>
DTXCID7027097

> <qc_level>
DSSTox_Low

> <Canonical_QSARr>
CCCCCCCCCCCCCCCCCCCCC

> <InChI_Code_QSARr>
InChI=1S/C21H44/c1-3-5-7-9-11-13-15-17-19-21-20-18-16-14-12-10-8-6-4-2/h3-21H2,1-2H3

> <InChI Key_QSARr>
FNAZRRHPUDJQCJ-UHFFFAOYSA-N

> <Salt_Solvent>


> <Salt_Solvent_ID>
0

> <MPID>
253

> <LogHalfLife>
1.3979

> <Tr_1_Tst_0>
1

$$$$
100103
  Mrv171c012241912102D          

 22 21  0  0  0  0            999 V2000
    0.1037   -0.4117    0.0000 C   0  0  0  0  0  0  0  0  0  0  0  0
    0.8182    0.0008    0.0000 C   0  0  0  0  0  0  0  0  0  0  0  0
    1.5327   -0.4117    0.0000 C   0  0  0  0  0  0  0  0  0  0  0  0
    2.2471    0.0008    0.0000 C   0  0  0  0  0  0  0  0  0  0  0  0
    2.9616   -0.4117    0.0000 C   0  0  0  0  0  0  0  0  0  0  0  0
    3.6761    0.0008    0.0000 C   0  0  0  0  0  0  0  0  0  0  0  0
    4.3905   -0.4117    0.0000 C   0  0  0  0  0  0  0  0  0  0  0  0
    5.1050    0.0008    0.0000 C   0  0  0  0  0  0  0  0  0  0  0  0
    5.8195   -0.4117    0.0000 C   0  0  0  0  0  0  0  0  0  0  0  0
    6.5340    0.0008    0.0000 C   0  0  0  0  0  0  0  0  0  0  0  0
    7.2484   -0.4117    0.0000 C   0  0  0  0  0  0  0  0  0  0  0  0
    7.9629    0.0008    0.0000 C   0  0  0  0  0  0  0  0  0  0  0  0
    8.6774   -0.4117    0.0000 C   0  0  0  0  0  0  0  0  0  0  0  0
    9.3918    0.0008    0.0000 C   0  0  0  0  0  0  0  0  0  0  0  0
   10.1063   -0.4117    0.0000 C   0  0  0  0  0  0  0  0  0  0  0  0
   10.8208    0.0008    0.0000 C   0  0  0  0  0  0  0  0  0  0  0  0
   11.5353   -0.4117    0.0000 C   0  0  0  0  0  0  0  0  0  0  0  0
   12.2497    0.0008    0.0000 C   0  0  0  0  0  0  0  0  0  0  0  0
   12.9642   -0.4117    0.0000 C   0  0  0  0  0  0  0  0  0  0  0  0
   13.6787    0.0008    0.0000 C   0  0  0  0  0  0  0  0  0  0  0  0
   14.3931   -0.4117    0.0000 C   0  0  0  0  0  0  0  0  0  0  0  0
   15.1076    0.0008    0.0000 C   0  0  0  0  0  0  0  0  0  0  0  0
  1  2  1  0  0  0  0
  2  3  1  0  0  0  0
  3  4  1  0  0  0  0
  4  5  1  0  0  0  0
  5  6  1  0  0  0  0
  6  7  1  0  0  0  0
  7  8  1  0  0  0  0
  8  9  1  0  0  0  0
  9 10  1  0  0  0  0
 10 11  1  0  0  0  0
 11 12  1  0  0  0  0
 12 13  1  0  0  0  0
 13 14  1  0  0  0  0
 14 15  1  0  0  0  0
 15 16  1  0  0  0  0
 16 17  1  0  0  0  0
 17 18  1  0  0  0  0
 18 19  1  0  0  0  0
 19 20  1  0  0  0  0
 20 21  1  0  0  0  0
 21 22  1  0  0  0  0
M  END
> <ChemID>
100103

> <CAS>
629-97-0

> <Original_SMILES>
CCCCCCCCCCCCCCCCCCCCCC

> <preferred_name>
Docosane

> <dsstox_substance_id>
DTXSID7047063

> <dsstox_compound_id>
DTXCID5027063

> <qc_level>
DSSTox_Low

> <Canonical_QSARr>
CCCCCCCCCCCCCCCCCCCCCC

> <InChI_Code_QSARr>
InChI=1S/C22H46/c1-3-5-7-9-11-13-15-17-19-21-22-20-18-16-14-12-10-8-6-4-2/h3-22H2,1-2H3

> <InChI Key_QSARr>
HOWGUJZVBDQJKV-UHFFFAOYSA-N

> <Salt_Solvent>


> <Salt_Solvent_ID>
0

> <MPID>
254

> <LogHalfLife>
2.0969

> <Tr_1_Tst_0>
0

$$$$
100104
  Mrv171c012241912102D          

 25 24  0  0  0  0            999 V2000
   21.4702    8.2711    0.0000 C   0  0  0  0  0  0  0  0  0  0  0  0
   20.7557    7.8586    0.0000 C   0  0  0  0  0  0  0  0  0  0  0  0
   20.0413    8.2711    0.0000 C   0  0  0  0  0  0  0  0  0  0  0  0
   19.3268    7.8586    0.0000 C   0  0  0  0  0  0  0  0  0  0  0  0
   18.6123    8.2711    0.0000 C   0  0  0  0  0  0  0  0  0  0  0  0
   17.8979    7.8586    0.0000 C   0  0  0  0  0  0  0  0  0  0  0  0
   17.1834    8.2711    0.0000 C   0  0  0  0  0  0  0  0  0  0  0  0
   16.4689    7.8586    0.0000 C   0  0  0  0  0  0  0  0  0  0  0  0
   15.7544    8.2711    0.0000 C   0  0  0  0  0  0  0  0  0  0  0  0
   15.0400    7.8586    0.0000 C   0  0  0  0  0  0  0  0  0  0  0  0
   14.3255    8.2711    0.0000 C   0  0  0  0  0  0  0  0  0  0  0  0
   13.6110    7.8586    0.0000 C   0  0  0  0  0  0  0  0  0  0  0  0
   12.8966    8.2711    0.0000 C   0  0  0  0  0  0  0  0  0  0  0  0
   22.1847    7.8586    0.0000 C   0  0  0  0  0  0  0  0  0  0  0  0
   22.8992    8.2711    0.0000 C   0  0  0  0  0  0  0  0  0  0  0  0
   23.6136    7.8586    0.0000 C   0  0  0  0  0  0  0  0  0  0  0  0
   24.3281    8.2711    0.0000 C   0  0  0  0  0  0  0  0  0  0  0  0
   25.0426    7.8586    0.0000 C   0  0  0  0  0  0  0  0  0  0  0  0
   25.7570    8.2711    0.0000 C   0  0  0  0  0  0  0  0  0  0  0  0
   26.4715    7.8586    0.0000 C   0  0  0  0  0  0  0  0  0  0  0  0
   27.1860    8.2711    0.0000 C   0  0  0  0  0  0  0  0  0  0  0  0
   27.9005    7.8586    0.0000 C   0  0  0  0  0  0  0  0  0  0  0  0
   28.6149    8.2711    0.0000 C   0  0  0  0  0  0  0  0  0  0  0  0
   29.3294    7.8586    0.0000 C   0  0  0  0  0  0  0  0  0  0  0  0
   30.0439    8.2711    0.0000 C   0  0  0  0  0  0  0  0  0  0  0  0
  1  2  1  0  0  0  0
  2  3  1  0  0  0  0
  3  4  1  0  0  0  0
  4  5  1  0  0  0  0
  5  6  1  0  0  0  0
  6  7  1  0  0  0  0
  7  8  1  0  0  0  0
  8  9  1  0  0  0  0
  9 10  1  0  0  0  0
 10 11  1  0  0  0  0
 11 12  1  0  0  0  0
 12 13  1  0  0  0  0
  1 14  1  0  0  0  0
 14 15  1  0  0  0  0
 15 16  1  0  0  0  0
 16 17  1  0  0  0  0
 17 18  1  0  0  0  0
 18 19  1  0  0  0  0
 19 20  1  0  0  0  0
 20 21  1  0  0  0  0
 21 22  1  0  0  0  0
 22 23  1  0  0  0  0
 23 24  1  0  0  0  0
 24 25  1  0  0  0  0
M  END
> <ChemID>
100104

> <CAS>
629-99-2

> <Original_SMILES>
CCCCCCCCCCCCCCCCCCCCCCCCC

> <preferred_name>
Pentacosane

> <dsstox_substance_id>
DTXSID2060882

> <dsstox_compound_id>
DTXCID7043584

> <qc_level>
Public_High

> <Canonical_QSARr>
CCCCCCCCCCCCCCCCCCCCCCCCC

> <InChI_Code_QSARr>
InChI=1S/C25H52/c1-3-5-7-9-11-13-15-17-19-21-23-25-24-22-20-18-16-14-12-10-8-6-4-2/h3-25H2,1-2H3

> <InChI Key_QSARr>
YKNWIILGEFFOPE-UHFFFAOYSA-N

> <Salt_Solvent>


> <Salt_Solvent_ID>
0

> <MPID>
255

> <LogHalfLife>
2.0828

> <Tr_1_Tst_0>
1

$$$$
100105
  Mrv171c012241912102D          

 26 25  0  0  0  0            999 V2000
   20.7593    7.8600    0.0000 C   0  0  0  0  0  0  0  0  0  0  0  0
   20.0449    8.2725    0.0000 C   0  0  0  0  0  0  0  0  0  0  0  0
   19.3304    7.8600    0.0000 C   0  0  0  0  0  0  0  0  0  0  0  0
   18.6159    8.2725    0.0000 C   0  0  0  0  0  0  0  0  0  0  0  0
   17.9015    7.8600    0.0000 C   0  0  0  0  0  0  0  0  0  0  0  0
   17.1870    8.2725    0.0000 C   0  0  0  0  0  0  0  0  0  0  0  0
   16.4725    7.8600    0.0000 C   0  0  0  0  0  0  0  0  0  0  0  0
   15.7580    8.2725    0.0000 C   0  0  0  0  0  0  0  0  0  0  0  0
   15.0436    7.8600    0.0000 C   0  0  0  0  0  0  0  0  0  0  0  0
   14.3291    8.2725    0.0000 C   0  0  0  0  0  0  0  0  0  0  0  0
   13.6146    7.8600    0.0000 C   0  0  0  0  0  0  0  0  0  0  0  0
   12.9002    8.2725    0.0000 C   0  0  0  0  0  0  0  0  0  0  0  0
   12.1857    7.8600    0.0000 C   0  0  0  0  0  0  0  0  0  0  0  0
   21.4738    8.2725    0.0000 C   0  0  0  0  0  0  0  0  0  0  0  0
   22.1883    7.8600    0.0000 C   0  0  0  0  0  0  0  0  0  0  0  0
   22.9027    8.2725    0.0000 C   0  0  0  0  0  0  0  0  0  0  0  0
   23.6172    7.8600    0.0000 C   0  0  0  0  0  0  0  0  0  0  0  0
   24.3317    8.2725    0.0000 C   0  0  0  0  0  0  0  0  0  0  0  0
   25.0462    7.8600    0.0000 C   0  0  0  0  0  0  0  0  0  0  0  0
   25.7606    8.2725    0.0000 C   0  0  0  0  0  0  0  0  0  0  0  0
   26.4751    7.8600    0.0000 C   0  0  0  0  0  0  0  0  0  0  0  0
   27.1896    8.2725    0.0000 C   0  0  0  0  0  0  0  0  0  0  0  0
   27.9040    7.8600    0.0000 C   0  0  0  0  0  0  0  0  0  0  0  0
   28.6185    8.2725    0.0000 C   0  0  0  0  0  0  0  0  0  0  0  0
   29.3330    7.8600    0.0000 C   0  0  0  0  0  0  0  0  0  0  0  0
   30.0475    8.2725    0.0000 C   0  0  0  0  0  0  0  0  0  0  0  0
  1  2  1  0  0  0  0
  2  3  1  0  0  0  0
  3  4  1  0  0  0  0
  4  5  1  0  0  0  0
  5  6  1  0  0  0  0
  6  7  1  0  0  0  0
  7  8  1  0  0  0  0
  8  9  1  0  0  0  0
  9 10  1  0  0  0  0
 10 11  1  0  0  0  0
 11 12  1  0  0  0  0
 12 13  1  0  0  0  0
  1 14  1  0  0  0  0
 14 15  1  0  0  0  0
 15 16  1  0  0  0  0
 16 17  1  0  0  0  0
 17 18  1  0  0  0  0
 18 19  1  0  0  0  0
 19 20  1  0  0  0  0
 20 21  1  0  0  0  0
 21 22  1  0  0  0  0
 22 23  1  0  0  0  0
 23 24  1  0  0  0  0
 24 25  1  0  0  0  0
 25 26  1  0  0  0  0
M  END
> <ChemID>
100105

> <CAS>
630-01-3

> <Original_SMILES>
CCCCCCCCCCCCCCCCCCCCCCCCCC

> <preferred_name>
Hexacosane

> <dsstox_substance_id>
DTXSID7060883

> <dsstox_compound_id>
DTXCID3043601

> <qc_level>
Public_High

> <Canonical_QSARr>
CCCCCCCCCCCCCCCCCCCCCCCCCC

> <InChI_Code_QSARr>
InChI=1S/C26H54/c1-3-5-7-9-11-13-15-17-19-21-23-25-26-24-22-20-18-16-14-12-10-8-6-4-2/h3-26H2,1-2H3

> <InChI Key_QSARr>
HMSWAIKSFDFLKN-UHFFFAOYSA-N

> <Salt_Solvent>


> <Salt_Solvent_ID>
0

> <MPID>
256

> <LogHalfLife>
2.0

> <Tr_1_Tst_0>
1

$$$$
100106
  Mrv171c012241912102D          

 28 27  0  0  0  0            999 V2000
    8.0617   -4.4266    0.0000 C   0  0  0  0  0  0  0  0  0  0  0  0
    7.3472   -4.8391    0.0000 C   0  0  0  0  0  0  0  0  0  0  0  0
    6.6327   -4.4266    0.0000 C   0  0  0  0  0  0  0  0  0  0  0  0
    5.9182   -4.8391    0.0000 C   0  0  0  0  0  0  0  0  0  0  0  0
    5.2038   -4.4266    0.0000 C   0  0  0  0  0  0  0  0  0  0  0  0
    4.4893   -4.8391    0.0000 C   0  0  0  0  0  0  0  0  0  0  0  0
    3.7748   -4.4266    0.0000 C   0  0  0  0  0  0  0  0  0  0  0  0
    3.0604   -4.8391    0.0000 C   0  0  0  0  0  0  0  0  0  0  0  0
    2.3459   -4.4266    0.0000 C   0  0  0  0  0  0  0  0  0  0  0  0
    1.6314   -4.8391    0.0000 C   0  0  0  0  0  0  0  0  0  0  0  0
    0.9169   -4.4266    0.0000 C   0  0  0  0  0  0  0  0  0  0  0  0
    0.2025   -4.8391    0.0000 C   0  0  0  0  0  0  0  0  0  0  0  0
   -0.5120   -4.4266    0.0000 C   0  0  0  0  0  0  0  0  0  0  0  0
   -1.2265   -4.8391    0.0000 C   0  0  0  0  0  0  0  0  0  0  0  0
    8.7761   -4.8391    0.0000 C   0  0  0  0  0  0  0  0  0  0  0  0
    9.4906   -4.4266    0.0000 C   0  0  0  0  0  0  0  0  0  0  0  0
   10.2051   -4.8391    0.0000 C   0  0  0  0  0  0  0  0  0  0  0  0
   10.9195   -4.4266    0.0000 C   0  0  0  0  0  0  0  0  0  0  0  0
   11.6340   -4.8391    0.0000 C   0  0  0  0  0  0  0  0  0  0  0  0
   12.3485   -4.4266    0.0000 C   0  0  0  0  0  0  0  0  0  0  0  0
   13.0630   -4.8391    0.0000 C   0  0  0  0  0  0  0  0  0  0  0  0
   13.7774   -4.4266    0.0000 C   0  0  0  0  0  0  0  0  0  0  0  0
   14.4919   -4.8391    0.0000 C   0  0  0  0  0  0  0  0  0  0  0  0
   15.2064   -4.4266    0.0000 C   0  0  0  0  0  0  0  0  0  0  0  0
   15.9208   -4.8391    0.0000 C   0  0  0  0  0  0  0  0  0  0  0  0
   16.6353   -4.4266    0.0000 C   0  0  0  0  0  0  0  0  0  0  0  0
   17.3498   -4.8391    0.0000 C   0  0  0  0  0  0  0  0  0  0  0  0
   18.0643   -4.4266    0.0000 C   0  0  0  0  0  0  0  0  0  0  0  0
  1  2  1  0  0  0  0
  2  3  1  0  0  0  0
  3  4  1  0  0  0  0
  4  5  1  0  0  0  0
  5  6  1  0  0  0  0
  6  7  1  0  0  0  0
  7  8  1  0  0  0  0
  8  9  1  0  0  0  0
  9 10  1  0  0  0  0
 10 11  1  0  0  0  0
 11 12  1  0  0  0  0
 12 13  1  0  0  0  0
 13 14  1  0  0  0  0
  1 15  1  0  0  0  0
 15 16  1  0  0  0  0
 16 17  1  0  0  0  0
 17 18  1  0  0  0  0
 18 19  1  0  0  0  0
 19 20  1  0  0  0  0
 20 21  1  0  0  0  0
 21 22  1  0  0  0  0
 22 23  1  0  0  0  0
 23 24  1  0  0  0  0
 24 25  1  0  0  0  0
 25 26  1  0  0  0  0
 26 27  1  0  0  0  0
 27 28  1  0  0  0  0
M  END
> <ChemID>
100106

> <CAS>
630-02-4

> <Original_SMILES>
CCCCCCCCCCCCCCCCCCCCCCCCCCCC

> <preferred_name>
Octacosane

> <dsstox_substance_id>
DTXSID6058639

> <dsstox_compound_id>
DTXCID4032326

> <qc_level>
DSSTox_Low

> <Canonical_QSARr>
CCCCCCCCCCCCCCCCCCCCCCCCCCCC

> <InChI_Code_QSARr>
InChI=1S/C28H58/c1-3-5-7-9-11-13-15-17-19-21-23-25-27-28-26-24-22-20-18-16-14-12-10-8-6-4-2/h3-28H2,1-2H3

> <InChI Key_QSARr>
ZYURHZPYMFLWSH-UHFFFAOYSA-N

> <Salt_Solvent>


> <Salt_Solvent_ID>
0

> <MPID>
257

> <LogHalfLife>
2.0969

> <Tr_1_Tst_0>
1

$$$$
100107
  Mrv171c012241912102D          

 29 28  0  0  0  0            999 V2000
   25.3725    9.6994    0.0000 C   0  0  0  0  0  0  0  0  0  0  0  0
   24.6580    9.2869    0.0000 C   0  0  0  0  0  0  0  0  0  0  0  0
   23.9435    9.6994    0.0000 C   0  0  0  0  0  0  0  0  0  0  0  0
   23.2291    9.2869    0.0000 C   0  0  0  0  0  0  0  0  0  0  0  0
   22.5146    9.6994    0.0000 C   0  0  0  0  0  0  0  0  0  0  0  0
   21.8001    9.2869    0.0000 C   0  0  0  0  0  0  0  0  0  0  0  0
   21.0856    9.6994    0.0000 C   0  0  0  0  0  0  0  0  0  0  0  0
   20.3712    9.2869    0.0000 C   0  0  0  0  0  0  0  0  0  0  0  0
   19.6567    9.6994    0.0000 C   0  0  0  0  0  0  0  0  0  0  0  0
   18.9422    9.2869    0.0000 C   0  0  0  0  0  0  0  0  0  0  0  0
   18.2278    9.6994    0.0000 C   0  0  0  0  0  0  0  0  0  0  0  0
   17.5133    9.2869    0.0000 C   0  0  0  0  0  0  0  0  0  0  0  0
   16.7988    9.6994    0.0000 C   0  0  0  0  0  0  0  0  0  0  0  0
   16.0843    9.2869    0.0000 C   0  0  0  0  0  0  0  0  0  0  0  0
   15.3699    9.6994    0.0000 C   0  0  0  0  0  0  0  0  0  0  0  0
   26.0869    9.2869    0.0000 C   0  0  0  0  0  0  0  0  0  0  0  0
   26.8014    9.6994    0.0000 C   0  0  0  0  0  0  0  0  0  0  0  0
   27.5159    9.2869    0.0000 C   0  0  0  0  0  0  0  0  0  0  0  0
   28.2304    9.6994    0.0000 C   0  0  0  0  0  0  0  0  0  0  0  0
   28.9448    9.2869    0.0000 C   0  0  0  0  0  0  0  0  0  0  0  0
   29.6593    9.6994    0.0000 C   0  0  0  0  0  0  0  0  0  0  0  0
   30.3738    9.2869    0.0000 C   0  0  0  0  0  0  0  0  0  0  0  0
   31.0882    9.6994    0.0000 C   0  0  0  0  0  0  0  0  0  0  0  0
   31.8027    9.2869    0.0000 C   0  0  0  0  0  0  0  0  0  0  0  0
   32.5172    9.6994    0.0000 C   0  0  0  0  0  0  0  0  0  0  0  0
   33.2317    9.2869    0.0000 C   0  0  0  0  0  0  0  0  0  0  0  0
   33.9461    9.6994    0.0000 C   0  0  0  0  0  0  0  0  0  0  0  0
   34.6606    9.2869    0.0000 C   0  0  0  0  0  0  0  0  0  0  0  0
   35.3751    9.6994    0.0000 C   0  0  0  0  0  0  0  0  0  0  0  0
  1  2  1  0  0  0  0
  2  3  1  0  0  0  0
  3  4  1  0  0  0  0
  4  5  1  0  0  0  0
  5  6  1  0  0  0  0
  6  7  1  0  0  0  0
  7  8  1  0  0  0  0
  8  9  1  0  0  0  0
  9 10  1  0  0  0  0
 10 11  1  0  0  0  0
 11 12  1  0  0  0  0
 12 13  1  0  0  0  0
 13 14  1  0  0  0  0
 14 15  1  0  0  0  0
  1 16  1  0  0  0  0
 16 17  1  0  0  0  0
 17 18  1  0  0  0  0
 18 19  1  0  0  0  0
 19 20  1  0  0  0  0
 20 21  1  0  0  0  0
 21 22  1  0  0  0  0
 22 23  1  0  0  0  0
 23 24  1  0  0  0  0
 24 25  1  0  0  0  0
 25 26  1  0  0  0  0
 26 27  1  0  0  0  0
 27 28  1  0  0  0  0
 28 29  1  0  0  0  0
M  END
> <ChemID>
100107

> <CAS>
630-03-5

> <Original_SMILES>
CCCCCCCCCCCCCCCCCCCCCCCCCCCCC

> <preferred_name>
Nonacosane

> <dsstox_substance_id>
DTXSID2060884

> <dsstox_compound_id>
DTXCID8043602

> <qc_level>
Public_High

> <Canonical_QSARr>
CCCCCCCCCCCCCCCCCCCCCCCCCCCCC

> <InChI_Code_QSARr>
InChI=1S/C29H60/c1-3-5-7-9-11-13-15-17-19-21-23-25-27-29-28-26-24-22-20-18-16-14-12-10-8-6-4-2/h3-29H2,1-2H3

> <InChI Key_QSARr>
IGGUPRCHHJZPBS-UHFFFAOYSA-N

> <Salt_Solvent>


> <Salt_Solvent_ID>
0

> <MPID>
258

> <LogHalfLife>
2.0

> <Tr_1_Tst_0>
0

$$$$
100108
  Mrv171c012241912102D          

 31 30  0  0  0  0            999 V2000
   27.3273   10.0025    0.0000 C   0  0  0  0  0  0  0  0  0  0  0  0
   26.6128   10.4150    0.0000 C   0  0  0  0  0  0  0  0  0  0  0  0
   25.8983   10.0025    0.0000 C   0  0  0  0  0  0  0  0  0  0  0  0
   25.1838   10.4150    0.0000 C   0  0  0  0  0  0  0  0  0  0  0  0
   24.4694   10.0025    0.0000 C   0  0  0  0  0  0  0  0  0  0  0  0
   23.7549   10.4150    0.0000 C   0  0  0  0  0  0  0  0  0  0  0  0
   23.0404   10.0025    0.0000 C   0  0  0  0  0  0  0  0  0  0  0  0
   22.3260   10.4150    0.0000 C   0  0  0  0  0  0  0  0  0  0  0  0
   21.6115   10.0025    0.0000 C   0  0  0  0  0  0  0  0  0  0  0  0
   20.8970   10.4150    0.0000 C   0  0  0  0  0  0  0  0  0  0  0  0
   20.1825   10.0025    0.0000 C   0  0  0  0  0  0  0  0  0  0  0  0
   19.4681   10.4150    0.0000 C   0  0  0  0  0  0  0  0  0  0  0  0
   18.7536   10.0025    0.0000 C   0  0  0  0  0  0  0  0  0  0  0  0
   18.0391   10.4150    0.0000 C   0  0  0  0  0  0  0  0  0  0  0  0
   17.3247   10.0025    0.0000 C   0  0  0  0  0  0  0  0  0  0  0  0
   16.6102   10.4150    0.0000 C   0  0  0  0  0  0  0  0  0  0  0  0
   28.0417   10.4150    0.0000 C   0  0  0  0  0  0  0  0  0  0  0  0
   28.7562   10.0025    0.0000 C   0  0  0  0  0  0  0  0  0  0  0  0
   29.4707   10.4150    0.0000 C   0  0  0  0  0  0  0  0  0  0  0  0
   30.1851   10.0025    0.0000 C   0  0  0  0  0  0  0  0  0  0  0  0
   30.8996   10.4150    0.0000 C   0  0  0  0  0  0  0  0  0  0  0  0
   31.6141   10.0025    0.0000 C   0  0  0  0  0  0  0  0  0  0  0  0
   32.3286   10.4150    0.0000 C   0  0  0  0  0  0  0  0  0  0  0  0
   33.0430   10.0025    0.0000 C   0  0  0  0  0  0  0  0  0  0  0  0
   33.7575   10.4150    0.0000 C   0  0  0  0  0  0  0  0  0  0  0  0
   34.4720   10.0025    0.0000 C   0  0  0  0  0  0  0  0  0  0  0  0
   35.1864   10.4150    0.0000 C   0  0  0  0  0  0  0  0  0  0  0  0
   35.9009   10.0025    0.0000 C   0  0  0  0  0  0  0  0  0  0  0  0
   36.6154   10.4150    0.0000 C   0  0  0  0  0  0  0  0  0  0  0  0
   37.3298   10.0025    0.0000 C   0  0  0  0  0  0  0  0  0  0  0  0
   38.0443   10.4150    0.0000 C   0  0  0  0  0  0  0  0  0  0  0  0
  1  2  1  0  0  0  0
  2  3  1  0  0  0  0
  3  4  1  0  0  0  0
  4  5  1  0  0  0  0
  5  6  1  0  0  0  0
  6  7  1  0  0  0  0
  7  8  1  0  0  0  0
  8  9  1  0  0  0  0
  9 10  1  0  0  0  0
 10 11  1  0  0  0  0
 11 12  1  0  0  0  0
 12 13  1  0  0  0  0
 13 14  1  0  0  0  0
 14 15  1  0  0  0  0
 15 16  1  0  0  0  0
  1 17  1  0  0  0  0
 17 18  1  0  0  0  0
 18 19  1  0  0  0  0
 19 20  1  0  0  0  0
 20 21  1  0  0  0  0
 21 22  1  0  0  0  0
 22 23  1  0  0  0  0
 23 24  1  0  0  0  0
 24 25  1  0  0  0  0
 25 26  1  0  0  0  0
 26 27  1  0  0  0  0
 27 28  1  0  0  0  0
 28 29  1  0  0  0  0
 29 30  1  0  0  0  0
 30 31  1  0  0  0  0
M  END
> <ChemID>
100108

> <CAS>
630-04-6

> <Original_SMILES>
CCCCCCCCCCCCCCCCCCCCCCCCCCCCCCC

> <preferred_name>
Hentriacontane

> <dsstox_substance_id>
DTXSID0075443

> <dsstox_compound_id>
DTXCID3043603

> <qc_level>
Public_High

> <Canonical_QSARr>
CCCCCCCCCCCCCCCCCCCCCCCCCCCCCCC

> <InChI_Code_QSARr>
InChI=1S/C31H64/c1-3-5-7-9-11-13-15-17-19-21-23-25-27-29-31-30-28-26-24-22-20-18-16-14-12-10-8-6-4-2/h3-31H2,1-2H3

> <InChI Key_QSARr>
IUJAMGNYPWYUPM-UHFFFAOYSA-N

> <Salt_Solvent>


> <Salt_Solvent_ID>
0

> <MPID>
259

> <LogHalfLife>
2.4409

> <Tr_1_Tst_0>
1

$$$$
100109
  Mrv171c012241912102D          

 33 32  0  0  0  0            999 V2000
   29.2792   11.1295    0.0000 C   0  0  0  0  0  0  0  0  0  0  0  0
   28.5648   10.7170    0.0000 C   0  0  0  0  0  0  0  0  0  0  0  0
   27.8503   11.1295    0.0000 C   0  0  0  0  0  0  0  0  0  0  0  0
   27.1358   10.7170    0.0000 C   0  0  0  0  0  0  0  0  0  0  0  0
   26.4213   11.1295    0.0000 C   0  0  0  0  0  0  0  0  0  0  0  0
   25.7069   10.7170    0.0000 C   0  0  0  0  0  0  0  0  0  0  0  0
   24.9924   11.1295    0.0000 C   0  0  0  0  0  0  0  0  0  0  0  0
   24.2779   10.7170    0.0000 C   0  0  0  0  0  0  0  0  0  0  0  0
   23.5635   11.1295    0.0000 C   0  0  0  0  0  0  0  0  0  0  0  0
   22.8490   10.7170    0.0000 C   0  0  0  0  0  0  0  0  0  0  0  0
   22.1345   11.1295    0.0000 C   0  0  0  0  0  0  0  0  0  0  0  0
   21.4201   10.7170    0.0000 C   0  0  0  0  0  0  0  0  0  0  0  0
   20.7056   11.1295    0.0000 C   0  0  0  0  0  0  0  0  0  0  0  0
   19.9911   10.7170    0.0000 C   0  0  0  0  0  0  0  0  0  0  0  0
   19.2766   11.1295    0.0000 C   0  0  0  0  0  0  0  0  0  0  0  0
   18.5622   10.7170    0.0000 C   0  0  0  0  0  0  0  0  0  0  0  0
   17.8477   11.1295    0.0000 C   0  0  0  0  0  0  0  0  0  0  0  0
   29.9937   10.7170    0.0000 C   0  0  0  0  0  0  0  0  0  0  0  0
   30.7082   11.1295    0.0000 C   0  0  0  0  0  0  0  0  0  0  0  0
   31.4226   10.7170    0.0000 C   0  0  0  0  0  0  0  0  0  0  0  0
   32.1371   11.1295    0.0000 C   0  0  0  0  0  0  0  0  0  0  0  0
   32.8516   10.7170    0.0000 C   0  0  0  0  0  0  0  0  0  0  0  0
   33.5661   11.1295    0.0000 C   0  0  0  0  0  0  0  0  0  0  0  0
   34.2805   10.7170    0.0000 C   0  0  0  0  0  0  0  0  0  0  0  0
   34.9950   11.1295    0.0000 C   0  0  0  0  0  0  0  0  0  0  0  0
   35.7095   10.7170    0.0000 C   0  0  0  0  0  0  0  0  0  0  0  0
   36.4239   11.1295    0.0000 C   0  0  0  0  0  0  0  0  0  0  0  0
   37.1384   10.7170    0.0000 C   0  0  0  0  0  0  0  0  0  0  0  0
   37.8529   11.1295    0.0000 C   0  0  0  0  0  0  0  0  0  0  0  0
   38.5674   10.7170    0.0000 C   0  0  0  0  0  0  0  0  0  0  0  0
   39.2818   11.1295    0.0000 C   0  0  0  0  0  0  0  0  0  0  0  0
   39.9963   10.7170    0.0000 C   0  0  0  0  0  0  0  0  0  0  0  0
   40.7108   11.1295    0.0000 C   0  0  0  0  0  0  0  0  0  0  0  0
  1  2  1  0  0  0  0
  2  3  1  0  0  0  0
  3  4  1  0  0  0  0
  4  5  1  0  0  0  0
  5  6  1  0  0  0  0
  6  7  1  0  0  0  0
  7  8  1  0  0  0  0
  8  9  1  0  0  0  0
  9 10  1  0  0  0  0
 10 11  1  0  0  0  0
 11 12  1  0  0  0  0
 12 13  1  0  0  0  0
 13 14  1  0  0  0  0
 14 15  1  0  0  0  0
 15 16  1  0  0  0  0
 16 17  1  0  0  0  0
  1 18  1  0  0  0  0
 18 19  1  0  0  0  0
 19 20  1  0  0  0  0
 20 21  1  0  0  0  0
 21 22  1  0  0  0  0
 22 23  1  0  0  0  0
 23 24  1  0  0  0  0
 24 25  1  0  0  0  0
 25 26  1  0  0  0  0
 26 27  1  0  0  0  0
 27 28  1  0  0  0  0
 28 29  1  0  0  0  0
 29 30  1  0  0  0  0
 30 31  1  0  0  0  0
 31 32  1  0  0  0  0
 32 33  1  0  0  0  0
M  END
> <ChemID>
100109

> <CAS>
630-05-7

> <Original_SMILES>
CCCCCCCCCCCCCCCCCCCCCCCCCCCCCCCCC

> <preferred_name>
Tritriacontane

> <dsstox_substance_id>
DTXSID5075444

> <dsstox_compound_id>
DTXCID8043604

> <qc_level>
Public_High

> <Canonical_QSARr>
CCCCCCCCCCCCCCCCCCCCCCCCCCCCCCCCC

> <InChI_Code_QSARr>
InChI=1S/C33H68/c1-3-5-7-9-11-13-15-17-19-21-23-25-27-29-31-33-32-30-28-26-24-22-20-18-16-14-12-10-8-6-4-2/h3-33H2,1-2H3

> <InChI Key_QSARr>
SUJUOAZFECLBOA-UHFFFAOYSA-N

> <Salt_Solvent>


> <Salt_Solvent_ID>
0

> <MPID>
260

> <LogHalfLife>
2.5599

> <Tr_1_Tst_0>
1

$$$$
100111
  Mrv171c012241912102D          

 23 22  0  0  0  0            999 V2000
    0.0011   -0.0242    0.0000 C   0  0  0  0  0  0  0  0  0  0  0  0
    0.7156   -0.4367    0.0000 C   0  0  0  0  0  0  0  0  0  0  0  0
    1.4301   -0.0242    0.0000 C   0  0  0  0  0  0  0  0  0  0  0  0
    2.1445   -0.4367    0.0000 C   0  0  0  0  0  0  0  0  0  0  0  0
    2.8590   -0.0242    0.0000 C   0  0  0  0  0  0  0  0  0  0  0  0
    3.5735   -0.4367    0.0000 C   0  0  0  0  0  0  0  0  0  0  0  0
    4.2880   -0.0242    0.0000 C   0  0  0  0  0  0  0  0  0  0  0  0
    5.0024   -0.4367    0.0000 C   0  0  0  0  0  0  0  0  0  0  0  0
    5.7169   -0.0242    0.0000 C   0  0  0  0  0  0  0  0  0  0  0  0
    6.4314   -0.4367    0.0000 C   0  0  0  0  0  0  0  0  0  0  0  0
    7.1458   -0.0242    0.0000 C   0  0  0  0  0  0  0  0  0  0  0  0
    7.8603   -0.4367    0.0000 C   0  0  0  0  0  0  0  0  0  0  0  0
    8.5748   -0.0242    0.0000 C   0  0  0  0  0  0  0  0  0  0  0  0
    9.2892   -0.4367    0.0000 C   0  0  0  0  0  0  0  0  0  0  0  0
   10.0037   -0.0242    0.0000 C   0  0  0  0  0  0  0  0  0  0  0  0
   10.7182   -0.4367    0.0000 C   0  0  0  0  0  0  0  0  0  0  0  0
   11.4327   -0.0242    0.0000 C   0  0  0  0  0  0  0  0  0  0  0  0
   12.1471   -0.4367    0.0000 C   0  0  0  0  0  0  0  0  0  0  0  0
   12.8616   -0.0242    0.0000 C   0  0  0  0  0  0  0  0  0  0  0  0
   13.5761   -0.4367    0.0000 C   0  0  0  0  0  0  0  0  0  0  0  0
   14.2905   -0.0242    0.0000 C   0  0  0  0  0  0  0  0  0  0  0  0
   15.0050   -0.4367    0.0000 C   0  0  0  0  0  0  0  0  0  0  0  0
   15.7195   -0.0242    0.0000 C   0  0  0  0  0  0  0  0  0  0  0  0
  1  2  1  0  0  0  0
  2  3  1  0  0  0  0
  3  4  1  0  0  0  0
  4  5  1  0  0  0  0
  5  6  1  0  0  0  0
  6  7  1  0  0  0  0
  7  8  1  0  0  0  0
  8  9  1  0  0  0  0
  9 10  1  0  0  0  0
 10 11  1  0  0  0  0
 11 12  1  0  0  0  0
 12 13  1  0  0  0  0
 13 14  1  0  0  0  0
 14 15  1  0  0  0  0
 15 16  1  0  0  0  0
 16 17  1  0  0  0  0
 17 18  1  0  0  0  0
 18 19  1  0  0  0  0
 19 20  1  0  0  0  0
 20 21  1  0  0  0  0
 21 22  1  0  0  0  0
 22 23  1  0  0  0  0
M  END
> <ChemID>
100111

> <CAS>
638-67-5

> <Original_SMILES>
CCCCCCCCCCCCCCCCCCCCCCC

> <preferred_name>
Tricosane

> <dsstox_substance_id>
DTXSID7047699

> <dsstox_compound_id>
DTXCID5027697

> <qc_level>
DSSTox_Low

> <Canonical_QSARr>
CCCCCCCCCCCCCCCCCCCCCCC

> <InChI_Code_QSARr>
InChI=1S/C23H48/c1-3-5-7-9-11-13-15-17-19-21-23-22-20-18-16-14-12-10-8-6-4-2/h3-23H2,1-2H3

> <InChI Key_QSARr>
FIGVVZUWCLSUEI-UHFFFAOYSA-N

> <Salt_Solvent>


> <Salt_Solvent_ID>
0

> <MPID>
261

> <LogHalfLife>
2.1614

> <Tr_1_Tst_0>
1

$$$$
100112
  Mrv171c012241912102D          

 30 29  0  0  0  0            999 V2000
   24.6594    9.2875    0.0000 C   0  0  0  0  0  0  0  0  0  0  0  0
   23.9450    9.7000    0.0000 C   0  0  0  0  0  0  0  0  0  0  0  0
   23.2305    9.2875    0.0000 C   0  0  0  0  0  0  0  0  0  0  0  0
   22.5160    9.7000    0.0000 C   0  0  0  0  0  0  0  0  0  0  0  0
   21.8016    9.2875    0.0000 C   0  0  0  0  0  0  0  0  0  0  0  0
   21.0871    9.7000    0.0000 C   0  0  0  0  0  0  0  0  0  0  0  0
   20.3726    9.2875    0.0000 C   0  0  0  0  0  0  0  0  0  0  0  0
   19.6581    9.7000    0.0000 C   0  0  0  0  0  0  0  0  0  0  0  0
   18.9437    9.2875    0.0000 C   0  0  0  0  0  0  0  0  0  0  0  0
   18.2292    9.7000    0.0000 C   0  0  0  0  0  0  0  0  0  0  0  0
   17.5147    9.2875    0.0000 C   0  0  0  0  0  0  0  0  0  0  0  0
   16.8003    9.7000    0.0000 C   0  0  0  0  0  0  0  0  0  0  0  0
   16.0858    9.2875    0.0000 C   0  0  0  0  0  0  0  0  0  0  0  0
   15.3713    9.7000    0.0000 C   0  0  0  0  0  0  0  0  0  0  0  0
   14.6569    9.2875    0.0000 C   0  0  0  0  0  0  0  0  0  0  0  0
   25.3739    9.7000    0.0000 C   0  0  0  0  0  0  0  0  0  0  0  0
   26.0884    9.2875    0.0000 C   0  0  0  0  0  0  0  0  0  0  0  0
   26.8029    9.7000    0.0000 C   0  0  0  0  0  0  0  0  0  0  0  0
   27.5173    9.2875    0.0000 C   0  0  0  0  0  0  0  0  0  0  0  0
   28.2318    9.7000    0.0000 C   0  0  0  0  0  0  0  0  0  0  0  0
   28.9463    9.2875    0.0000 C   0  0  0  0  0  0  0  0  0  0  0  0
   29.6607    9.7000    0.0000 C   0  0  0  0  0  0  0  0  0  0  0  0
   30.3752    9.2875    0.0000 C   0  0  0  0  0  0  0  0  0  0  0  0
   31.0897    9.7000    0.0000 C   0  0  0  0  0  0  0  0  0  0  0  0
   31.8042    9.2875    0.0000 C   0  0  0  0  0  0  0  0  0  0  0  0
   32.5186    9.7000    0.0000 C   0  0  0  0  0  0  0  0  0  0  0  0
   33.2331    9.2875    0.0000 C   0  0  0  0  0  0  0  0  0  0  0  0
   33.9476    9.7000    0.0000 C   0  0  0  0  0  0  0  0  0  0  0  0
   34.6620    9.2875    0.0000 C   0  0  0  0  0  0  0  0  0  0  0  0
   35.3765    9.7000    0.0000 C   0  0  0  0  0  0  0  0  0  0  0  0
  1  2  1  0  0  0  0
  2  3  1  0  0  0  0
  3  4  1  0  0  0  0
  4  5  1  0  0  0  0
  5  6  1  0  0  0  0
  6  7  1  0  0  0  0
  7  8  1  0  0  0  0
  8  9  1  0  0  0  0
  9 10  1  0  0  0  0
 10 11  1  0  0  0  0
 11 12  1  0  0  0  0
 12 13  1  0  0  0  0
 13 14  1  0  0  0  0
 14 15  1  0  0  0  0
  1 16  1  0  0  0  0
 16 17  1  0  0  0  0
 17 18  1  0  0  0  0
 18 19  1  0  0  0  0
 19 20  1  0  0  0  0
 20 21  1  0  0  0  0
 21 22  1  0  0  0  0
 22 23  1  0  0  0  0
 23 24  1  0  0  0  0
 24 25  1  0  0  0  0
 25 26  1  0  0  0  0
 26 27  1  0  0  0  0
 27 28  1  0  0  0  0
 28 29  1  0  0  0  0
 29 30  1  0  0  0  0
M  END
> <ChemID>
100112

> <CAS>
638-68-6

> <Original_SMILES>
CCCCCCCCCCCCCCCCCCCCCCCCCCCCCC

> <preferred_name>
Triacontane

> <dsstox_substance_id>
DTXSID0060935

> <dsstox_compound_id>
DTXCID9044110

> <qc_level>
Public_High

> <Canonical_QSARr>
CCCCCCCCCCCCCCCCCCCCCCCCCCCCCC

> <InChI_Code_QSARr>
InChI=1S/C30H62/c1-3-5-7-9-11-13-15-17-19-21-23-25-27-29-30-28-26-24-22-20-18-16-14-12-10-8-6-4-2/h3-30H2,1-2H3

> <InChI Key_QSARr>
JXTPJDDICSTXJX-UHFFFAOYSA-N

> <Salt_Solvent>


> <Salt_Solvent_ID>
0

> <MPID>
262

> <LogHalfLife>
2.243

> <Tr_1_Tst_0>
0

$$$$
100113
  Mrv171c012241912102D          

 13 14  0  0  0  0            999 V2000
    3.0064   -1.3212    0.0000 C   0  0  0  0  0  0  0  0  0  0  0  0
    2.2919   -0.9087    0.0000 C   0  0  0  0  0  0  0  0  0  0  0  0
    2.2919   -0.0837    0.0000 C   0  0  0  0  0  0  0  0  0  0  0  0
    3.0064    0.3288    0.0000 C   0  0  0  0  0  0  0  0  0  0  0  0
    3.0064    1.1538    0.0000 C   0  0  0  0  0  0  0  0  0  0  0  0
    2.2919    1.5663    0.0000 C   0  0  0  0  0  0  0  0  0  0  0  0
    1.5774    1.1538    0.0000 C   0  0  0  0  0  0  0  0  0  0  0  0
    1.5774    0.3288    0.0000 C   0  0  0  0  0  0  0  0  0  0  0  0
    1.5774   -1.3212    0.0000 C   0  0  0  0  0  0  0  0  0  0  0  0
    1.5774   -2.1462    0.0000 C   0  0  0  0  0  0  0  0  0  0  0  0
    2.2919   -2.5587    0.0000 C   0  0  0  0  0  0  0  0  0  0  0  0
    2.2919   -3.3837    0.0000 C   0  0  0  0  0  0  0  0  0  0  0  0
    3.0064   -2.1462    0.0000 C   0  0  0  0  0  0  0  0  0  0  0  0
  2  1  1  0  0  0  0
  2  3  1  0  0  0  0
  4  3  1  0  0  0  0
  5  4  2  0  0  0  0
  6  5  1  0  0  0  0
  7  6  2  0  0  0  0
  8  7  1  0  0  0  0
  3  8  2  0  0  0  0
  9  2  2  0  0  0  0
 10  9  1  0  0  0  0
 11 10  2  0  0  0  0
 11 12  1  0  0  0  0
 13 11  1  0  0  0  0
  1 13  2  0  0  0  0
M  END
> <ChemID>
100113

> <CAS>
644-08-6

> <Original_SMILES>
Cc1ccc(cc1)-c1ccccc1

> <preferred_name>
4-Phenyltoluene

> <dsstox_substance_id>
DTXSID4047177

> <dsstox_compound_id>
DTXCID2027177

> <qc_level>
DSSTox_Low

> <Canonical_QSARr>
CC1C=CC(=CC=1)C1C=CC=CC=1

> <InChI_Code_QSARr>
InChI=1S/C13H12/c1-11-7-9-13(10-8-11)12-5-3-2-4-6-12/h2-10H,1H3

> <InChI Key_QSARr>
ZZLCFHIKESPLTH-UHFFFAOYSA-N

> <Salt_Solvent>


> <Salt_Solvent_ID>
0

> <MPID>
263

> <LogHalfLife>
1.5798

> <Tr_1_Tst_0>
1

$$$$
100114
  Mrv171c012241912102D          

 24 23  0  0  0  0            999 V2000
   18.8072    7.5580    0.0000 C   0  0  0  0  0  0  0  0  0  0  0  0
   18.0927    7.1455    0.0000 C   0  0  0  0  0  0  0  0  0  0  0  0
   17.3782    7.5580    0.0000 C   0  0  0  0  0  0  0  0  0  0  0  0
   16.6638    7.1455    0.0000 C   0  0  0  0  0  0  0  0  0  0  0  0
   15.9493    7.5580    0.0000 C   0  0  0  0  0  0  0  0  0  0  0  0
   15.2348    7.1455    0.0000 C   0  0  0  0  0  0  0  0  0  0  0  0
   14.5203    7.5580    0.0000 C   0  0  0  0  0  0  0  0  0  0  0  0
   13.8059    7.1455    0.0000 C   0  0  0  0  0  0  0  0  0  0  0  0
   13.0914    7.5580    0.0000 C   0  0  0  0  0  0  0  0  0  0  0  0
   12.3769    7.1455    0.0000 C   0  0  0  0  0  0  0  0  0  0  0  0
   11.6625    7.5580    0.0000 C   0  0  0  0  0  0  0  0  0  0  0  0
   10.9480    7.1455    0.0000 C   0  0  0  0  0  0  0  0  0  0  0  0
   19.5216    7.1455    0.0000 C   0  0  0  0  0  0  0  0  0  0  0  0
   20.2361    7.5580    0.0000 C   0  0  0  0  0  0  0  0  0  0  0  0
   20.9506    7.1455    0.0000 C   0  0  0  0  0  0  0  0  0  0  0  0
   21.6650    7.5580    0.0000 C   0  0  0  0  0  0  0  0  0  0  0  0
   22.3795    7.1455    0.0000 C   0  0  0  0  0  0  0  0  0  0  0  0
   23.0940    7.5580    0.0000 C   0  0  0  0  0  0  0  0  0  0  0  0
   23.8085    7.1455    0.0000 C   0  0  0  0  0  0  0  0  0  0  0  0
   24.5229    7.5580    0.0000 C   0  0  0  0  0  0  0  0  0  0  0  0
   25.2374    7.1455    0.0000 C   0  0  0  0  0  0  0  0  0  0  0  0
   25.9519    7.5580    0.0000 C   0  0  0  0  0  0  0  0  0  0  0  0
   26.6663    7.1455    0.0000 C   0  0  0  0  0  0  0  0  0  0  0  0
   27.3808    7.5580    0.0000 C   0  0  0  0  0  0  0  0  0  0  0  0
  1  2  1  0  0  0  0
  2  3  1  0  0  0  0
  3  4  1  0  0  0  0
  4  5  1  0  0  0  0
  5  6  1  0  0  0  0
  6  7  1  0  0  0  0
  7  8  1  0  0  0  0
  8  9  1  0  0  0  0
  9 10  1  0  0  0  0
 10 11  1  0  0  0  0
 11 12  1  0  0  0  0
  1 13  1  0  0  0  0
 13 14  1  0  0  0  0
 14 15  1  0  0  0  0
 15 16  1  0  0  0  0
 16 17  1  0  0  0  0
 17 18  1  0  0  0  0
 18 19  1  0  0  0  0
 19 20  1  0  0  0  0
 20 21  1  0  0  0  0
 21 22  1  0  0  0  0
 22 23  1  0  0  0  0
 23 24  1  0  0  0  0
M  END
> <ChemID>
100114

> <CAS>
646-31-1

> <Original_SMILES>
CCCCCCCCCCCCCCCCCCCCCCCC

> <preferred_name>
Tetracosane

> <dsstox_substance_id>
DTXSID8060955

> <dsstox_compound_id>
DTXCID7044346

> <qc_level>
Public_High

> <Canonical_QSARr>
CCCCCCCCCCCCCCCCCCCCCCCC

> <InChI_Code_QSARr>
InChI=1S/C24H50/c1-3-5-7-9-11-13-15-17-19-21-23-24-22-20-18-16-14-12-10-8-6-4-2/h3-24H2,1-2H3

> <InChI Key_QSARr>
POOSGDOYLQNASK-UHFFFAOYSA-N

> <Salt_Solvent>


> <Salt_Solvent_ID>
0

> <MPID>
264

> <LogHalfLife>
2.0569

> <Tr_1_Tst_0>
1

$$$$
100115
  Mrv171c012241912102D          

 10 11  0  0  0  0            999 V2000
    2.9956   -0.7244    0.0000 C   0  0  0  0  0  0  0  0  0  0  0  0
    3.7100   -1.1369    0.0000 C   0  0  0  0  0  0  0  0  0  0  0  0
    4.4245   -0.7244    0.0000 C   0  0  0  0  0  0  0  0  0  0  0  0
    4.4245    0.1006    0.0000 C   0  0  0  0  0  0  0  0  0  0  0  0
    3.7100    0.5131    0.0000 C   0  0  0  0  0  0  0  0  0  0  0  0
    2.9956    0.1006    0.0000 C   0  0  0  0  0  0  0  0  0  0  0  0
    2.2109    0.3555    0.0000 C   0  0  0  0  0  0  0  0  0  0  0  0
    1.9560    1.1401    0.0000 C   0  0  0  0  0  0  0  0  0  0  0  0
    1.7260   -0.3119    0.0000 C   0  0  0  0  0  0  0  0  0  0  0  0
    2.2109   -0.9794    0.0000 C   0  0  0  0  0  0  0  0  0  0  0  0
  2  1  2  0  0  0  0
  3  2  1  0  0  0  0
  4  3  2  0  0  0  0
  5  4  1  0  0  0  0
  6  5  2  0  0  0  0
  6  1  1  0  0  0  0
  7  6  1  0  0  0  0
  7  8  1  0  0  0  0
  9  7  2  0  0  0  0
 10  9  1  0  0  0  0
  1 10  1  0  0  0  0
M  END
> <ChemID>
100115

> <CAS>
767-60-2

> <Original_SMILES>
CC1=CCc2ccccc21

> <preferred_name>
3-Methylindene

> <dsstox_substance_id>
DTXSID40227496

> <dsstox_compound_id>
DTXCID40149987

> <qc_level>
Public_Medium

> <Canonical_QSARr>
CC1=CCC2=CC=CC=C21

> <InChI_Code_QSARr>
InChI=1S/C10H10/c1-8-6-7-9-4-2-3-5-10(8)9/h2-6H,7H2,1H3

> <InChI Key_QSARr>
COOKKJGOGWACMY-UHFFFAOYSA-N

> <Salt_Solvent>


> <Salt_Solvent_ID>
0

> <MPID>
265

> <LogHalfLife>
0.4771

> <Tr_1_Tst_0>
1

$$$$
100116
  Mrv171c012241912102D          

 15 17  0  0  0  0            999 V2000
    2.8579   -0.2200    0.0000 C   0  0  0  0  0  0  0  0  0  0  0  0
    3.5724   -0.6325    0.0000 C   0  0  0  0  0  0  0  0  0  0  0  0
    4.2868   -0.2200    0.0000 C   0  0  0  0  0  0  0  0  0  0  0  0
    4.2868    0.6050    0.0000 C   0  0  0  0  0  0  0  0  0  0  0  0
    3.5724    1.0175    0.0000 C   0  0  0  0  0  0  0  0  0  0  0  0
    2.8579    0.6050    0.0000 C   0  0  0  0  0  0  0  0  0  0  0  0
    2.1434    1.0175    0.0000 C   0  0  0  0  0  0  0  0  0  0  0  0
    2.1434    1.8425    0.0000 C   0  0  0  0  0  0  0  0  0  0  0  0
    1.4289    0.6050    0.0000 C   0  0  0  0  0  0  0  0  0  0  0  0
    1.4289   -0.2200    0.0000 C   0  0  0  0  0  0  0  0  0  0  0  0
    0.7145   -0.6325    0.0000 C   0  0  0  0  0  0  0  0  0  0  0  0
    0.0000   -0.2200    0.0000 C   0  0  0  0  0  0  0  0  0  0  0  0
    0.0000    0.6050    0.0000 C   0  0  0  0  0  0  0  0  0  0  0  0
    0.7145    1.0175    0.0000 C   0  0  0  0  0  0  0  0  0  0  0  0
    2.1434   -0.6325    0.0000 C   0  0  0  0  0  0  0  0  0  0  0  0
  2  1  1  0  0  0  0
  3  2  2  0  0  0  0
  4  3  1  0  0  0  0
  5  4  2  0  0  0  0
  6  5  1  0  0  0  0
  6  1  1  0  0  0  0
  7  6  2  0  0  0  0
  7  8  1  0  0  0  0
  9  7  1  0  0  0  0
  9 10  1  0  0  0  0
 10 11  2  0  0  0  0
 11 12  1  0  0  0  0
 12 13  2  0  0  0  0
 13 14  1  0  0  0  0
 14  9  2  0  0  0  0
 15 10  1  0  0  0  0
  1 15  2  0  0  0  0
M  END
> <ChemID>
100116

> <CAS>
779-02-2

> <Original_SMILES>
Cc1c2ccccc2cc2ccccc21

> <preferred_name>
9-Methylanthracene

> <dsstox_substance_id>
DTXSID3061134

> <dsstox_compound_id>
DTXCID2048080

> <qc_level>
Public_High

> <Canonical_QSARr>
CC1C2=CC=CC=C2C=C2C=CC=CC2=1

> <InChI_Code_QSARr>
InChI=1S/C15H12/c1-11-14-8-4-2-6-12(14)10-13-7-3-5-9-15(11)13/h2-10H,1H3

> <InChI Key_QSARr>
CPGPAVAKSZHMBP-UHFFFAOYSA-N

> <Salt_Solvent>


> <Salt_Solvent_ID>
0

> <MPID>
266

> <LogHalfLife>
2.415

> <Tr_1_Tst_0>
0

$$$$
100117
  Mrv171c012241912102D          

 10 11  0  0  0  0            999 V2000
    0.6411   -0.6154    0.0000 C   0  0  0  0  0  0  0  0  0  0  0  0
   -0.1435   -0.3604    0.0000 C   0  0  0  0  0  0  0  0  0  0  0  0
   -0.6284   -1.0279    0.0000 C   0  0  0  0  0  0  0  0  0  0  0  0
   -0.1435   -1.6953    0.0000 C   0  0  0  0  0  0  0  0  0  0  0  0
    0.6411   -1.4404    0.0000 C   0  0  0  0  0  0  0  0  0  0  0  0
    1.3556   -1.8529    0.0000 C   0  0  0  0  0  0  0  0  0  0  0  0
    2.0701   -1.4404    0.0000 C   0  0  0  0  0  0  0  0  0  0  0  0
    2.0701   -0.6154    0.0000 C   0  0  0  0  0  0  0  0  0  0  0  0
    1.3556   -0.2029    0.0000 C   0  0  0  0  0  0  0  0  0  0  0  0
    1.3556    0.6221    0.0000 C   0  0  0  0  0  0  0  0  0  0  0  0
  2  1  1  0  0  0  0
  3  2  1  0  0  0  0
  4  3  1  0  0  0  0
  5  4  1  0  0  0  0
  5  1  2  0  0  0  0
  6  5  1  0  0  0  0
  7  6  2  0  0  0  0
  8  7  1  0  0  0  0
  9  8  2  0  0  0  0
  1  9  1  0  0  0  0
  9 10  1  0  0  0  0
M  END
> <ChemID>
100117

> <CAS>
824-22-6

> <Original_SMILES>
Cc1cccc2CCCc21

> <preferred_name>
4-Methylindan

> <dsstox_substance_id>
DTXSID7073931

> <dsstox_compound_id>
DTXCID7048293

> <qc_level>
Public_High

> <Canonical_QSARr>
CC1=CC=CC2CCCC=21

> <InChI_Code_QSARr>
InChI=1S/C10H12/c1-8-4-2-5-9-6-3-7-10(8)9/h2,4-5H,3,6-7H2,1H3

> <InChI Key_QSARr>
LNNSODHYZXCEJP-UHFFFAOYSA-N

> <Salt_Solvent>


> <Salt_Solvent_ID>
0

> <MPID>
267

> <LogHalfLife>
0.301

> <Tr_1_Tst_0>
1

$$$$
100118
  Mrv171c012241912102D          

 15 17  0  0  0  0            999 V2000
   -0.2749   -0.8594    0.0000 C   0  0  0  0  0  0  0  0  0  0  0  0
    0.1376   -1.5738    0.0000 C   0  0  0  0  0  0  0  0  0  0  0  0
    0.9626   -1.5738    0.0000 C   0  0  0  0  0  0  0  0  0  0  0  0
    1.3751   -2.2883    0.0000 C   0  0  0  0  0  0  0  0  0  0  0  0
    2.2001   -2.2883    0.0000 C   0  0  0  0  0  0  0  0  0  0  0  0
    2.6126   -1.5738    0.0000 C   0  0  0  0  0  0  0  0  0  0  0  0
    3.4376   -1.5738    0.0000 C   0  0  0  0  0  0  0  0  0  0  0  0
    3.8501   -2.2883    0.0000 C   0  0  0  0  0  0  0  0  0  0  0  0
    3.8501   -0.8594    0.0000 C   0  0  0  0  0  0  0  0  0  0  0  0
    3.4376   -0.1449    0.0000 C   0  0  0  0  0  0  0  0  0  0  0  0
    2.6126   -0.1449    0.0000 C   0  0  0  0  0  0  0  0  0  0  0  0
    2.2001   -0.8594    0.0000 C   0  0  0  0  0  0  0  0  0  0  0  0
    1.3751   -0.8594    0.0000 C   0  0  0  0  0  0  0  0  0  0  0  0
    0.9626   -0.1449    0.0000 C   0  0  0  0  0  0  0  0  0  0  0  0
    0.1376   -0.1449    0.0000 C   0  0  0  0  0  0  0  0  0  0  0  0
  2  1  1  0  0  0  0
  3  2  2  0  0  0  0
  3  4  1  0  0  0  0
  4  5  2  0  0  0  0
  5  6  1  0  0  0  0
  7  6  2  0  0  0  0
  7  8  1  0  0  0  0
  9  7  1  0  0  0  0
 10  9  2  0  0  0  0
 11 10  1  0  0  0  0
 12 11  2  0  0  0  0
  6 12  1  0  0  0  0
 12 13  1  0  0  0  0
 13  3  1  0  0  0  0
 14 13  2  0  0  0  0
 15 14  1  0  0  0  0
  1 15  2  0  0  0  0
M  END
> <ChemID>
100118

> <CAS>
832-69-9

> <Original_SMILES>
Cc1cccc2c3ccccc3ccc21

> <preferred_name>
1-Methyl phenanthrene

> <dsstox_substance_id>
DTXSID6025648

> <dsstox_compound_id>
DTXCID105648

> <qc_level>
DSSTox_Low

> <Canonical_QSARr>
CC1C=CC=C2C3=CC=CC=C3C=CC2=1

> <InChI_Code_QSARr>
InChI=1S/C15H12/c1-11-5-4-8-15-13(11)10-9-12-6-2-3-7-14(12)15/h2-10H,1H3

> <InChI Key_QSARr>
DOWJXOHBNXRUOD-UHFFFAOYSA-N

> <Salt_Solvent>


> <Salt_Solvent_ID>
0

> <MPID>
268

> <LogHalfLife>
1.3617

> <Tr_1_Tst_0>
1

$$$$
100119
  Mrv171c012241912102D          

 10 11  0  0  0  0            999 V2000
    0.6411   -0.1204    0.0000 C   0  0  0  0  0  0  0  0  0  0  0  0
   -0.1435    0.1346    0.0000 C   0  0  0  0  0  0  0  0  0  0  0  0
   -0.6284   -0.5329    0.0000 C   0  0  0  0  0  0  0  0  0  0  0  0
   -0.1435   -1.2003    0.0000 C   0  0  0  0  0  0  0  0  0  0  0  0
    0.6411   -0.9454    0.0000 C   0  0  0  0  0  0  0  0  0  0  0  0
    1.3556   -1.3579    0.0000 C   0  0  0  0  0  0  0  0  0  0  0  0
    2.0701   -0.9454    0.0000 C   0  0  0  0  0  0  0  0  0  0  0  0
    2.7845   -1.3579    0.0000 C   0  0  0  0  0  0  0  0  0  0  0  0
    2.0701   -0.1204    0.0000 C   0  0  0  0  0  0  0  0  0  0  0  0
    1.3556    0.2921    0.0000 C   0  0  0  0  0  0  0  0  0  0  0  0
  2  1  1  0  0  0  0
  3  2  1  0  0  0  0
  4  3  1  0  0  0  0
  5  4  1  0  0  0  0
  5  1  2  0  0  0  0
  6  5  1  0  0  0  0
  7  6  2  0  0  0  0
  7  8  1  0  0  0  0
  9  7  1  0  0  0  0
 10  9  2  0  0  0  0
  1 10  1  0  0  0  0
M  END
> <ChemID>
100119

> <CAS>
874-35-1

> <Original_SMILES>
Cc1cc2CCCc2cc1

> <preferred_name>
5-Methylindan

> <dsstox_substance_id>
DTXSID5061245

> <dsstox_compound_id>
DTXCID2048585

> <qc_level>
Public_High

> <Canonical_QSARr>
CC1=CC2CCCC=2C=C1

> <InChI_Code_QSARr>
InChI=1S/C10H12/c1-8-5-6-9-3-2-4-10(9)7-8/h5-7H,2-4H2,1H3

> <InChI Key_QSARr>
RFXBCGVZEJEYGG-UHFFFAOYSA-N

> <Salt_Solvent>


> <Salt_Solvent_ID>
0

> <MPID>
269

> <LogHalfLife>
0.301

> <Tr_1_Tst_0>
1

$$$$
100120
  Mrv171c012241912102D          

 10 10  0  0  0  0            999 V2000
    1.0003    0.1650    0.0000 C   0  0  0  0  0  0  0  0  0  0  0  0
    1.0003   -0.6600    0.0000 C   0  0  0  0  0  0  0  0  0  0  0  0
    0.2858   -1.0725    0.0000 C   0  0  0  0  0  0  0  0  0  0  0  0
    1.7147    0.5775    0.0000 C   0  0  0  0  0  0  0  0  0  0  0  0
    1.7147    1.4025    0.0000 C   0  0  0  0  0  0  0  0  0  0  0  0
    1.0003    1.8150    0.0000 C   0  0  0  0  0  0  0  0  0  0  0  0
    1.0003    2.6400    0.0000 C   0  0  0  0  0  0  0  0  0  0  0  0
    0.2858    1.4025    0.0000 C   0  0  0  0  0  0  0  0  0  0  0  0
    0.2858    0.5775    0.0000 C   0  0  0  0  0  0  0  0  0  0  0  0
   -0.4287    0.1650    0.0000 C   0  0  0  0  0  0  0  0  0  0  0  0
  1  2  1  0  0  0  0
  2  3  1  0  0  0  0
  4  1  1  0  0  0  0
  5  4  2  0  0  0  0
  6  5  1  0  0  0  0
  6  7  1  0  0  0  0
  8  6  2  0  0  0  0
  9  8  1  0  0  0  0
  1  9  2  0  0  0  0
  9 10  1  0  0  0  0
M  END
> <ChemID>
100120

> <CAS>
874-41-9

> <Original_SMILES>
CCc1ccc(C)cc1C

> <preferred_name>
1,3-Dimethyl-4-ethylbenzene

> <dsstox_substance_id>
DTXSID0061246

> <dsstox_compound_id>
DTXCID7048586

> <qc_level>
Public_High

> <Canonical_QSARr>
CCC1C=CC(C)=CC=1C

> <InChI_Code_QSARr>
InChI=1S/C10H14/c1-4-10-6-5-8(2)7-9(10)3/h5-7H,4H2,1-3H3

> <InChI Key_QSARr>
MEMBJMDZWKVOTB-UHFFFAOYSA-N

> <Salt_Solvent>


> <Salt_Solvent_ID>
0

> <MPID>
270

> <LogHalfLife>
0.6021

> <Tr_1_Tst_0>
0

$$$$
100121
  Mrv171c012241912102D          

 10 10  0  0  0  0            999 V2000
    2.6275   -1.1701    0.0000 C   0  0  0  0  0  0  0  0  0  0  0  0
    3.3420   -0.7576    0.0000 C   0  0  0  0  0  0  0  0  0  0  0  0
    1.9130   -0.7576    0.0000 C   0  0  0  0  0  0  0  0  0  0  0  0
    1.9130    0.0674    0.0000 C   0  0  0  0  0  0  0  0  0  0  0  0
    1.1986   -1.1701    0.0000 C   0  0  0  0  0  0  0  0  0  0  0  0
    0.4841   -0.7576    0.0000 C   0  0  0  0  0  0  0  0  0  0  0  0
   -0.2304   -1.1701    0.0000 C   0  0  0  0  0  0  0  0  0  0  0  0
    1.1986   -1.9951    0.0000 C   0  0  0  0  0  0  0  0  0  0  0  0
    1.9130   -2.4076    0.0000 C   0  0  0  0  0  0  0  0  0  0  0  0
    2.6275   -1.9951    0.0000 C   0  0  0  0  0  0  0  0  0  0  0  0
  1  2  1  0  0  0  0
  3  1  1  0  0  0  0
  3  4  1  0  0  0  0
  5  3  2  0  0  0  0
  5  6  1  0  0  0  0
  6  7  1  0  0  0  0
  8  5  1  0  0  0  0
  9  8  2  0  0  0  0
 10  9  1  0  0  0  0
  1 10  2  0  0  0  0
M  END
> <ChemID>
100121

> <CAS>
933-98-2

> <Original_SMILES>
CCc1cccc(C)c1C

> <preferred_name>


> <dsstox_substance_id>
DTXSID00865479

> <dsstox_compound_id>
DTXCID70813881

> <qc_level>


> <Canonical_QSARr>
CCC1C=CC=C(C)C=1C

> <InChI_Code_QSARr>
InChI=1S/C10H14/c1-4-10-7-5-6-8(2)9(10)3/h5-7H,4H2,1-3H3

> <InChI Key_QSARr>
QUBBAXISAHIDNM-UHFFFAOYSA-N

> <Salt_Solvent>


> <Salt_Solvent_ID>
0

> <MPID>
271

> <LogHalfLife>
0.7782

> <Tr_1_Tst_0>
1

$$$$
100122
  Mrv171c012241912102D          

 10 10  0  0  0  0            999 V2000
    1.2146    0.3712    0.0000 C   0  0  0  0  0  0  0  0  0  0  0  0
    1.9291   -0.0413    0.0000 C   0  0  0  0  0  0  0  0  0  0  0  0
    1.9291   -0.8663    0.0000 C   0  0  0  0  0  0  0  0  0  0  0  0
    1.2146    1.1962    0.0000 C   0  0  0  0  0  0  0  0  0  0  0  0
    0.5001    1.6087    0.0000 C   0  0  0  0  0  0  0  0  0  0  0  0
    0.5001    2.4337    0.0000 C   0  0  0  0  0  0  0  0  0  0  0  0
   -0.2144    1.1962    0.0000 C   0  0  0  0  0  0  0  0  0  0  0  0
   -0.2144    0.3712    0.0000 C   0  0  0  0  0  0  0  0  0  0  0  0
   -0.9288   -0.0413    0.0000 C   0  0  0  0  0  0  0  0  0  0  0  0
    0.5001   -0.0413    0.0000 C   0  0  0  0  0  0  0  0  0  0  0  0
  1  2  1  0  0  0  0
  2  3  1  0  0  0  0
  4  1  1  0  0  0  0
  5  4  2  0  0  0  0
  5  6  1  0  0  0  0
  7  5  1  0  0  0  0
  8  7  2  0  0  0  0
  8  9  1  0  0  0  0
 10  8  1  0  0  0  0
  1 10  2  0  0  0  0
M  END
> <ChemID>
100122

> <CAS>
934-74-7

> <Original_SMILES>
CCc1cc(C)cc(C)c1

> <preferred_name>
1,3-Dimethyl-5-ethylbenzene

> <dsstox_substance_id>
DTXSID1061316

> <dsstox_compound_id>
DTXCID3048863

> <qc_level>
Public_High

> <Canonical_QSARr>
CCC1C=C(C)C=C(C)C=1

> <InChI_Code_QSARr>
InChI=1S/C10H14/c1-4-10-6-8(2)5-9(3)7-10/h5-7H,4H2,1-3H3

> <InChI Key_QSARr>
LMAUULKNZLEMGN-UHFFFAOYSA-N

> <Salt_Solvent>


> <Salt_Solvent_ID>
0

> <MPID>
272

> <LogHalfLife>
0.301

> <Tr_1_Tst_0>
1

$$$$
100123
  Mrv171c012241912102D          

 10 10  0  0  0  0            999 V2000
    1.0003   -0.1650    0.0000 C   0  0  0  0  0  0  0  0  0  0  0  0
    1.0003   -0.9900    0.0000 C   0  0  0  0  0  0  0  0  0  0  0  0
    0.2858   -1.4025    0.0000 C   0  0  0  0  0  0  0  0  0  0  0  0
    1.7147    0.2475    0.0000 C   0  0  0  0  0  0  0  0  0  0  0  0
    1.7147    1.0725    0.0000 C   0  0  0  0  0  0  0  0  0  0  0  0
    1.0003    1.4850    0.0000 C   0  0  0  0  0  0  0  0  0  0  0  0
    1.0003    2.3100    0.0000 C   0  0  0  0  0  0  0  0  0  0  0  0
    0.2858    1.0725    0.0000 C   0  0  0  0  0  0  0  0  0  0  0  0
   -0.4287    1.4850    0.0000 C   0  0  0  0  0  0  0  0  0  0  0  0
    0.2858    0.2475    0.0000 C   0  0  0  0  0  0  0  0  0  0  0  0
  1  2  1  0  0  0  0
  2  3  1  0  0  0  0
  4  1  1  0  0  0  0
  5  4  2  0  0  0  0
  6  5  1  0  0  0  0
  6  7  1  0  0  0  0
  8  6  2  0  0  0  0
  8  9  1  0  0  0  0
 10  8  1  0  0  0  0
  1 10  2  0  0  0  0
M  END
> <ChemID>
100123

> <CAS>
934-80-5

> <Original_SMILES>
CCc1cc(C)c(C)cc1

> <preferred_name>
1,2-Dimethyl-4-ethylbenzene

> <dsstox_substance_id>
DTXSID6061317

> <dsstox_compound_id>
DTXCID8048864

> <qc_level>
Public_High

> <Canonical_QSARr>
CCC1=CC(C)=C(C)C=C1

> <InChI_Code_QSARr>
InChI=1S/C10H14/c1-4-10-6-5-8(2)9(3)7-10/h5-7H,4H2,1-3H3

> <InChI Key_QSARr>
SBUYFICWQNHBCM-UHFFFAOYSA-N

> <Salt_Solvent>


> <Salt_Solvent_ID>
0

> <MPID>
273

> <LogHalfLife>
0.699

> <Tr_1_Tst_0>
1

$$$$
100124
  Mrv171c012241912102D          

  9  8  0  0  0  0            999 V2000
   -0.0191   -1.0052    0.0000 C   0  0  0  0  0  0  0  0  0  0  0  0
    0.6953   -0.5927    0.0000 C   0  0  0  0  0  0  0  0  0  0  0  0
    0.6953    0.2323    0.0000 C   0  0  0  0  0  0  0  0  0  0  0  0
    1.4098   -1.0052    0.0000 C   0  0  0  0  0  0  0  0  0  0  0  0
    1.4098   -1.8302    0.0000 C   0  0  0  0  0  0  0  0  0  0  0  0
    2.1243   -0.5927    0.0000 C   0  0  0  0  0  0  0  0  0  0  0  0
    2.8388   -1.0052    0.0000 C   0  0  0  0  0  0  0  0  0  0  0  0
    3.5532   -0.5927    0.0000 C   0  0  0  0  0  0  0  0  0  0  0  0
    2.8388   -1.8302    0.0000 C   0  0  0  0  0  0  0  0  0  0  0  0
  1  2  1  0  0  0  0
  2  3  1  0  0  0  0
  2  4  1  0  0  0  0
  4  5  1  0  0  0  0
  4  6  1  0  0  0  0
  6  7  1  0  0  0  0
  7  8  1  0  0  0  0
  7  9  1  0  0  0  0
M  END
> <ChemID>
100124

> <CAS>
1069-53-0

> <Original_SMILES>
CC(C)C(C)CC(C)C

> <preferred_name>


> <dsstox_substance_id>
DTXSID70870833

> <dsstox_compound_id>
DTXCID30818519

> <qc_level>


> <Canonical_QSARr>
CC(C)C(C)CC(C)C

> <InChI_Code_QSARr>
InChI=1S/C9H20/c1-7(2)6-9(5)8(3)4/h7-9H,6H2,1-5H3

> <InChI Key_QSARr>
ODGLTLJZCVNPBU-UHFFFAOYSA-N

> <Salt_Solvent>


> <Salt_Solvent_ID>
0

> <MPID>
274

> <LogHalfLife>
0.9031

> <Tr_1_Tst_0>
0

$$$$
100125
  Mrv171c012241912102D          

  9  8  0  0  0  0            999 V2000
    2.7680   -0.7693    0.0000 C   0  0  0  0  0  0  0  0  0  0  0  0
    2.0535   -1.1818    0.0000 C   0  0  0  0  0  0  0  0  0  0  0  0
    2.0535   -2.0068    0.0000 C   0  0  0  0  0  0  0  0  0  0  0  0
    1.3391   -2.4193    0.0000 C   0  0  0  0  0  0  0  0  0  0  0  0
    1.3391   -3.2443    0.0000 C   0  0  0  0  0  0  0  0  0  0  0  0
    2.7680    0.0557    0.0000 C   0  0  0  0  0  0  0  0  0  0  0  0
    2.7680    0.8807    0.0000 C   0  0  0  0  0  0  0  0  0  0  0  0
    3.5930    0.0557    0.0000 C   0  0  0  0  0  0  0  0  0  0  0  0
    1.9430    0.0557    0.0000 C   0  0  0  0  0  0  0  0  0  0  0  0
  1  2  1  0  0  0  0
  2  3  1  0  0  0  0
  3  4  1  0  0  0  0
  4  5  1  0  0  0  0
  1  6  1  0  0  0  0
  6  7  1  0  0  0  0
  6  8  1  0  0  0  0
  6  9  1  0  0  0  0
M  END
> <ChemID>
100125

> <CAS>
1071-26-7

> <Original_SMILES>
CCCCCC(C)(C)C

> <preferred_name>
2,2-Dimethylheptane

> <dsstox_substance_id>
DTXSID0061454

> <dsstox_compound_id>
DTXCID4033055

> <qc_level>
Public_High

> <Canonical_QSARr>
CCCCCC(C)(C)C

> <InChI_Code_QSARr>
InChI=1S/C9H20/c1-5-6-7-8-9(2,3)4/h5-8H2,1-4H3

> <InChI Key_QSARr>
PSABUFWDVWCFDP-UHFFFAOYSA-N

> <Salt_Solvent>


> <Salt_Solvent_ID>
0

> <MPID>
275

> <LogHalfLife>
0.7782

> <Tr_1_Tst_0>
1

$$$$
100126
  Mrv171c012241912102D          

 10 10  0  0  0  0            999 V2000
    0.7859    0.9488    0.0000 C   0  0  0  0  0  0  0  0  0  0  0  0
    0.0714    1.3613    0.0000 C   0  0  0  0  0  0  0  0  0  0  0  0
    0.0714    2.1863    0.0000 C   0  0  0  0  0  0  0  0  0  0  0  0
   -0.6430    2.5988    0.0000 C   0  0  0  0  0  0  0  0  0  0  0  0
    0.7859    0.1237    0.0000 C   0  0  0  0  0  0  0  0  0  0  0  0
    1.5004   -0.2888    0.0000 C   0  0  0  0  0  0  0  0  0  0  0  0
    2.2148    0.1237    0.0000 C   0  0  0  0  0  0  0  0  0  0  0  0
    2.2148    0.9487    0.0000 C   0  0  0  0  0  0  0  0  0  0  0  0
    1.5004    1.3612    0.0000 C   0  0  0  0  0  0  0  0  0  0  0  0
    1.5004    2.1862    0.0000 C   0  0  0  0  0  0  0  0  0  0  0  0
  1  2  1  0  0  0  0
  2  3  1  0  0  0  0
  3  4  1  0  0  0  0
  5  1  1  0  0  0  0
  6  5  2  0  0  0  0
  7  6  1  0  0  0  0
  8  7  2  0  0  0  0
  9  8  1  0  0  0  0
  1  9  2  0  0  0  0
  9 10  1  0  0  0  0
M  END
> <ChemID>
100126

> <CAS>
1074-17-5

> <Original_SMILES>
Cc1ccccc1CCC

> <preferred_name>
1-Methyl-2-propylbenzene

> <dsstox_substance_id>
DTXSID4061466

> <dsstox_compound_id>
DTXCID2033075

> <qc_level>
Public_High

> <Canonical_QSARr>
CC1C=CC=CC=1CCC

> <InChI_Code_QSARr>
InChI=1S/C10H14/c1-3-6-10-8-5-4-7-9(10)2/h4-5,7-8H,3,6H2,1-2H3

> <InChI Key_QSARr>
YQZBFMJOASEONC-UHFFFAOYSA-N

> <Salt_Solvent>


> <Salt_Solvent_ID>
0

> <MPID>
276

> <LogHalfLife>
0.4771

> <Tr_1_Tst_0>
1

$$$$
100127
  Mrv171c012241912102D          

 11 10  0  0  0  0            999 V2000
   -0.0041   -0.0383    0.0000 C   0  0  0  0  0  0  0  0  0  0  0  0
    0.7104   -0.4508    0.0000 C   0  0  0  0  0  0  0  0  0  0  0  0
    1.4248   -0.0383    0.0000 C   0  0  0  0  0  0  0  0  0  0  0  0
    2.1393   -0.4508    0.0000 C   0  0  0  0  0  0  0  0  0  0  0  0
    2.8538   -0.0383    0.0000 C   0  0  0  0  0  0  0  0  0  0  0  0
    3.5682   -0.4508    0.0000 C   0  0  0  0  0  0  0  0  0  0  0  0
    4.2827   -0.0383    0.0000 C   0  0  0  0  0  0  0  0  0  0  0  0
    4.9972   -0.4508    0.0000 C   0  0  0  0  0  0  0  0  0  0  0  0
    5.7117   -0.0383    0.0000 C   0  0  0  0  0  0  0  0  0  0  0  0
    6.4261   -0.4508    0.0000 C   0  0  0  0  0  0  0  0  0  0  0  0
    7.1406   -0.0383    0.0000 C   0  0  0  0  0  0  0  0  0  0  0  0
  1  2  1  0  0  0  0
  2  3  1  0  0  0  0
  3  4  1  0  0  0  0
  4  5  1  0  0  0  0
  5  6  1  0  0  0  0
  6  7  1  0  0  0  0
  7  8  1  0  0  0  0
  8  9  1  0  0  0  0
  9 10  1  0  0  0  0
 10 11  1  0  0  0  0
M  END
> <ChemID>
100127

> <CAS>
1120-21-4

> <Original_SMILES>
CCCCCCCCCCC

> <preferred_name>
Undecane

> <dsstox_substance_id>
DTXSID9021689

> <dsstox_compound_id>
DTXCID301689

> <qc_level>
DSSTox_High

> <Canonical_QSARr>
CCCCCCCCCCC

> <InChI_Code_QSARr>
InChI=1S/C11H24/c1-3-5-7-9-11-10-8-6-4-2/h3-11H2,1-2H3

> <InChI Key_QSARr>
RSJKGSCJYJTIGS-UHFFFAOYSA-N

> <Salt_Solvent>


> <Salt_Solvent_ID>
0

> <MPID>
277

> <LogHalfLife>
0.8451

> <Tr_1_Tst_0>
1

$$$$
100130
  Mrv171c012241912102D          

  7  7  0  0  0  0            999 V2000
    2.3176    0.3166    0.0000 C   0  0  0  0  0  0  0  0  0  0  0  0
    1.7655    0.9297    0.0000 C   0  0  0  0  0  0  0  0  0  0  0  0
    2.8696    0.9297    0.0000 C   0  0  0  0  0  0  0  0  0  0  0  0
    1.6501   -0.1683    0.0000 C   0  0  0  0  0  0  0  0  0  0  0  0
    1.9051   -0.9530    0.0000 C   0  0  0  0  0  0  0  0  0  0  0  0
    2.7301   -0.9530    0.0000 C   0  0  0  0  0  0  0  0  0  0  0  0
    2.9850   -0.1683    0.0000 C   0  0  0  0  0  0  0  0  0  0  0  0
  1  2  1  0  0  0  0
  1  3  1  0  0  0  0
  4  1  1  0  0  0  0
  5  4  1  0  0  0  0
  6  5  1  0  0  0  0
  7  6  1  0  0  0  0
  1  7  1  0  0  0  0
M  END
> <ChemID>
100130

> <CAS>
1638-26-2

> <Original_SMILES>
CC1(C)CCCC1

> <preferred_name>
1,1-Dimethylcyclopentane

> <dsstox_substance_id>
DTXSID00167662

> <dsstox_compound_id>
DTXCID7090153

> <qc_level>
Public_Medium

> <Canonical_QSARr>
CC1(C)CCCC1

> <InChI_Code_QSARr>
InChI=1S/C7H14/c1-7(2)5-3-4-6-7/h3-6H2,1-2H3

> <InChI Key_QSARr>
QWHNJUXXYKPLQM-UHFFFAOYSA-N

> <Salt_Solvent>


> <Salt_Solvent_ID>
0

> <MPID>
279

> <LogHalfLife>
1.2788

> <Tr_1_Tst_0>
0

$$$$
100131
  Mrv171c012241912102D          

  7  7  0  0  0  0            999 V2000
    0.3636    1.1143    0.0000 C   0  0  0  0  0  0  0  0  0  0  0  0
    0.3636    1.9393    0.0000 C   0  0  0  0  0  0  0  0  0  0  0  0
    1.0781    2.3518    0.0000 C   0  0  0  0  0  0  0  0  0  0  0  0
   -0.3038    0.6294    0.0000 C   0  0  0  0  0  0  0  0  0  0  0  0
   -0.0489   -0.1553    0.0000 C   0  0  0  0  0  0  0  0  0  0  0  0
    0.7761   -0.1553    0.0000 C   0  0  0  0  0  0  0  0  0  0  0  0
    1.0311    0.6294    0.0000 C   0  0  0  0  0  0  0  0  0  0  0  0
  1  2  1  0  0  0  0
  2  3  1  0  0  0  0
  4  1  1  0  0  0  0
  5  4  1  0  0  0  0
  6  5  1  0  0  0  0
  7  6  1  0  0  0  0
  1  7  1  0  0  0  0
M  END
> <ChemID>
100131

> <CAS>
1640-89-7

> <Original_SMILES>
CCC1CCCC1

> <preferred_name>
Cyclopentane, ethyl-

> <dsstox_substance_id>
DTXSID5075109

> <dsstox_compound_id>
DTXCID8035265

> <qc_level>
Public_High

> <Canonical_QSARr>
CCC1CCCC1

> <InChI_Code_QSARr>
InChI=1S/C7H14/c1-2-7-5-3-4-6-7/h7H,2-6H2,1H3

> <InChI Key_QSARr>
IFTRQJLVEBNKJK-UHFFFAOYSA-N

> <Salt_Solvent>


> <Salt_Solvent_ID>
0

> <MPID>
280

> <LogHalfLife>
1.1761

> <Tr_1_Tst_0>
1

$$$$
100132
  Mrv171c012241912102D          

  8  8  0  0  0  0            999 V2000
    0.5349   -1.2352    0.0000 C   0  0  0  0  0  0  0  0  0  0  0  0
    0.5349   -0.4102    0.0000 C   0  0  0  0  0  0  0  0  0  0  0  0
    1.2494    0.0023    0.0000 C   0  0  0  0  0  0  0  0  0  0  0  0
   -0.1795   -1.6477    0.0000 C   0  0  0  0  0  0  0  0  0  0  0  0
   -0.1795   -2.4727    0.0000 C   0  0  0  0  0  0  0  0  0  0  0  0
    0.5349   -2.8852    0.0000 C   0  0  0  0  0  0  0  0  0  0  0  0
    1.2494   -2.4727    0.0000 C   0  0  0  0  0  0  0  0  0  0  0  0
    1.2494   -1.6477    0.0000 C   0  0  0  0  0  0  0  0  0  0  0  0
  1  2  1  0  0  0  0
  2  3  1  0  0  0  0
  4  1  1  0  0  0  0
  5  4  1  0  0  0  0
  6  5  1  0  0  0  0
  7  6  1  0  0  0  0
  8  7  1  0  0  0  0
  1  8  1  0  0  0  0
M  END
> <ChemID>
100132

> <CAS>
1678-91-7

> <Original_SMILES>
CCC1CCCCC1

> <preferred_name>
Ethylcyclohexane

> <dsstox_substance_id>
DTXSID1051779

> <dsstox_compound_id>
DTXCID4030334

> <qc_level>
DSSTox_High

> <Canonical_QSARr>
CCC1CCCCC1

> <InChI_Code_QSARr>
InChI=1S/C8H16/c1-2-8-6-4-3-5-7-8/h8H,2-7H2,1H3

> <InChI Key_QSARr>
IIEWJVIFRVWJOD-UHFFFAOYSA-N

> <Salt_Solvent>


> <Salt_Solvent_ID>
0

> <MPID>
281

> <LogHalfLife>
0.301

> <Tr_1_Tst_0>
1

$$$$
100133
  Mrv171c012241912102D          

 10 10  0  0  0  0            999 V2000
    1.0717    0.6187    0.0000 C   0  0  0  0  0  0  0  0  0  0  0  0
    1.7862    0.2062    0.0000 C   0  0  0  0  0  0  0  0  0  0  0  0
    1.7862   -0.6188    0.0000 C   0  0  0  0  0  0  0  0  0  0  0  0
    1.0717    1.4437    0.0000 C   0  0  0  0  0  0  0  0  0  0  0  0
    0.3572    1.8562    0.0000 C   0  0  0  0  0  0  0  0  0  0  0  0
    0.3572    2.6812    0.0000 C   0  0  0  0  0  0  0  0  0  0  0  0
   -0.3572    1.4437    0.0000 C   0  0  0  0  0  0  0  0  0  0  0  0
   -0.3572    0.6187    0.0000 C   0  0  0  0  0  0  0  0  0  0  0  0
    0.3572    0.2062    0.0000 C   0  0  0  0  0  0  0  0  0  0  0  0
    0.3572   -0.6188    0.0000 C   0  0  0  0  0  0  0  0  0  0  0  0
  1  2  1  0  0  0  0
  2  3  1  0  0  0  0
  4  1  1  0  0  0  0
  5  4  2  0  0  0  0
  5  6  1  0  0  0  0
  7  5  1  0  0  0  0
  8  7  2  0  0  0  0
  9  8  1  0  0  0  0
  1  9  2  0  0  0  0
  9 10  1  0  0  0  0
M  END
> <ChemID>
100133

> <CAS>
1758-88-9

> <Original_SMILES>
CCc1cc(C)ccc1C

> <preferred_name>
2-Ethyl-p-xylene

> <dsstox_substance_id>
DTXSID0061951

> <dsstox_compound_id>
DTXCID5035587

> <qc_level>
Public_High

> <Canonical_QSARr>
CCC1C=C(C)C=CC=1C

> <InChI_Code_QSARr>
InChI=1S/C10H14/c1-4-10-7-8(2)5-6-9(10)3/h5-7H,4H2,1-3H3

> <InChI Key_QSARr>
AXIUBBVSOWPLDA-UHFFFAOYSA-N

> <Salt_Solvent>


> <Salt_Solvent_ID>
0

> <MPID>
282

> <LogHalfLife>
0.4771

> <Tr_1_Tst_0>
1

$$$$
100134
  Mrv171c012241912102D          

 19 18  0  0  0  0            999 V2000
    4.9798   -0.4613    0.0000 C   0  0  0  0  0  0  0  0  0  0  0  0
    4.2653   -0.0488    0.0000 C   0  0  0  0  0  0  0  0  0  0  0  0
    3.5509   -0.4613    0.0000 C   0  0  0  0  0  0  0  0  0  0  0  0
    3.5509   -1.2863    0.0000 C   0  0  0  0  0  0  0  0  0  0  0  0
    2.8364   -0.0488    0.0000 C   0  0  0  0  0  0  0  0  0  0  0  0
    2.1219   -0.4613    0.0000 C   0  0  0  0  0  0  0  0  0  0  0  0
    1.4074   -0.0488    0.0000 C   0  0  0  0  0  0  0  0  0  0  0  0
    0.6930   -0.4613    0.0000 C   0  0  0  0  0  0  0  0  0  0  0  0
   -0.0215   -0.0488    0.0000 C   0  0  0  0  0  0  0  0  0  0  0  0
    0.6930   -1.2863    0.0000 C   0  0  0  0  0  0  0  0  0  0  0  0
    5.6943   -0.0488    0.0000 C   0  0  0  0  0  0  0  0  0  0  0  0
    6.4087   -0.4613    0.0000 C   0  0  0  0  0  0  0  0  0  0  0  0
    6.4087   -1.2863    0.0000 C   0  0  0  0  0  0  0  0  0  0  0  0
    7.1232   -0.0488    0.0000 C   0  0  0  0  0  0  0  0  0  0  0  0
    7.8377   -0.4613    0.0000 C   0  0  0  0  0  0  0  0  0  0  0  0
    8.5521   -0.0488    0.0000 C   0  0  0  0  0  0  0  0  0  0  0  0
    9.2666   -0.4613    0.0000 C   0  0  0  0  0  0  0  0  0  0  0  0
    9.9811   -0.0488    0.0000 C   0  0  0  0  0  0  0  0  0  0  0  0
    9.2666   -1.2863    0.0000 C   0  0  0  0  0  0  0  0  0  0  0  0
  1  2  1  0  0  0  0
  2  3  1  0  0  0  0
  3  4  1  0  0  0  0
  3  5  1  0  0  0  0
  5  6  1  0  0  0  0
  6  7  1  0  0  0  0
  7  8  1  0  0  0  0
  8  9  1  0  0  0  0
  8 10  1  0  0  0  0
  1 11  1  0  0  0  0
 11 12  1  0  0  0  0
 12 13  1  0  0  0  0
 12 14  1  0  0  0  0
 14 15  1  0  0  0  0
 15 16  1  0  0  0  0
 16 17  1  0  0  0  0
 17 18  1  0  0  0  0
 17 19  1  0  0  0  0
M  END
> <ChemID>
100134

> <CAS>
1921-70-6

> <Original_SMILES>
CC(C)CCCC(C)CCCC(C)CCCC(C)C

> <preferred_name>


> <dsstox_substance_id>
DTXSID70870919

> <dsstox_compound_id>
DTXCID80818600

> <qc_level>


> <Canonical_QSARr>
CC(C)CCCC(C)CCCC(C)CCCC(C)C

> <InChI_Code_QSARr>
InChI=1S/C19H40/c1-16(2)10-7-12-18(5)14-9-15-19(6)13-8-11-17(3)4/h16-19H,7-15H2,1-6H3

> <InChI Key_QSARr>
XOJVVFBFDXDTEG-UHFFFAOYSA-N

> <Salt_Solvent>


> <Salt_Solvent_ID>
0

> <MPID>
283

> <LogHalfLife>
1.6232

> <Tr_1_Tst_0>
0

$$$$
100135
  Mrv171c012241912102D          

 10 11  0  0  0  0            999 V2000
    2.4214   -0.6674    0.0000 C   0  0  0  0  0  0  0  0  0  0  0  0
    1.9365    0.0000    0.0000 C   0  0  0  0  0  0  0  0  0  0  0  0
    1.1115   -0.0000    0.0000 C   0  0  0  0  0  0  0  0  0  0  0  0
    2.4214    0.6674    0.0000 C   0  0  0  0  0  0  0  0  0  0  0  0
    3.2060    0.4125    0.0000 C   0  0  0  0  0  0  0  0  0  0  0  0
    3.9205    0.8250    0.0000 C   0  0  0  0  0  0  0  0  0  0  0  0
    4.6350    0.4125    0.0000 C   0  0  0  0  0  0  0  0  0  0  0  0
    4.6350   -0.4125    0.0000 C   0  0  0  0  0  0  0  0  0  0  0  0
    3.9205   -0.8250    0.0000 C   0  0  0  0  0  0  0  0  0  0  0  0
    3.2060   -0.4125    0.0000 C   0  0  0  0  0  0  0  0  0  0  0  0
  2  1  1  0  0  0  0
  2  3  1  0  0  0  0
  4  2  2  0  0  0  0
  5  4  1  0  0  0  0
  5  6  2  0  0  0  0
  6  7  1  0  0  0  0
  7  8  2  0  0  0  0
  8  9  1  0  0  0  0
  9 10  2  0  0  0  0
  1 10  1  0  0  0  0
 10  5  1  0  0  0  0
M  END
> <ChemID>
100135

> <CAS>
2177-47-1

> <Original_SMILES>
CC1Cc2ccccc2C=1

> <preferred_name>
1H-Indene, 2-methyl-

> <dsstox_substance_id>
DTXSID00176173

> <dsstox_compound_id>
DTXCID7098664

> <qc_level>
Public_Medium

> <Canonical_QSARr>
CC1CC2=CC=CC=C2C=1

> <InChI_Code_QSARr>
InChI=1S/C10H10/c1-8-6-9-4-2-3-5-10(9)7-8/h2-6H,7H2,1H3

> <InChI Key_QSARr>
YSAXEHWHSLANOM-UHFFFAOYSA-N

> <Salt_Solvent>


> <Salt_Solvent_ID>
0

> <MPID>
284

> <LogHalfLife>
0.4771

> <Tr_1_Tst_0>
1

$$$$
100136
  Mrv171c012241912102D          

  9  8  0  0  0  0            999 V2000
    0.0180   -0.0011    0.0000 C   0  0  0  0  0  0  0  0  0  0  0  0
    0.7325   -0.4136    0.0000 C   0  0  0  0  0  0  0  0  0  0  0  0
    0.7325   -1.2386    0.0000 C   0  0  0  0  0  0  0  0  0  0  0  0
    1.4469   -0.0011    0.0000 C   0  0  0  0  0  0  0  0  0  0  0  0
    2.1614   -0.4136    0.0000 C   0  0  0  0  0  0  0  0  0  0  0  0
    2.1614   -1.2386    0.0000 C   0  0  0  0  0  0  0  0  0  0  0  0
    2.8759   -0.0011    0.0000 C   0  0  0  0  0  0  0  0  0  0  0  0
    3.5904   -0.4136    0.0000 C   0  0  0  0  0  0  0  0  0  0  0  0
    4.3048   -0.0011    0.0000 C   0  0  0  0  0  0  0  0  0  0  0  0
  1  2  1  0  0  0  0
  2  3  1  0  0  0  0
  2  4  1  0  0  0  0
  4  5  1  0  0  0  0
  5  6  1  0  0  0  0
  5  7  1  0  0  0  0
  7  8  1  0  0  0  0
  8  9  1  0  0  0  0
M  END
> <ChemID>
100136

> <CAS>
2213-23-2

> <Original_SMILES>
CC(C)CC(C)CCC

> <preferred_name>


> <dsstox_substance_id>
DTXSID10862873

> <dsstox_compound_id>
DTXCID30811580

> <qc_level>


> <Canonical_QSARr>
CC(C)CC(C)CCC

> <InChI_Code_QSARr>
InChI=1S/C9H20/c1-5-6-9(4)7-8(2)3/h8-9H,5-7H2,1-4H3

> <InChI Key_QSARr>
AUKVIBNBLXQNIZ-UHFFFAOYSA-N

> <Salt_Solvent>


> <Salt_Solvent_ID>
0

> <MPID>
285

> <LogHalfLife>
0.7782

> <Tr_1_Tst_0>
1

$$$$
100137
  Mrv171c012241912102D          

  9  8  0  0  0  0            999 V2000
    0.0109   -0.8247    0.0000 C   0  0  0  0  0  0  0  0  0  0  0  0
    0.7254   -1.2372    0.0000 C   0  0  0  0  0  0  0  0  0  0  0  0
    0.7254   -2.0622    0.0000 C   0  0  0  0  0  0  0  0  0  0  0  0
    1.4398   -0.8247    0.0000 C   0  0  0  0  0  0  0  0  0  0  0  0
    2.1543   -1.2372    0.0000 C   0  0  0  0  0  0  0  0  0  0  0  0
    2.8688   -0.8247    0.0000 C   0  0  0  0  0  0  0  0  0  0  0  0
    2.8688    0.0003    0.0000 C   0  0  0  0  0  0  0  0  0  0  0  0
    3.5832   -1.2372    0.0000 C   0  0  0  0  0  0  0  0  0  0  0  0
    4.2977   -0.8247    0.0000 C   0  0  0  0  0  0  0  0  0  0  0  0
  1  2  1  0  0  0  0
  2  3  1  0  0  0  0
  2  4  1  0  0  0  0
  4  5  1  0  0  0  0
  5  6  1  0  0  0  0
  6  7  1  0  0  0  0
  6  8  1  0  0  0  0
  8  9  1  0  0  0  0
M  END
> <ChemID>
100137

> <CAS>
2216-30-0

> <Original_SMILES>
CC(C)CCC(C)CC

> <preferred_name>


> <dsstox_substance_id>
DTXSID70862874

> <dsstox_compound_id>
DTXCID90811581

> <qc_level>


> <Canonical_QSARr>
CC(C)CCC(C)CC

> <InChI_Code_QSARr>
InChI=1S/C9H20/c1-5-9(4)7-6-8(2)3/h8-9H,5-7H2,1-4H3

> <InChI Key_QSARr>
HQZHQNKZOYIKQC-UHFFFAOYSA-N

> <Salt_Solvent>


> <Salt_Solvent_ID>
0

> <MPID>
286

> <LogHalfLife>
0.7782

> <Tr_1_Tst_0>
1

$$$$
100138
  Mrv171c012241912102D          

  9  8  0  0  0  0            999 V2000
   -0.0097   -0.9984    0.0000 C   0  0  0  0  0  0  0  0  0  0  0  0
    0.7048   -0.5859    0.0000 C   0  0  0  0  0  0  0  0  0  0  0  0
    1.4193   -0.9984    0.0000 C   0  0  0  0  0  0  0  0  0  0  0  0
    1.4193   -1.8234    0.0000 C   0  0  0  0  0  0  0  0  0  0  0  0
    2.1338   -0.5859    0.0000 C   0  0  0  0  0  0  0  0  0  0  0  0
    2.8482   -0.9984    0.0000 C   0  0  0  0  0  0  0  0  0  0  0  0
    3.5627   -0.5859    0.0000 C   0  0  0  0  0  0  0  0  0  0  0  0
    4.2772   -0.9984    0.0000 C   0  0  0  0  0  0  0  0  0  0  0  0
    4.9916   -0.5859    0.0000 C   0  0  0  0  0  0  0  0  0  0  0  0
  1  2  1  0  0  0  0
  2  3  1  0  0  0  0
  3  4  1  0  0  0  0
  3  5  1  0  0  0  0
  5  6  1  0  0  0  0
  6  7  1  0  0  0  0
  7  8  1  0  0  0  0
  8  9  1  0  0  0  0
M  END
> <ChemID>
100138

> <CAS>
2216-33-3

> <Original_SMILES>
CCCCCC(C)CC

> <preferred_name>


> <dsstox_substance_id>
DTXSID30862875

> <dsstox_compound_id>
DTXCID50811582

> <qc_level>


> <Canonical_QSARr>
CCCCCC(C)CC

> <InChI_Code_QSARr>
InChI=1S/C9H20/c1-4-6-7-8-9(3)5-2/h9H,4-8H2,1-3H3

> <InChI Key_QSARr>
SEEOMASXHIJCDV-UHFFFAOYSA-N

> <Salt_Solvent>


> <Salt_Solvent_ID>
0

> <MPID>
287

> <LogHalfLife>
0.699

> <Tr_1_Tst_0>
0

$$$$
100139
  Mrv171c012241912102D          

  9  8  0  0  0  0            999 V2000
   -0.0098   -0.6415    0.0000 C   0  0  0  0  0  0  0  0  0  0  0  0
    0.7047   -0.2290    0.0000 C   0  0  0  0  0  0  0  0  0  0  0  0
    1.4191   -0.6415    0.0000 C   0  0  0  0  0  0  0  0  0  0  0  0
    2.1336   -0.2290    0.0000 C   0  0  0  0  0  0  0  0  0  0  0  0
    2.1336    0.5960    0.0000 C   0  0  0  0  0  0  0  0  0  0  0  0
    2.8481   -0.6415    0.0000 C   0  0  0  0  0  0  0  0  0  0  0  0
    3.5626   -0.2290    0.0000 C   0  0  0  0  0  0  0  0  0  0  0  0
    4.2770   -0.6415    0.0000 C   0  0  0  0  0  0  0  0  0  0  0  0
    4.9915   -0.2290    0.0000 C   0  0  0  0  0  0  0  0  0  0  0  0
  1  2  1  0  0  0  0
  2  3  1  0  0  0  0
  3  4  1  0  0  0  0
  4  5  1  0  0  0  0
  4  6  1  0  0  0  0
  6  7  1  0  0  0  0
  7  8  1  0  0  0  0
  8  9  1  0  0  0  0
M  END
> <ChemID>
100139

> <CAS>
2216-34-4

> <Original_SMILES>
CC(CCC)CCCC

> <preferred_name>


> <dsstox_substance_id>
DTXSID90862876

> <dsstox_compound_id>
DTXCID10811583

> <qc_level>


> <Canonical_QSARr>
CC(CCC)CCCC

> <InChI_Code_QSARr>
InChI=1S/C9H20/c1-4-6-8-9(3)7-5-2/h9H,4-8H2,1-3H3

> <InChI Key_QSARr>
DOGIHOCMZJUJNR-UHFFFAOYSA-N

> <Salt_Solvent>


> <Salt_Solvent_ID>
0

> <MPID>
288

> <LogHalfLife>
0.699

> <Tr_1_Tst_0>
1

$$$$
100140
  Mrv171c012241912102D          

 14 18  0  0  0  0            999 V2000
    2.9697    0.5594    0.0000 C   0  0  0  0  0  0  0  0  0  0  0  0
    3.8933    0.7950    0.0000 C   0  0  0  0  0  0  0  0  0  0  0  0
    4.2114   -0.0309    0.0000 C   0  0  0  0  0  0  0  0  0  0  0  0
    4.7417   -0.6968    0.0000 C   0  0  0  0  0  0  0  0  0  0  0  0
    3.9061   -0.6730    0.0000 C   0  0  0  0  0  0  0  0  0  0  0  0
    3.0883   -0.9619    0.0000 C   0  0  0  0  0  0  0  0  0  0  0  0
    2.3981   -0.6262    0.0000 C   0  0  0  0  0  0  0  0  0  0  0  0
    3.3235   -0.3827    0.0000 C   0  0  0  0  0  0  0  0  0  0  0  0
    2.1012    0.1935    0.0000 C   0  0  0  0  0  0  0  0  0  0  0  0
    1.5615    0.8363    0.0000 C   0  0  0  0  0  0  0  0  0  0  0  0
    2.4069    0.8280    0.0000 C   0  0  0  0  0  0  0  0  0  0  0  0
    3.2431    1.1034    0.0000 C   0  0  0  0  0  0  0  0  0  0  0  0
    3.6404    0.2339    0.0000 C   0  0  0  0  0  0  0  0  0  0  0  0
    2.6991   -0.0821    0.0000 C   0  0  0  0  0  0  0  0  0  0  0  0
  2  1  1  0  0  0  0
  3  2  1  0  0  0  0
  3  4  1  0  0  0  0
  4  5  1  0  0  0  0
  5  6  1  0  0  0  0
  7  6  1  0  0  0  0
  7  8  1  0  0  0  0
  8  3  1  0  0  0  0
  9  7  1  0  0  0  0
  9  1  1  0  0  0  0
 10  9  1  0  0  0  0
 11 10  1  0  0  0  0
 11 12  1  0  0  0  0
 12 13  1  0  0  0  0
  1 13  1  0  0  0  0
 13  5  1  0  0  0  0
 14 11  1  0  0  0  0
  6 14  1  0  0  0  0
M  END
> <ChemID>
100140

> <CAS>
2292-79-7

> <Original_SMILES>
C1C2C3CC4CC5C(CC1CC53)C2C4

> <preferred_name>
Congressane

> <dsstox_substance_id>
DTXSID60177464

> <dsstox_compound_id>
DTXCID9099955

> <qc_level>
Public_Medium

> <Canonical_QSARr>
C1C2C3CC4CC5C(CC1CC53)C2C4

> <InChI_Code_QSARr>
InChI=1S/C14H20/c1-7-2-12-10-4-8-5-11(9(1)10)13(3-7)14(12)6-8/h7-14H,1-6H2

> <InChI Key_QSARr>
ZICQBHNGXDOVJF-UHFFFAOYSA-N

> <Salt_Solvent>


> <Salt_Solvent_ID>
0

> <MPID>
289

> <LogHalfLife>
3.301

> <Tr_1_Tst_0>
1

$$$$
100141
  Mrv171c012241912102D          

 15 17  0  0  0  0            999 V2000
    2.4077   -0.9328    0.0000 C   0  0  0  0  0  0  0  0  0  0  0  0
    2.9598   -0.3197    0.0000 C   0  0  0  0  0  0  0  0  0  0  0  0
    3.7667   -0.4912    0.0000 C   0  0  0  0  0  0  0  0  0  0  0  0
    4.0217   -1.2759    0.0000 C   0  0  0  0  0  0  0  0  0  0  0  0
    3.4697   -1.8889    0.0000 C   0  0  0  0  0  0  0  0  0  0  0  0
    2.6627   -1.7174    0.0000 C   0  0  0  0  0  0  0  0  0  0  0  0
    1.9952   -2.2023    0.0000 C   0  0  0  0  0  0  0  0  0  0  0  0
    1.9952   -3.0273    0.0000 C   0  0  0  0  0  0  0  0  0  0  0  0
    2.7097   -3.4398    0.0000 C   0  0  0  0  0  0  0  0  0  0  0  0
    1.3278   -1.7174    0.0000 C   0  0  0  0  0  0  0  0  0  0  0  0
    0.5208   -1.8889    0.0000 C   0  0  0  0  0  0  0  0  0  0  0  0
   -0.0312   -1.2759    0.0000 C   0  0  0  0  0  0  0  0  0  0  0  0
    0.2237   -0.4912    0.0000 C   0  0  0  0  0  0  0  0  0  0  0  0
    1.0307   -0.3197    0.0000 C   0  0  0  0  0  0  0  0  0  0  0  0
    1.5827   -0.9328    0.0000 C   0  0  0  0  0  0  0  0  0  0  0  0
  2  1  1  0  0  0  0
  3  2  2  0  0  0  0
  4  3  1  0  0  0  0
  5  4  2  0  0  0  0
  6  5  1  0  0  0  0
  6  1  2  0  0  0  0
  7  6  1  0  0  0  0
  7  8  1  0  0  0  0
  8  9  1  0  0  0  0
 10  7  1  0  0  0  0
 10 11  1  0  0  0  0
 11 12  2  0  0  0  0
 12 13  1  0  0  0  0
 13 14  2  0  0  0  0
 14 15  1  0  0  0  0
  1 15  1  0  0  0  0
 15 10  2  0  0  0  0
M  END
> <ChemID>
100141

> <CAS>
2294-82-8

> <Original_SMILES>
CCC1c2ccccc2-c2ccccc21

> <preferred_name>


> <dsstox_substance_id>
DTXSID10872977

> <dsstox_compound_id>
DTXCID70820494

> <qc_level>


> <Canonical_QSARr>
CCC1C2C=CC=CC=2C2C=CC=CC=21

> <InChI_Code_QSARr>
InChI=1S/C15H14/c1-2-11-12-7-3-5-9-14(12)15-10-6-4-8-13(11)15/h3-11H,2H2,1H3

> <InChI Key_QSARr>
QBBCCEYJCKGWIK-UHFFFAOYSA-N

> <Salt_Solvent>


> <Salt_Solvent_ID>
0

> <MPID>
290

> <LogHalfLife>
1.4624

> <Tr_1_Tst_0>
1

$$$$
100142
  Mrv171c012241912102D          

 17 20  0  0  0  0            999 V2000
    4.2930   -2.8011    0.0000 C   0  0  0  0  0  0  0  0  0  0  0  0
    3.8805   -2.0866    0.0000 C   0  0  0  0  0  0  0  0  0  0  0  0
    3.0555   -2.0866    0.0000 C   0  0  0  0  0  0  0  0  0  0  0  0
    2.6430   -1.3721    0.0000 C   0  0  0  0  0  0  0  0  0  0  0  0
    1.8180   -1.3721    0.0000 C   0  0  0  0  0  0  0  0  0  0  0  0
    1.4055   -2.0866    0.0000 C   0  0  0  0  0  0  0  0  0  0  0  0
    1.8180   -2.8011    0.0000 C   0  0  0  0  0  0  0  0  0  0  0  0
    2.6430   -2.8011    0.0000 C   0  0  0  0  0  0  0  0  0  0  0  0
    0.5805   -2.0866    0.0000 C   0  0  0  0  0  0  0  0  0  0  0  0
    0.1680   -1.3721    0.0000 C   0  0  0  0  0  0  0  0  0  0  0  0
    0.5805   -0.6577    0.0000 C   0  0  0  0  0  0  0  0  0  0  0  0
    1.4055   -0.6577    0.0000 C   0  0  0  0  0  0  0  0  0  0  0  0
    1.8180    0.0568    0.0000 C   0  0  0  0  0  0  0  0  0  0  0  0
    2.6430    0.0568    0.0000 C   0  0  0  0  0  0  0  0  0  0  0  0
    3.0555   -0.6577    0.0000 C   0  0  0  0  0  0  0  0  0  0  0  0
    3.8805   -0.6577    0.0000 C   0  0  0  0  0  0  0  0  0  0  0  0
    4.2930   -1.3721    0.0000 C   0  0  0  0  0  0  0  0  0  0  0  0
  1  2  1  0  0  0  0
  3  2  1  0  0  0  0
  3  4  2  0  0  0  0
  4  5  1  0  0  0  0
  6  5  2  0  0  0  0
  6  7  1  0  0  0  0
  7  8  2  0  0  0  0
  8  3  1  0  0  0  0
  9  6  1  0  0  0  0
 10  9  2  0  0  0  0
 11 10  1  0  0  0  0
 12 11  2  0  0  0  0
  5 12  1  0  0  0  0
 12 13  1  0  0  0  0
 13 14  2  0  0  0  0
 14 15  1  0  0  0  0
 15  4  1  0  0  0  0
 16 15  2  0  0  0  0
 17 16  1  0  0  0  0
  2 17  2  0  0  0  0
M  END
> <ChemID>
100142

> <CAS>
2381-21-7

> <Original_SMILES>
Cc1ccc2ccc3cccc4ccc1c2c34

> <preferred_name>
1-Methylpyrene

> <dsstox_substance_id>
DTXSID0025654

> <dsstox_compound_id>
DTXCID805654

> <qc_level>
DSSTox_Low

> <Canonical_QSARr>
CC1=CC=C2C=CC3=CC=CC4C=CC1=C2C=43

> <InChI_Code_QSARr>
InChI=1S/C17H12/c1-11-5-6-14-8-7-12-3-2-4-13-9-10-15(11)17(14)16(12)13/h2-10H,1H3

> <InChI Key_QSARr>
KBSPJIWZDWBDGM-UHFFFAOYSA-N

> <Salt_Solvent>


> <Salt_Solvent_ID>
0

> <MPID>
291

> <LogHalfLife>
1.9638

> <Tr_1_Tst_0>
0

$$$$
100143
  Mrv171c012241912102D          

  7  7  0  0  0  0            999 V2000
    0.3899   -1.3094    0.0000 C   0  0  0  0  0  0  0  0  0  0  0  0
   -0.3947   -1.0545    0.0000 C   0  0  0  0  0  0  0  0  0  0  0  0
    0.6448   -2.0940    0.0000 C   0  0  0  0  0  0  0  0  0  0  0  0
    1.4698   -2.0940    0.0000 C   0  0  0  0  0  0  0  0  0  0  0  0
    1.7248   -1.3094    0.0000 C   0  0  0  0  0  0  0  0  0  0  0  0
    1.0573   -0.8245    0.0000 C   0  0  0  0  0  0  0  0  0  0  0  0
    1.0573    0.0005    0.0000 C   0  0  0  0  0  0  0  0  0  0  0  0
  1  2  1  0  0  0  0
  3  1  1  0  0  0  0
  4  3  1  0  0  0  0
  5  4  1  0  0  0  0
  6  5  1  0  0  0  0
  1  6  1  0  0  0  0
  6  7  1  0  0  0  0
M  END
> <ChemID>
100143

> <CAS>
2452-99-5

> <Original_SMILES>
CC1CCCC1C

> <preferred_name>


> <dsstox_substance_id>
DTXSID80873330

> <dsstox_compound_id>
DTXCID10811649

> <qc_level>


> <Canonical_QSARr>
CC1CCCC1C

> <InChI_Code_QSARr>
InChI=1S/C7H14/c1-6-4-3-5-7(6)2/h6-7H,3-5H2,1-2H3

> <InChI Key_QSARr>
RIRARCHMRDHZAR-UHFFFAOYSA-N

> <Salt_Solvent>


> <Salt_Solvent_ID>
0

> <MPID>
292

> <LogHalfLife>
0.6021

> <Tr_1_Tst_0>
1

$$$$
100144
  Mrv171c012241912102D          

  7  7  0  0  0  0            999 V2000
    0.4176   -2.0588    0.0000 C   0  0  0  0  0  0  0  0  0  0  0  0
   -0.0673   -2.7263    0.0000 C   0  0  0  0  0  0  0  0  0  0  0  0
    1.2426   -2.0588    0.0000 C   0  0  0  0  0  0  0  0  0  0  0  0
    1.4976   -1.2742    0.0000 C   0  0  0  0  0  0  0  0  0  0  0  0
    0.8301   -0.7893    0.0000 C   0  0  0  0  0  0  0  0  0  0  0  0
    0.8301    0.0357    0.0000 C   0  0  0  0  0  0  0  0  0  0  0  0
    0.1627   -1.2742    0.0000 C   0  0  0  0  0  0  0  0  0  0  0  0
  1  2  1  0  0  0  0
  3  1  1  0  0  0  0
  4  3  1  0  0  0  0
  5  4  1  0  0  0  0
  5  6  1  0  0  0  0
  7  5  1  0  0  0  0
  1  7  1  0  0  0  0
M  END
> <ChemID>
100144

> <CAS>
2453-00-1

> <Original_SMILES>
CC1CC(C)CC1

> <preferred_name>


> <dsstox_substance_id>
DTXSID10871849

> <dsstox_compound_id>
DTXCID10819468

> <qc_level>


> <Canonical_QSARr>
CC1CC(C)CC1

> <InChI_Code_QSARr>
InChI=1S/C7H14/c1-6-3-4-7(2)5-6/h6-7H,3-5H2,1-2H3

> <InChI Key_QSARr>
XAZKFISIRYLAEE-UHFFFAOYSA-N

> <Salt_Solvent>


> <Salt_Solvent_ID>
0

> <MPID>
293

> <LogHalfLife>
0.6021

> <Tr_1_Tst_0>
1

$$$$
100145
  Mrv171c012241912102D          

 15 17  0  0  0  0            999 V2000
   -0.0045   -1.4266    0.0000 C   0  0  0  0  0  0  0  0  0  0  0  0
    0.8205   -1.4266    0.0000 C   0  0  0  0  0  0  0  0  0  0  0  0
    1.2330   -0.7121    0.0000 C   0  0  0  0  0  0  0  0  0  0  0  0
    2.0580   -0.7121    0.0000 C   0  0  0  0  0  0  0  0  0  0  0  0
    2.4705    0.0023    0.0000 C   0  0  0  0  0  0  0  0  0  0  0  0
    3.2955    0.0023    0.0000 C   0  0  0  0  0  0  0  0  0  0  0  0
    3.7080   -0.7121    0.0000 C   0  0  0  0  0  0  0  0  0  0  0  0
    3.2955   -1.4266    0.0000 C   0  0  0  0  0  0  0  0  0  0  0  0
    2.4705   -1.4266    0.0000 C   0  0  0  0  0  0  0  0  0  0  0  0
    2.0580   -2.1411    0.0000 C   0  0  0  0  0  0  0  0  0  0  0  0
    1.2330   -2.1411    0.0000 C   0  0  0  0  0  0  0  0  0  0  0  0
    3.7080   -2.1411    0.0000 C   0  0  0  0  0  0  0  0  0  0  0  0
    4.5330   -2.1411    0.0000 C   0  0  0  0  0  0  0  0  0  0  0  0
    4.9455   -1.4266    0.0000 C   0  0  0  0  0  0  0  0  0  0  0  0
    4.5330   -0.7121    0.0000 C   0  0  0  0  0  0  0  0  0  0  0  0
  1  2  1  0  0  0  0
  3  2  1  0  0  0  0
  4  3  2  0  0  0  0
  4  5  1  0  0  0  0
  5  6  2  0  0  0  0
  6  7  1  0  0  0  0
  8  7  1  0  0  0  0
  8  9  1  0  0  0  0
  9  4  1  0  0  0  0
 10  9  2  0  0  0  0
 11 10  1  0  0  0  0
  2 11  2  0  0  0  0
 12  8  2  0  0  0  0
 13 12  1  0  0  0  0
 14 13  2  0  0  0  0
 15 14  1  0  0  0  0
  7 15  2  0  0  0  0
M  END
> <ChemID>
100145

> <CAS>
2531-84-2

> <Original_SMILES>
Cc1cc2ccc3ccccc3c2cc1

> <preferred_name>
2-Methyl phenanthrene

> <dsstox_substance_id>
DTXSID1025649

> <dsstox_compound_id>
DTXCID505649

> <qc_level>
DSSTox_Low

> <Canonical_QSARr>
CC1C=C2C=CC3=CC=CC=C3C2=CC=1

> <InChI_Code_QSARr>
InChI=1S/C15H12/c1-11-6-9-15-13(10-11)8-7-12-4-2-3-5-14(12)15/h2-10H,1H3

> <InChI Key_QSARr>
KANLOADZXMMCQA-UHFFFAOYSA-N

> <Salt_Solvent>


> <Salt_Solvent_ID>
0

> <MPID>
294

> <LogHalfLife>
1.3617

> <Tr_1_Tst_0>
1

$$$$
100146
  Mrv171c012241912102D          

 10 12  0  0  0  0            999 V2000
   -1.5662   -0.1569    0.0000 C   0  0  0  0  0  0  0  0  0  0  0  0
   -1.0812   -0.8244    0.0000 C   0  0  0  0  0  0  0  0  0  0  0  0
   -0.2966   -0.5694    0.0000 C   0  0  0  0  0  0  0  0  0  0  0  0
    0.4179   -0.9819    0.0000 C   0  0  0  0  0  0  0  0  0  0  0  0
    0.6241   -0.1569    0.0000 C   0  0  0  0  0  0  0  0  0  0  0  0
    0.4179    0.6681    0.0000 C   0  0  0  0  0  0  0  0  0  0  0  0
   -0.2966    0.2556    0.0000 C   0  0  0  0  0  0  0  0  0  0  0  0
   -1.0812    0.5105    0.0000 C   0  0  0  0  0  0  0  0  0  0  0  0
    1.1323    0.2556    0.0000 C   0  0  0  0  0  0  0  0  0  0  0  0
    1.1323   -0.5694    0.0000 C   0  0  0  0  0  0  0  0  0  0  0  0
  2  1  1  0  0  0  0
  3  2  1  0  0  0  0
  3  4  1  0  0  0  0
  5  4  1  0  0  0  0
  6  5  1  0  0  0  0
  6  7  1  0  0  0  0
  7  3  1  0  0  0  0
  8  7  1  0  0  0  0
  1  8  1  0  0  0  0
  9  6  1  0  0  0  0
 10  9  1  0  0  0  0
  4 10  1  0  0  0  0
M  END
> <ChemID>
100146

> <CAS>
2825-82-3

> <Original_SMILES>
C1[C@@H]2CC[C@H]1[C@@H]1CCC[C@H]21

> <preferred_name>
Octahydro-exo-4,7-methano-1H-indene

> <dsstox_substance_id>
DTXSID2029244

> <dsstox_compound_id>
DTXCID00809530

> <qc_level>
DSSTox_High

> <Canonical_QSARr>
C1C2CCC1C1CCCC21

> <InChI_Code_QSARr>
InChI=1S/C10H16/c1-2-9-7-4-5-8(6-7)10(9)3-1/h7-10H,1-6H2

> <InChI Key_QSARr>
LPSXSORODABQKT-UHFFFAOYSA-N

> <Salt_Solvent>


> <Salt_Solvent_ID>
0

> <MPID>
295

> <LogHalfLife>
3.0

> <Tr_1_Tst_0>
0

$$$$
100147
  Mrv171c012241912102D          

  9  8  0  0  0  0            999 V2000
   -0.0095   -0.6415    0.0000 C   0  0  0  0  0  0  0  0  0  0  0  0
    0.7050   -0.2290    0.0000 C   0  0  0  0  0  0  0  0  0  0  0  0
    0.7050    0.5960    0.0000 C   0  0  0  0  0  0  0  0  0  0  0  0
    1.4194   -0.6415    0.0000 C   0  0  0  0  0  0  0  0  0  0  0  0
    2.1339   -0.2290    0.0000 C   0  0  0  0  0  0  0  0  0  0  0  0
    2.8484   -0.6415    0.0000 C   0  0  0  0  0  0  0  0  0  0  0  0
    3.5628   -0.2290    0.0000 C   0  0  0  0  0  0  0  0  0  0  0  0
    4.2773   -0.6415    0.0000 C   0  0  0  0  0  0  0  0  0  0  0  0
    4.9918   -0.2290    0.0000 C   0  0  0  0  0  0  0  0  0  0  0  0
  1  2  1  0  0  0  0
  2  3  1  0  0  0  0
  2  4  1  0  0  0  0
  4  5  1  0  0  0  0
  5  6  1  0  0  0  0
  6  7  1  0  0  0  0
  7  8  1  0  0  0  0
  8  9  1  0  0  0  0
M  END
> <ChemID>
100147

> <CAS>
3221-61-2

> <Original_SMILES>
CCCCCCC(C)C

> <preferred_name>


> <dsstox_substance_id>
DTXSID30863125

> <dsstox_compound_id>
DTXCID20811791

> <qc_level>


> <Canonical_QSARr>
CCCCCCC(C)C

> <InChI_Code_QSARr>
InChI=1S/C9H20/c1-4-5-6-7-8-9(2)3/h9H,4-8H2,1-3H3

> <InChI Key_QSARr>
ZUBZATZOEPUUQF-UHFFFAOYSA-N

> <Salt_Solvent>


> <Salt_Solvent_ID>
0

> <MPID>
296

> <LogHalfLife>
0.699

> <Tr_1_Tst_0>
1

$$$$
100149
  Mrv171c012241912102D          

  9  8  0  0  0  0            999 V2000
    0.8250    0.0000    0.0000 C   0  0  0  0  0  0  0  0  0  0  0  0
    0.8250   -0.8250    0.0000 C   0  0  0  0  0  0  0  0  0  0  0  0
    1.6500   -0.0000    0.0000 C   0  0  0  0  0  0  0  0  0  0  0  0
    0.8250    0.8250    0.0000 C   0  0  0  0  0  0  0  0  0  0  0  0
    0.1105    1.2375    0.0000 C   0  0  0  0  0  0  0  0  0  0  0  0
    0.1105    2.0625    0.0000 C   0  0  0  0  0  0  0  0  0  0  0  0
   -0.6039    2.4750    0.0000 C   0  0  0  0  0  0  0  0  0  0  0  0
    0.8250    2.4750    0.0000 C   0  0  0  0  0  0  0  0  0  0  0  0
    0.0000    0.0000    0.0000 C   0  0  0  0  0  0  0  0  0  0  0  0
  1  2  1  0  0  0  0
  1  3  1  0  0  0  0
  1  4  1  0  0  0  0
  4  5  1  0  0  0  0
  5  6  1  0  0  0  0
  6  7  1  0  0  0  0
  6  8  1  0  0  0  0
  1  9  1  0  0  0  0
M  END
> <ChemID>
100149

> <CAS>
3522-94-9

> <Original_SMILES>
CC(C)CCC(C)(C)C

> <preferred_name>
Hexane, 2,2,5-trimethyl-

> <dsstox_substance_id>
DTXSID0073326

> <dsstox_compound_id>
DTXCID0038968

> <qc_level>
Public_High

> <Canonical_QSARr>
CC(C)CCC(C)(C)C

> <InChI_Code_QSARr>
InChI=1S/C9H20/c1-8(2)6-7-9(3,4)5/h8H,6-7H2,1-5H3

> <InChI Key_QSARr>
HHOSMYBYIHNXNO-UHFFFAOYSA-N

> <Salt_Solvent>


> <Salt_Solvent_ID>
0

> <MPID>
297

> <LogHalfLife>
1.2553

> <Tr_1_Tst_0>
1

$$$$
100152
  Mrv171c012241912102D          

 34 33  0  0  0  0            999 V2000
    9.7076   -6.2564    0.0000 C   0  0  0  0  0  0  0  0  0  0  0  0
    8.9931   -5.8439    0.0000 C   0  0  0  0  0  0  0  0  0  0  0  0
    8.2786   -6.2564    0.0000 C   0  0  0  0  0  0  0  0  0  0  0  0
    7.5642   -5.8439    0.0000 C   0  0  0  0  0  0  0  0  0  0  0  0
    6.8497   -6.2564    0.0000 C   0  0  0  0  0  0  0  0  0  0  0  0
    6.1352   -5.8439    0.0000 C   0  0  0  0  0  0  0  0  0  0  0  0
    5.4208   -6.2564    0.0000 C   0  0  0  0  0  0  0  0  0  0  0  0
    4.7063   -5.8439    0.0000 C   0  0  0  0  0  0  0  0  0  0  0  0
    3.9918   -6.2564    0.0000 C   0  0  0  0  0  0  0  0  0  0  0  0
    3.2774   -5.8439    0.0000 C   0  0  0  0  0  0  0  0  0  0  0  0
    2.5629   -6.2564    0.0000 C   0  0  0  0  0  0  0  0  0  0  0  0
    1.8484   -5.8439    0.0000 C   0  0  0  0  0  0  0  0  0  0  0  0
    1.1339   -6.2564    0.0000 C   0  0  0  0  0  0  0  0  0  0  0  0
    0.4195   -5.8439    0.0000 C   0  0  0  0  0  0  0  0  0  0  0  0
   -0.2950   -6.2564    0.0000 C   0  0  0  0  0  0  0  0  0  0  0  0
   -1.0095   -5.8439    0.0000 C   0  0  0  0  0  0  0  0  0  0  0  0
   -1.7239   -6.2564    0.0000 C   0  0  0  0  0  0  0  0  0  0  0  0
   10.4221   -5.8439    0.0000 C   0  0  0  0  0  0  0  0  0  0  0  0
   11.1365   -6.2564    0.0000 C   0  0  0  0  0  0  0  0  0  0  0  0
   11.8510   -5.8439    0.0000 C   0  0  0  0  0  0  0  0  0  0  0  0
   12.5655   -6.2564    0.0000 C   0  0  0  0  0  0  0  0  0  0  0  0
   13.2799   -5.8439    0.0000 C   0  0  0  0  0  0  0  0  0  0  0  0
   13.9944   -6.2564    0.0000 C   0  0  0  0  0  0  0  0  0  0  0  0
   14.7089   -5.8439    0.0000 C   0  0  0  0  0  0  0  0  0  0  0  0
   15.4234   -6.2564    0.0000 C   0  0  0  0  0  0  0  0  0  0  0  0
   16.1378   -5.8439    0.0000 C   0  0  0  0  0  0  0  0  0  0  0  0
   16.8523   -6.2564    0.0000 C   0  0  0  0  0  0  0  0  0  0  0  0
   17.5668   -5.8439    0.0000 C   0  0  0  0  0  0  0  0  0  0  0  0
   18.2812   -6.2564    0.0000 C   0  0  0  0  0  0  0  0  0  0  0  0
   18.9957   -5.8439    0.0000 C   0  0  0  0  0  0  0  0  0  0  0  0
   19.7102   -6.2564    0.0000 C   0  0  0  0  0  0  0  0  0  0  0  0
   20.4247   -5.8439    0.0000 C   0  0  0  0  0  0  0  0  0  0  0  0
   21.1391   -6.2564    0.0000 C   0  0  0  0  0  0  0  0  0  0  0  0
   21.8536   -5.8439    0.0000 C   0  0  0  0  0  0  0  0  0  0  0  0
  1  2  1  0  0  0  0
  2  3  1  0  0  0  0
  3  4  1  0  0  0  0
  4  5  1  0  0  0  0
  5  6  1  0  0  0  0
  6  7  1  0  0  0  0
  7  8  1  0  0  0  0
  8  9  1  0  0  0  0
  9 10  1  0  0  0  0
 10 11  1  0  0  0  0
 11 12  1  0  0  0  0
 12 13  1  0  0  0  0
 13 14  1  0  0  0  0
 14 15  1  0  0  0  0
 15 16  1  0  0  0  0
 16 17  1  0  0  0  0
  1 18  1  0  0  0  0
 18 19  1  0  0  0  0
 19 20  1  0  0  0  0
 20 21  1  0  0  0  0
 21 22  1  0  0  0  0
 22 23  1  0  0  0  0
 23 24  1  0  0  0  0
 24 25  1  0  0  0  0
 25 26  1  0  0  0  0
 26 27  1  0  0  0  0
 27 28  1  0  0  0  0
 28 29  1  0  0  0  0
 29 30  1  0  0  0  0
 30 31  1  0  0  0  0
 31 32  1  0  0  0  0
 32 33  1  0  0  0  0
 33 34  1  0  0  0  0
M  END
> <ChemID>
100152

> <CAS>
14167-59-0

> <Original_SMILES>
CCCCCCCCCCCCCCCCCCCCCCCCCCCCCCCCCC

> <preferred_name>
Tetratriacontane

> <dsstox_substance_id>
DTXSID7058622

> <dsstox_compound_id>
DTXCID1032309

> <qc_level>
DSSTox_Low

> <Canonical_QSARr>
CCCCCCCCCCCCCCCCCCCCCCCCCCCCCCCCCC

> <InChI_Code_QSARr>
InChI=1S/C34H70/c1-3-5-7-9-11-13-15-17-19-21-23-25-27-29-31-33-34-32-30-28-26-24-22-20-18-16-14-12-10-8-6-4-2/h3-34H2,1-2H3

> <InChI Key_QSARr>
GWVDBZWVFGFBCN-UHFFFAOYSA-N

> <Salt_Solvent>


> <Salt_Solvent_ID>
0

> <MPID>
298

> <LogHalfLife>
2.5832

> <Tr_1_Tst_0>
1

$$$$
100153
  Mrv171c012241912102D          

 10  9  0  0  0  0            999 V2000
    0.0162   -1.2450    0.0000 C   0  0  0  0  0  0  0  0  0  0  0  0
    0.7307   -0.8325    0.0000 C   0  0  0  0  0  0  0  0  0  0  0  0
    0.7307   -0.0075    0.0000 C   0  0  0  0  0  0  0  0  0  0  0  0
    1.4451   -1.2450    0.0000 C   0  0  0  0  0  0  0  0  0  0  0  0
    2.1596   -0.8325    0.0000 C   0  0  0  0  0  0  0  0  0  0  0  0
    2.8741   -1.2450    0.0000 C   0  0  0  0  0  0  0  0  0  0  0  0
    2.8741   -2.0700    0.0000 C   0  0  0  0  0  0  0  0  0  0  0  0
    3.5886   -0.8325    0.0000 C   0  0  0  0  0  0  0  0  0  0  0  0
    4.3030   -1.2450    0.0000 C   0  0  0  0  0  0  0  0  0  0  0  0
    5.0175   -0.8325    0.0000 C   0  0  0  0  0  0  0  0  0  0  0  0
  1  2  1  0  0  0  0
  2  3  1  0  0  0  0
  2  4  1  0  0  0  0
  4  5  1  0  0  0  0
  5  6  1  0  0  0  0
  6  7  1  0  0  0  0
  6  8  1  0  0  0  0
  8  9  1  0  0  0  0
  9 10  1  0  0  0  0
M  END
> <ChemID>
100153

> <CAS>
15869-89-3

> <Original_SMILES>
CC(C)CCC(C)CCC

> <preferred_name>


> <dsstox_substance_id>
DTXSID70871244

> <dsstox_compound_id>
DTXCID50818915

> <qc_level>


> <Canonical_QSARr>
CC(C)CCC(C)CCC

> <InChI_Code_QSARr>
InChI=1S/C10H22/c1-5-6-10(4)8-7-9(2)3/h9-10H,5-8H2,1-4H3

> <InChI Key_QSARr>
HOAAQUNESXYFDT-UHFFFAOYSA-N

> <Salt_Solvent>


> <Salt_Solvent_ID>
0

> <MPID>
299

> <LogHalfLife>
0.301

> <Tr_1_Tst_0>
0

$$$$
100154
  Mrv171c012241912102D          

 14 13  0  0  0  0            999 V2000
    5.9363   -0.2062    0.0000 C   0  0  0  0  0  0  0  0  0  0  0  0
    5.2218    0.2063    0.0000 C   0  0  0  0  0  0  0  0  0  0  0  0
    4.5073   -0.2062    0.0000 C   0  0  0  0  0  0  0  0  0  0  0  0
    3.7928    0.2063    0.0000 C   0  0  0  0  0  0  0  0  0  0  0  0
    3.0784   -0.2062    0.0000 C   0  0  0  0  0  0  0  0  0  0  0  0
    2.3639    0.2063    0.0000 C   0  0  0  0  0  0  0  0  0  0  0  0
    1.6494   -0.2062    0.0000 C   0  0  0  0  0  0  0  0  0  0  0  0
    6.6507    0.2063    0.0000 C   0  0  0  0  0  0  0  0  0  0  0  0
    7.3652   -0.2062    0.0000 C   0  0  0  0  0  0  0  0  0  0  0  0
    8.0797    0.2062    0.0000 C   0  0  0  0  0  0  0  0  0  0  0  0
    8.7941   -0.2062    0.0000 C   0  0  0  0  0  0  0  0  0  0  0  0
    9.5086    0.2062    0.0000 C   0  0  0  0  0  0  0  0  0  0  0  0
   10.2231   -0.2063    0.0000 C   0  0  0  0  0  0  0  0  0  0  0  0
   10.9375    0.2062    0.0000 C   0  0  0  0  0  0  0  0  0  0  0  0
  1  2  1  0  0  0  0
  2  3  1  0  0  0  0
  3  4  1  0  0  0  0
  4  5  1  0  0  0  0
  5  6  1  0  0  0  0
  6  7  2  0  0  0  0
  1  8  1  0  0  0  0
  8  9  1  0  0  0  0
  9 10  1  0  0  0  0
 10 11  1  0  0  0  0
 11 12  1  0  0  0  0
 12 13  1  0  0  0  0
 13 14  2  0  0  0  0
M  END
> <ChemID>
100154

> <CAS>
21964-49-8

> <Original_SMILES>
C=CCCCCCCCCCCC=C

> <preferred_name>
Tetradeca-1,13-diene

> <dsstox_substance_id>
DTXSID80176373

> <dsstox_compound_id>
DTXCID3098864

> <qc_level>
Public_Medium

> <Canonical_QSARr>
C=CCCCCCCCCCCC=C

> <InChI_Code_QSARr>
InChI=1S/C14H26/c1-3-5-7-9-11-13-14-12-10-8-6-4-2/h3-4H,1-2,5-14H2

> <InChI Key_QSARr>
XMRSTLBCBDIKFI-UHFFFAOYSA-N

> <Salt_Solvent>


> <Salt_Solvent_ID>
0

> <MPID>
300

> <LogHalfLife>
1.1139

> <Tr_1_Tst_0>
1

$$$$
100159
  Mrv171c012241912102D          

 12 13  0  0  0  0            999 V2000
   -1.7862    0.0006    0.0000 C   0  0  0  0  0  0  0  0  0  0  0  0
   -1.0717    0.4131    0.0000 C   0  0  0  0  0  0  0  0  0  0  0  0
   -0.3572    0.0006    0.0000 C   0  0  0  0  0  0  0  0  0  0  0  0
    0.3573    0.4131    0.0000 C   0  0  0  0  0  0  0  0  0  0  0  0
    0.3573    1.2381    0.0000 C   0  0  0  0  0  0  0  0  0  0  0  0
    1.0717    0.0006    0.0000 C   0  0  0  0  0  0  0  0  0  0  0  0
    1.7862    0.4131    0.0000 C   0  0  0  0  0  0  0  0  0  0  0  0
    1.0717   -0.8244    0.0000 C   0  0  0  0  0  0  0  0  0  0  0  0
    0.3573   -1.2369    0.0000 C   0  0  0  0  0  0  0  0  0  0  0  0
   -0.3572   -0.8244    0.0000 C   0  0  0  0  0  0  0  0  0  0  0  0
   -1.0717   -1.2369    0.0000 C   0  0  0  0  0  0  0  0  0  0  0  0
   -1.7862   -0.8244    0.0000 C   0  0  0  0  0  0  0  0  0  0  0  0
  2  1  1  0  0  0  0
  3  2  2  0  0  0  0
  3  4  1  0  0  0  0
  4  5  1  0  0  0  0
  4  6  2  0  0  0  0
  6  7  1  0  0  0  0
  6  8  1  0  0  0  0
  8  9  2  0  0  0  0
  9 10  1  0  0  0  0
 10  3  1  0  0  0  0
 11 10  2  0  0  0  0
 12 11  1  0  0  0  0
  1 12  2  0  0  0  0
M  END
> <ChemID>
100159

> <CAS>
28804-88-8

> <Original_SMILES>
Cc1ccc2ccccc2c1C

> <preferred_name>
1,2-Dimethylnapthalene

> <dsstox_substance_id>
DTXSID7025130

> <dsstox_compound_id>
DTXCID001323300

> <qc_level>
DSSTox_High

> <Canonical_QSARr>
CC1C=CC2=CC=CC=C2C=1C

> <InChI_Code_QSARr>
InChI=1S/C12H12/c1-9-7-8-11-5-3-4-6-12(11)10(9)2/h3-8H,1-2H3

> <InChI Key_QSARr>
QNLZIZAQLLYXTC-UHFFFAOYSA-N

> <Salt_Solvent>


> <Salt_Solvent_ID>
0

> <MPID>
301

> <LogHalfLife>
1.1761

> <Tr_1_Tst_0>
0

$$$$
100161
  Mrv171c012241912102D          

 17 19  0  0  0  0            999 V2000
    3.9924    0.4507    0.0000 C   0  0  0  0  0  0  0  0  0  0  0  0
    4.4049    1.1652    0.0000 C   0  0  0  0  0  0  0  0  0  0  0  0
    3.9924    1.8797    0.0000 C   0  0  0  0  0  0  0  0  0  0  0  0
    5.2299    1.1652    0.0000 C   0  0  0  0  0  0  0  0  0  0  0  0
    5.6424    0.4507    0.0000 C   0  0  0  0  0  0  0  0  0  0  0  0
    5.2299   -0.2637    0.0000 C   0  0  0  0  0  0  0  0  0  0  0  0
    4.4049   -0.2637    0.0000 C   0  0  0  0  0  0  0  0  0  0  0  0
    3.9924   -0.9782    0.0000 C   0  0  0  0  0  0  0  0  0  0  0  0
    4.4049   -1.6927    0.0000 C   0  0  0  0  0  0  0  0  0  0  0  0
    3.1674   -0.9782    0.0000 C   0  0  0  0  0  0  0  0  0  0  0  0
    2.7549   -0.2637    0.0000 C   0  0  0  0  0  0  0  0  0  0  0  0
    1.9299   -0.2637    0.0000 C   0  0  0  0  0  0  0  0  0  0  0  0
    1.5174   -0.9782    0.0000 C   0  0  0  0  0  0  0  0  0  0  0  0
    1.5174    0.4507    0.0000 C   0  0  0  0  0  0  0  0  0  0  0  0
    1.9299    1.1652    0.0000 C   0  0  0  0  0  0  0  0  0  0  0  0
    2.7549    1.1652    0.0000 C   0  0  0  0  0  0  0  0  0  0  0  0
    3.1674    0.4507    0.0000 C   0  0  0  0  0  0  0  0  0  0  0  0
  2  1  2  0  0  0  0
  2  3  1  0  0  0  0
  4  2  1  0  0  0  0
  5  4  2  0  0  0  0
  6  5  1  0  0  0  0
  7  6  2  0  0  0  0
  7  1  1  0  0  0  0
  8  7  1  0  0  0  0
  8  9  1  0  0  0  0
 10  8  2  0  0  0  0
 11 10  1  0  0  0  0
 11 12  2  0  0  0  0
 12 13  1  0  0  0  0
 12 14  1  0  0  0  0
 14 15  2  0  0  0  0
 15 16  1  0  0  0  0
 16 17  2  0  0  0  0
  1 17  1  0  0  0  0
 17 11  1  0  0  0  0
M  END
> <ChemID>
100161

> <CAS>
30232-26-9

> <Original_SMILES>
Cc1cc2c(cccc2C)c2c1cccc2C

> <preferred_name>
Phenanthrene, trimethyl-

> <dsstox_substance_id>
DTXSID90184328

> <dsstox_compound_id>
DTXCID00106819

> <qc_level>
Public_Medium

> <Canonical_QSARr>
CC1C=CC=C2C=1C1=CC=CC(C)=C1C=C2C

> <InChI_Code_QSARr>
InChI=1S/C17H16/c1-11-6-4-9-15-16(11)10-13(3)14-8-5-7-12(2)17(14)15/h4-10H,1-3H3

> <InChI Key_QSARr>
RPXNJRYZAWDANB-UHFFFAOYSA-N

> <Salt_Solvent>


> <Salt_Solvent_ID>
0

> <MPID>
302

> <LogHalfLife>
1.9191

> <Tr_1_Tst_0>
1

$$$$
