Row450
  Mrv171c012261910192D          

 24 25  0  0  0  0            999 V2000
    5.8607   -4.3829    0.0000 O   0  0  0  0  0  0  0  0  0  0  0  0
    5.8607   -3.5579    0.0000 C   0  0  0  0  0  0  0  0  0  0  0  0
    5.1462   -3.1454    0.0000 C   0  0  0  0  0  0  0  0  0  0  0  0
    5.1462   -2.3204    0.0000 C   0  0  0  0  0  0  0  0  0  0  0  0
    4.4318   -1.9079    0.0000 C   0  0  0  0  0  0  0  0  0  0  0  0
    4.4318   -1.0829    0.0000 O   0  0  0  0  0  0  0  0  0  0  0  0
    3.7173   -0.6704    0.0000 C   0  0  0  0  0  0  0  0  0  0  0  0
    3.7173    0.1546    0.0000 C   0  0  0  0  0  0  0  0  0  0  0  0
    4.4318    0.5671    0.0000 Cl  0  0  0  0  0  0  0  0  0  0  0  0
    3.0028    0.5671    0.0000 C   0  0  0  0  0  0  0  0  0  0  0  0
    2.2883    0.1546    0.0000 C   0  0  0  0  0  0  0  0  0  0  0  0
    1.5739    0.5671    0.0000 C   0  0  0  0  0  0  0  0  0  0  0  0
    0.8594    0.9796    0.0000 F   0  0  0  0  0  0  0  0  0  0  0  0
    1.1614   -0.1474    0.0000 F   0  0  0  0  0  0  0  0  0  0  0  0
    1.9864    1.2816    0.0000 F   0  0  0  0  0  0  0  0  0  0  0  0
    2.2883   -0.6704    0.0000 C   0  0  0  0  0  0  0  0  0  0  0  0
    3.0028   -1.0829    0.0000 C   0  0  0  0  0  0  0  0  0  0  0  0
    3.7173   -2.3204    0.0000 C   0  0  0  0  0  0  0  0  0  0  0  0
    3.7173   -3.1454    0.0000 C   0  0  0  0  0  0  0  0  0  0  0  0
    4.4318   -3.5579    0.0000 C   0  0  0  0  0  0  0  0  0  0  0  0
    4.4318   -4.3829    0.0000 N   0  3  0  0  0  0  0  0  0  0  0  0
    5.1462   -4.7954    0.0000 O   0  5  0  0  0  0  0  0  0  0  0  0
    3.7173   -4.7954    0.0000 O   0  0  0  0  0  0  0  0  0  0  0  0
    6.5752   -3.1454    0.0000 O   0  0  0  0  0  0  0  0  0  0  0  0
  1  2  1  0  0  0  0
  2  3  1  0  0  0  0
  4  3  1  0  0  0  0
  5  4  2  0  0  0  0
  5  6  1  0  0  0  0
  6  7  1  0  0  0  0
  8  7  1  0  0  0  0
  8  9  1  0  0  0  0
 10  8  2  0  0  0  0
 11 10  1  0  0  0  0
 11 12  1  0  0  0  0
 12 13  1  0  0  0  0
 12 14  1  0  0  0  0
 12 15  1  0  0  0  0
 16 11  2  0  0  0  0
 17 16  1  0  0  0  0
  7 17  2  0  0  0  0
 18  5  1  0  0  0  0
 19 18  2  0  0  0  0
 20 19  1  0  0  0  0
  3 20  2  0  0  0  0
 20 21  1  0  0  0  0
 21 22  1  0  0  0  0
 21 23  2  0  0  0  0
  2 24  2  0  0  0  0
M  CHG  2  21   1  22  -1
M  END
> <ChemID>
10001

> <CAS>
50594-66-6

> <Original_SMILES>
[O-][N+](=O)c1ccc(cc1C(O)=O)Oc1ccc(cc1Cl)C(F)(F)F

> <preferred_name>
Acifluorfen

> <dsstox_substance_id>
DTXSID0020022

> <dsstox_compound_id>
DTXCID6022

> <Canonical_QSARr>
[O-][N+](=O)C1C=CC(=CC=1C(O)=O)OC1=CC=C(C=C1Cl)C(F)(F)F

> <InChI_Code_QSARr>
InChI=1S/C14H7ClF3NO5/c15-10-5-7(14(16,17)18)1-4-12(10)24-8-2-3-11(19(22)23)9(6-8)13(20)21/h1-6H,(H,20,21)

> <InChI Key_QSARr>
NUFNQYOELLVIPL-UHFFFAOYSA-N

> <Salt_Solvent>


> <Salt_Solvent_ID>
0

> <Clint>
0.2479732663618066

> <Tr_1_Tst_0>
0

$$$$
Row48
  Mrv171c012261910192D          

 14 15  0  0  0  0            999 V2000
    2.2188   -2.9273    0.0000 O   0  0  0  0  0  0  0  0  0  0  0  0
    2.2188   -2.1023    0.0000 C   0  0  0  0  0  0  0  0  0  0  0  0
    2.9332   -1.6898    0.0000 N   0  0  0  0  0  0  0  0  0  0  0  0
    3.6477   -2.1023    0.0000 C   0  0  0  0  0  0  0  0  0  0  0  0
    2.9332   -0.8648    0.0000 C   0  0  0  0  0  0  0  0  0  0  0  0
    3.6477   -0.4523    0.0000 O   0  0  0  0  0  0  0  0  0  0  0  0
    2.2188   -0.4523    0.0000 N   0  0  0  0  0  0  0  0  0  0  0  0
    2.2188    0.3727    0.0000 C   0  0  0  0  0  0  0  0  0  0  0  0
    1.5043   -0.8648    0.0000 C   0  0  0  0  0  0  0  0  0  0  0  0
    0.7197   -0.6098    0.0000 N   0  0  0  0  0  0  0  0  0  0  0  0
    0.2348   -1.2773    0.0000 C   0  0  0  0  0  0  0  0  0  0  0  0
    0.7197   -1.9447    0.0000 N   0  0  0  0  0  0  0  0  0  0  0  0
    0.4647   -2.7293    0.0000 C   0  0  0  0  0  0  0  0  0  0  0  0
    1.5043   -1.6898    0.0000 C   0  0  0  0  0  0  0  0  0  0  0  0
  1  2  2  0  0  0  0
  3  2  1  0  0  0  0
  3  4  1  0  0  0  0
  5  3  1  0  0  0  0
  5  6  2  0  0  0  0
  7  5  1  0  0  0  0
  7  8  1  0  0  0  0
  9  7  1  0  0  0  0
  9 10  1  0  0  0  0
 10 11  2  0  0  0  0
 11 12  1  0  0  0  0
 12 13  1  0  0  0  0
 12 14  1  0  0  0  0
  2 14  1  0  0  0  0
 14  9  2  0  0  0  0
M  END
> <ChemID>
10002

> <CAS>
58-08-2

> <Original_SMILES>
CN1C(=O)c2c([n]c[n]2C)N(C)C1=O

> <preferred_name>
Caffeine

> <dsstox_substance_id>
DTXSID0020232

> <dsstox_compound_id>
DTXCID40232

> <Canonical_QSARr>
CN1C(=O)C2=C(N=CN2C)N(C)C1=O

> <InChI_Code_QSARr>
InChI=1S/C8H10N4O2/c1-10-4-9-6-5(10)7(13)12(3)8(14)11(6)2/h4H,1-3H3

> <InChI Key_QSARr>
RYYVLZVUVIJVGH-UHFFFAOYSA-N

> <Salt_Solvent>


> <Salt_Solvent_ID>
0

> <Clint>
-7.0

> <Tr_1_Tst_0>
1

$$$$
Row148
  Mrv171c012261910192D          

 13 13  0  0  0  0            999 V2000
    3.3786   -1.7317    0.0000 O   0  0  0  0  0  0  0  0  0  0  0  0
    2.6641   -2.1442    0.0000 C   0  0  0  0  0  0  0  0  0  0  0  0
    1.9496   -1.7317    0.0000 N   0  0  0  0  0  0  0  0  0  0  0  0
    1.9496   -0.9067    0.0000 C   0  0  0  0  0  0  0  0  0  0  0  0
    2.6641   -0.4942    0.0000 C   0  0  0  0  0  0  0  0  0  0  0  0
    2.6641    0.3308    0.0000 C   0  0  0  0  0  0  0  0  0  0  0  0
    1.9496    0.7433    0.0000 C   0  0  0  0  0  0  0  0  0  0  0  0
    1.9496    1.5683    0.0000 Cl  0  0  0  0  0  0  0  0  0  0  0  0
    1.2351    0.3308    0.0000 C   0  0  0  0  0  0  0  0  0  0  0  0
    1.2351   -0.4942    0.0000 C   0  0  0  0  0  0  0  0  0  0  0  0
    2.6641   -2.9692    0.0000 N   0  0  0  0  0  0  0  0  0  0  0  0
    3.3786   -3.3817    0.0000 C   0  0  0  0  0  0  0  0  0  0  0  0
    1.9496   -3.3817    0.0000 C   0  0  0  0  0  0  0  0  0  0  0  0
  1  2  2  0  0  0  0
  2  3  1  0  0  0  0
  3  4  1  0  0  0  0
  5  4  1  0  0  0  0
  6  5  2  0  0  0  0
  7  6  1  0  0  0  0
  7  8  1  0  0  0  0
  9  7  2  0  0  0  0
 10  9  1  0  0  0  0
  4 10  2  0  0  0  0
  2 11  1  0  0  0  0
 11 12  1  0  0  0  0
 11 13  1  0  0  0  0
M  END
> <ChemID>
10003

> <CAS>
150-68-5

> <Original_SMILES>
CN(C)C(=O)Nc1ccc(Cl)cc1

> <preferred_name>
Monuron

> <dsstox_substance_id>
DTXSID0020311

> <dsstox_compound_id>
DTXCID80311

> <Canonical_QSARr>
CN(C)C(=O)NC1C=CC(Cl)=CC=1

> <InChI_Code_QSARr>
InChI=1S/C9H11ClN2O/c1-12(2)9(13)11-8-5-3-7(10)4-6-8/h3-6H,1-2H3,(H,11,13)

> <InChI Key_QSARr>
BMLIZLVNXIYGCK-UHFFFAOYSA-N

> <Salt_Solvent>


> <Salt_Solvent_ID>
0

> <Clint>
0.4893959217271294

> <Tr_1_Tst_0>
1

$$$$
Row157
  Mrv171c012261910192D          

 85 85  0  0  0  0            999 V2000
    3.5551    2.8918    0.0000 C   0  0  0  0  0  0  0  0  0  0  0  0
    3.5159    2.0678    0.0000 C   0  0  0  0  0  0  0  0  0  0  0  0
    2.7826    1.6897    0.0000 C   0  0  0  0  0  0  0  0  0  0  0  0
    2.7433    0.8657    0.0000 C   0  0  0  0  0  0  0  0  0  0  0  0
    3.4374    0.4196    0.0000 C   0  0  0  0  0  0  0  0  0  0  0  0
    4.1707    0.7977    0.0000 C   0  0  0  0  0  0  0  0  0  0  0  0
    3.3981   -0.4044    0.0000 C   0  0  0  0  0  0  0  0  0  0  0  0
    4.0921   -0.8505    0.0000 O   0  0  0  0  0  0  0  0  0  0  0  0
    2.6648   -0.7825    0.0000 C   0  0  0  0  0  0  0  0  0  0  0  0
    1.9708   -0.3364    0.0000 C   0  0  0  0  0  0  0  0  0  0  0  0
    2.0100    0.4876    0.0000 O   0  0  0  0  0  0  0  0  0  0  0  0
    1.2375   -0.7145    0.0000 N   0  0  0  0  0  0  0  0  0  0  0  0
    0.8250   -0.0000    0.0000 C   0  0  0  0  0  0  0  0  0  0  0  0
    1.2375    0.7145    0.0000 C   0  0  0  0  0  0  0  0  0  0  0  0
    0.8250    1.4289    0.0000 C   0  0  0  0  0  0  0  0  0  0  0  0
    0.0000    0.0000    0.0000 C   0  0  0  0  0  0  0  0  0  0  0  0
   -0.4125    0.7145    0.0000 O   0  0  0  0  0  0  0  0  0  0  0  0
   -0.4125   -0.7145    0.0000 N   0  0  0  0  0  0  0  0  0  0  0  0
   -0.1801   -1.5061    0.0000 C   0  0  0  0  0  0  0  0  0  0  0  0
   -1.1458   -0.3364    0.0000 C   0  0  0  0  0  0  0  0  0  0  0  0
   -1.8398   -0.7825    0.0000 C   0  0  0  0  0  0  0  0  0  0  0  0
   -2.5731   -0.4044    0.0000 O   0  0  0  0  0  0  0  0  0  0  0  0
   -1.8006   -1.6065    0.0000 N   0  0  0  0  0  0  0  0  0  0  0  0
   -1.1771   -2.1468    0.0000 C   0  0  0  0  0  0  0  0  0  0  0  0
   -2.6218   -1.6849    0.0000 C   0  0  0  0  0  0  0  0  0  0  0  0
   -3.1004   -1.0129    0.0000 C   0  0  0  0  0  0  0  0  0  0  0  0
   -3.9216   -1.0913    0.0000 C   0  0  0  0  0  0  0  0  0  0  0  0
   -4.2644   -1.8418    0.0000 C   0  0  0  0  0  0  0  0  0  0  0  0
   -4.4002   -0.4193    0.0000 C   0  0  0  0  0  0  0  0  0  0  0  0
   -2.9646   -2.4354    0.0000 C   0  0  0  0  0  0  0  0  0  0  0  0
   -3.7858   -2.5138    0.0000 O   0  0  0  0  0  0  0  0  0  0  0  0
   -2.4860   -3.1074    0.0000 N   0  0  0  0  0  0  0  0  0  0  0  0
   -3.1345   -3.6174    0.0000 C   0  0  0  0  0  0  0  0  0  0  0  0
   -3.9004   -3.3108    0.0000 C   0  0  0  0  0  0  0  0  0  0  0  0
   -4.5489   -3.8208    0.0000 C   0  0  0  0  0  0  0  0  0  0  0  0
   -4.2644   -2.5704    0.0000 C   0  0  0  0  0  0  0  0  0  0  0  0
   -3.0171   -4.4340    0.0000 C   0  0  0  0  0  0  0  0  0  0  0  0
   -3.6656   -4.9440    0.0000 O   0  0  0  0  0  0  0  0  0  0  0  0
   -2.2512   -4.7406    0.0000 N   0  0  0  0  0  0  0  0  0  0  0  0
   -1.5007   -4.3979    0.0000 C   0  0  0  0  0  0  0  0  0  0  0  0
   -2.5210   -5.5203    0.0000 C   0  0  0  0  0  0  0  0  0  0  0  0
   -3.3311   -5.6764    0.0000 C   0  0  0  0  0  0  0  0  0  0  0  0
   -3.6009   -6.4560    0.0000 C   0  0  0  0  0  0  0  0  0  0  0  0
   -3.0607   -7.0795    0.0000 C   0  0  0  0  0  0  0  0  0  0  0  0
   -4.4110   -6.6121    0.0000 C   0  0  0  0  0  0  0  0  0  0  0  0
   -1.9808   -6.1437    0.0000 C   0  0  0  0  0  0  0  0  0  0  0  0
   -2.2506   -6.9234    0.0000 O   0  0  0  0  0  0  0  0  0  0  0  0
   -1.1707   -5.9876    0.0000 N   0  0  0  0  0  0  0  0  0  0  0  0
   -0.9762   -6.7894    0.0000 C   0  0  0  0  0  0  0  0  0  0  0  0
   -1.5732   -7.3587    0.0000 C   0  0  0  0  0  0  0  0  0  0  0  0
   -0.1846   -7.0218    0.0000 C   0  0  0  0  0  0  0  0  0  0  0  0
    0.0099   -7.8235    0.0000 O   0  0  0  0  0  0  0  0  0  0  0  0
    0.4125   -6.4525    0.0000 N   0  0  0  0  0  0  0  0  0  0  0  0
    1.0096   -7.0218    0.0000 C   0  0  0  0  0  0  0  0  0  0  0  0
    0.8151   -7.8235    0.0000 C   0  0  0  0  0  0  0  0  0  0  0  0
    1.8012   -6.7894    0.0000 C   0  0  0  0  0  0  0  0  0  0  0  0
    2.3982   -7.3587    0.0000 O   0  0  0  0  0  0  0  0  0  0  0  0
    1.9957   -5.9876    0.0000 N   0  0  0  0  0  0  0  0  0  0  0  0
    1.5496   -5.2936    0.0000 C   0  0  0  0  0  0  0  0  0  0  0  0
    2.8058   -6.1437    0.0000 C   0  0  0  0  0  0  0  0  0  0  0  0
    3.0756   -6.9234    0.0000 C   0  0  0  0  0  0  0  0  0  0  0  0
    3.8857   -7.0795    0.0000 C   0  0  0  0  0  0  0  0  0  0  0  0
    4.4259   -6.4560    0.0000 C   0  0  0  0  0  0  0  0  0  0  0  0
    4.1555   -7.8591    0.0000 C   0  0  0  0  0  0  0  0  0  0  0  0
    3.3460   -5.5203    0.0000 C   0  0  0  0  0  0  0  0  0  0  0  0
    4.1561   -5.6764    0.0000 O   0  0  0  0  0  0  0  0  0  0  0  0
    3.0762   -4.7406    0.0000 N   0  0  0  0  0  0  0  0  0  0  0  0
    2.3257   -4.3979    0.0000 C   0  0  0  0  0  0  0  0  0  0  0  0
    3.8421   -4.4340    0.0000 C   0  0  0  0  0  0  0  0  0  0  0  0
    4.4906   -4.9440    0.0000 C   0  0  0  0  0  0  0  0  0  0  0  0
    5.2565   -4.6374    0.0000 C   0  0  0  0  0  0  0  0  0  0  0  0
    5.3739   -3.8208    0.0000 C   0  0  0  0  0  0  0  0  0  0  0  0
    5.9050   -5.1473    0.0000 C   0  0  0  0  0  0  0  0  0  0  0  0
    3.9595   -3.6174    0.0000 C   0  0  0  0  0  0  0  0  0  0  0  0
    4.7254   -3.3108    0.0000 O   0  0  0  0  0  0  0  0  0  0  0  0
    3.3110   -3.1074    0.0000 N   0  0  0  0  0  0  0  0  0  0  0  0
    2.4944   -3.2248    0.0000 C   0  0  0  0  0  0  0  0  0  0  0  0
    3.7896   -2.4354    0.0000 C   0  0  0  0  0  0  0  0  0  0  0  0
    4.6108   -2.5138    0.0000 C   0  0  0  0  0  0  0  0  0  0  0  0
    5.0894   -1.8418    0.0000 C   0  0  0  0  0  0  0  0  0  0  0  0
    5.1687   -3.1216    0.0000 C   0  0  0  0  0  0  0  0  0  0  0  0
    3.4468   -1.6849    0.0000 C   0  0  0  0  0  0  0  0  0  0  0  0
    4.1096   -1.1937    0.0000 O   0  0  0  0  0  0  0  0  0  0  0  0
    2.6256   -1.6065    0.0000 N   0  0  0  0  0  0  0  0  0  0  0  0
    2.0021   -2.1468    0.0000 C   0  0  0  0  0  0  0  0  0  0  0  0
  2  1  1  4  0  0  0
  2  3  2  0  0  0  0
  3  4  1  0  0  0  0
  4  5  1  0  0  0  0
  5  6  1  0  0  0  0
  5  7  1  0  0  0  0
  7  8  1  0  0  0  0
  7  9  1  0  0  0  0
  9 10  1  0  0  0  0
 10 11  2  0  0  0  0
 10 12  1  0  0  0  0
 12 13  1  0  0  0  0
 13 14  1  0  0  0  0
 14 15  1  0  0  0  0
 13 16  1  0  0  0  0
 16 17  2  0  0  0  0
 16 18  1  0  0  0  0
 18 19  1  0  0  0  0
 18 20  1  0  0  0  0
 20 21  1  0  0  0  0
 21 22  2  0  0  0  0
 21 23  1  0  0  0  0
 23 24  1  0  0  0  0
 23 25  1  0  0  0  0
 25 26  1  0  0  0  0
 26 27  1  0  0  0  0
 27 28  1  0  0  0  0
 27 29  1  0  0  0  0
 25 30  1  0  0  0  0
 30 31  2  0  0  0  0
 30 32  1  0  0  0  0
 32 33  1  0  0  0  0
 33 34  1  0  0  0  0
 34 35  1  0  0  0  0
 34 36  1  0  0  0  0
 33 37  1  0  0  0  0
 37 38  2  0  0  0  0
 37 39  1  0  0  0  0
 39 40  1  0  0  0  0
 39 41  1  0  0  0  0
 41 42  1  0  0  0  0
 42 43  1  0  0  0  0
 43 44  1  0  0  0  0
 43 45  1  0  0  0  0
 41 46  1  0  0  0  0
 46 47  2  0  0  0  0
 46 48  1  0  0  0  0
 48 49  1  0  0  0  0
 49 50  1  0  0  0  0
 49 51  1  0  0  0  0
 51 52  2  0  0  0  0
 51 53  1  0  0  0  0
 53 54  1  0  0  0  0
 54 55  1  0  0  0  0
 54 56  1  0  0  0  0
 56 57  2  0  0  0  0
 56 58  1  0  0  0  0
 58 59  1  0  0  0  0
 58 60  1  0  0  0  0
 60 61  1  0  0  0  0
 61 62  1  0  0  0  0
 62 63  1  0  0  0  0
 62 64  1  0  0  0  0
 60 65  1  0  0  0  0
 65 66  2  0  0  0  0
 65 67  1  0  0  0  0
 67 68  1  0  0  0  0
 67 69  1  0  0  0  0
 69 70  1  0  0  0  0
 70 71  1  0  0  0  0
 71 72  1  0  0  0  0
 71 73  1  0  0  0  0
 69 74  1  0  0  0  0
 74 75  2  0  0  0  0
 74 76  1  0  0  0  0
 76 77  1  0  0  0  0
 76 78  1  0  0  0  0
 78 79  1  0  0  0  0
 79 80  1  0  0  0  0
 79 81  1  0  0  0  0
 78 82  1  0  0  0  0
 82 83  2  0  0  0  0
 82 84  1  0  0  0  0
  9 84  1  0  0  0  0
 84 85  1  0  0  0  0
M  END
> <ChemID>
10004

> <CAS>
59865-13-3

> <Original_SMILES>
C/C=C/C[C@@H](C)[C@@H](O)[C@H]1C(=O)N[C@@H](CC)C(=O)N(C)CC(=O)N(C)[C@@H](CC(C)C)C(=O)N[C@@H](C(C)C)C(=O)N(C)[C@@H](CC(C)C)C(=O)N[C@@H](C)C(=O)N[C@H](C)C(=O)N(C)[C@@H](CC(C)C)C(=O)N(C)[C@@H](CC(C)C)C(=O)N(C)[C@@H](C(C)C)C(=O)N1C

> <preferred_name>
Cyclosporin A

> <dsstox_substance_id>
DTXSID0020365

> <dsstox_compound_id>
DTXCID00365

> <Canonical_QSARr>
CC=CCC(C)C(O)C1C(=O)NC(CC)C(=O)N(C)CC(=O)N(C)C(CC(C)C)C(=O)NC(C(C)C)C(=O)N(C)C(CC(C)C)C(=O)NC(C)C(=O)NC(C)C(=O)N(C)C(CC(C)C)C(=O)N(C)C(CC(C)C)C(=O)N(C)C(C(C)C)C(=O)N1C

> <InChI_Code_QSARr>
InChI=1S/C62H111N11O12/c1-25-27-28-40(15)52(75)51-56(79)65-43(26-2)58(81)67(18)33-48(74)68(19)44(29-34(3)4)55(78)66-49(38(11)12)61(84)69(20)45(30-35(5)6)54(77)63-41(16)53(76)64-42(17)57(80)70(21)46(31-36(7)8)59(82)71(22)47(32-37(9)10)60(83)72(23)50(39(13)14)62(85)73(51)24/h25,27,34-47,49-52,75H,26,28-33H2,1-24H3,(H,63,77)(H,64,76)(H,65,79)(H,66,78)

> <InChI Key_QSARr>
PMATZTZNYRCHOR-UHFFFAOYSA-N

> <Salt_Solvent>


> <Salt_Solvent_ID>
0

> <Clint>
0.5440680443502756

> <Tr_1_Tst_0>
1

$$$$
Row125
  Mrv171c012261910192D          

 14 14  0  0  0  0            999 V2000
    3.4189   -1.1503    0.0000 Cl  0  0  0  0  0  0  0  0  0  0  0  0
    2.7044   -0.7378    0.0000 C   0  0  0  0  0  0  0  0  0  0  0  0
    2.7044    0.0872    0.0000 C   0  0  0  0  0  0  0  0  0  0  0  0
    1.9899    0.4997    0.0000 C   0  0  0  0  0  0  0  0  0  0  0  0
    1.9899    1.3247    0.0000 Cl  0  0  0  0  0  0  0  0  0  0  0  0
    1.2754    0.0872    0.0000 C   0  0  0  0  0  0  0  0  0  0  0  0
    1.2754   -0.7378    0.0000 C   0  0  0  0  0  0  0  0  0  0  0  0
    1.9899   -1.1503    0.0000 C   0  0  0  0  0  0  0  0  0  0  0  0
    1.9899   -1.9753    0.0000 O   0  0  0  0  0  0  0  0  0  0  0  0
    2.7044   -2.3878    0.0000 C   0  0  0  0  0  0  0  0  0  0  0  0
    3.4189   -1.9753    0.0000 C   0  0  0  0  0  0  0  0  0  0  0  0
    2.7044   -3.2128    0.0000 C   0  0  0  0  0  0  0  0  0  0  0  0
    3.4189   -3.6253    0.0000 O   0  0  0  0  0  0  0  0  0  0  0  0
    1.9899   -3.6253    0.0000 O   0  0  0  0  0  0  0  0  0  0  0  0
  1  2  1  0  0  0  0
  3  2  1  0  0  0  0
  4  3  2  0  0  0  0
  4  5  1  0  0  0  0
  6  4  1  0  0  0  0
  7  6  2  0  0  0  0
  8  7  1  0  0  0  0
  2  8  2  0  0  0  0
  8  9  1  0  0  0  0
  9 10  1  0  0  0  0
 10 11  1  0  0  0  0
 10 12  1  0  0  0  0
 12 13  1  0  0  0  0
 12 14  2  0  0  0  0
M  END
> <ChemID>
10005

> <CAS>
120-36-5

> <Original_SMILES>
CC(Oc1ccc(Cl)cc1Cl)C(O)=O

> <preferred_name>
Dichlorprop

> <dsstox_substance_id>
DTXSID0020440

> <dsstox_compound_id>
DTXCID20440

> <Canonical_QSARr>
CC(OC1C=CC(Cl)=CC=1Cl)C(O)=O

> <InChI_Code_QSARr>
InChI=1S/C9H8Cl2O3/c1-5(9(12)13)14-8-3-2-6(10)4-7(8)11/h2-5H,1H3,(H,12,13)

> <InChI Key_QSARr>
MZHCENGPTKEIGP-UHFFFAOYSA-N

> <Salt_Solvent>


> <Salt_Solvent_ID>
0

> <Clint>
0.34830486304816066

> <Tr_1_Tst_0>
1

$$$$
Row0
  Mrv171c012261910192D          

 13 13  0  0  0  0            999 V2000
    3.0176   -3.3906    0.0000 C   0  0  0  0  0  0  0  0  0  0  0  0
    3.0176   -2.5656    0.0000 C   0  0  0  0  0  0  0  0  0  0  0  0
    2.3031   -2.1531    0.0000 O   0  0  0  0  0  0  0  0  0  0  0  0
    2.3031   -1.3281    0.0000 C   0  0  0  0  0  0  0  0  0  0  0  0
    3.0176   -0.9156    0.0000 C   0  0  0  0  0  0  0  0  0  0  0  0
    3.0176   -0.0906    0.0000 C   0  0  0  0  0  0  0  0  0  0  0  0
    2.3031    0.3219    0.0000 C   0  0  0  0  0  0  0  0  0  0  0  0
    2.3031    1.1469    0.0000 Cl  0  0  0  0  0  0  0  0  0  0  0  0
    1.5887   -0.0906    0.0000 C   0  0  0  0  0  0  0  0  0  0  0  0
    1.5887   -0.9156    0.0000 C   0  0  0  0  0  0  0  0  0  0  0  0
    0.8742   -1.3281    0.0000 Cl  0  0  0  0  0  0  0  0  0  0  0  0
    3.7321   -3.8031    0.0000 O   0  0  0  0  0  0  0  0  0  0  0  0
    2.3031   -3.8031    0.0000 O   0  0  0  0  0  0  0  0  0  0  0  0
  1  2  1  0  0  0  0
  2  3  1  0  0  0  0
  3  4  1  0  0  0  0
  5  4  1  0  0  0  0
  6  5  2  0  0  0  0
  7  6  1  0  0  0  0
  7  8  1  0  0  0  0
  9  7  2  0  0  0  0
 10  9  1  0  0  0  0
  4 10  2  0  0  0  0
 10 11  1  0  0  0  0
  1 12  1  0  0  0  0
  1 13  2  0  0  0  0
M  END
> <ChemID>
10006

> <CAS>
94-75-7

> <Original_SMILES>
OC(=O)COc1ccc(Cl)cc1Cl

> <preferred_name>
2,4-Dichlorophenoxyacetic acid

> <dsstox_substance_id>
DTXSID0020442

> <dsstox_compound_id>
DTXCID80442

> <Canonical_QSARr>
OC(=O)COC1C=CC(Cl)=CC=1Cl

> <InChI_Code_QSARr>
InChI=1S/C8H6Cl2O3/c9-5-1-2-7(6(10)3-5)13-4-8(11)12/h1-3H,4H2,(H,11,12)

> <InChI Key_QSARr>
OVSKIKFHRZPJSS-UHFFFAOYSA-N

> <Salt_Solvent>


> <Salt_Solvent_ID>
0

> <Clint>
-7.0

> <Tr_1_Tst_0>
1

$$$$
Row247
  Mrv171c012261910192D          

 14 14  0  0  0  0            999 V2000
    3.7744   -2.5334    0.0000 Cl  0  0  0  0  0  0  0  0  0  0  0  0
    3.0599   -2.1209    0.0000 C   0  0  0  0  0  0  0  0  0  0  0  0
    3.0599   -1.2959    0.0000 C   0  0  0  0  0  0  0  0  0  0  0  0
    2.3454   -0.8834    0.0000 C   0  0  0  0  0  0  0  0  0  0  0  0
    2.3454   -0.0584    0.0000 N   0  0  0  0  0  0  0  0  0  0  0  0
    1.6310    0.3541    0.0000 C   0  0  0  0  0  0  0  0  0  0  0  0
    1.6310    1.1791    0.0000 N   0  0  0  0  0  0  0  0  0  0  0  0
    0.9165    1.5916    0.0000 C   0  0  0  0  0  0  0  0  0  0  0  0
    2.3454    1.5916    0.0000 C   0  0  0  0  0  0  0  0  0  0  0  0
    0.9165   -0.0584    0.0000 O   0  0  0  0  0  0  0  0  0  0  0  0
    1.6310   -1.2959    0.0000 C   0  0  0  0  0  0  0  0  0  0  0  0
    1.6310   -2.1209    0.0000 C   0  0  0  0  0  0  0  0  0  0  0  0
    2.3454   -2.5334    0.0000 C   0  0  0  0  0  0  0  0  0  0  0  0
    2.3454   -3.3584    0.0000 Cl  0  0  0  0  0  0  0  0  0  0  0  0
  1  2  1  0  0  0  0
  3  2  1  0  0  0  0
  4  3  2  0  0  0  0
  4  5  1  0  0  0  0
  5  6  1  0  0  0  0
  6  7  1  0  0  0  0
  7  8  1  0  0  0  0
  7  9  1  0  0  0  0
  6 10  2  0  0  0  0
 11  4  1  0  0  0  0
 12 11  2  0  0  0  0
 13 12  1  0  0  0  0
  2 13  2  0  0  0  0
 13 14  1  0  0  0  0
M  END
> <ChemID>
10007

> <CAS>
330-54-1

> <Original_SMILES>
CN(C)C(=O)Nc1cc(Cl)c(Cl)cc1

> <preferred_name>
Diuron

> <dsstox_substance_id>
DTXSID0020446

> <dsstox_compound_id>
DTXCID00446

> <Canonical_QSARr>
CN(C)C(=O)NC1=CC(Cl)=C(Cl)C=C1

> <InChI_Code_QSARr>
InChI=1S/C9H10Cl2N2O/c1-13(2)9(14)12-6-3-4-7(10)8(11)5-6/h3-5H,1-2H3,(H,12,14)

> <InChI Key_QSARr>
XMTQQYYKAHVGBJ-UHFFFAOYSA-N

> <Salt_Solvent>


> <Salt_Solvent_ID>
0

> <Clint>
1.0845762779343309

> <Tr_1_Tst_0>
1

$$$$
Row47
  Mrv171c012261910192D          

 13 13  0  0  0  0            999 V2000
    2.6359   -2.9487    0.0000 O   0  0  0  0  0  0  0  0  0  0  0  0
    2.6359   -2.1237    0.0000 C   0  0  0  0  0  0  0  0  0  0  0  0
    3.3504   -1.7112    0.0000 C   0  0  0  0  0  0  0  0  0  0  0  0
    3.3504   -0.8862    0.0000 C   0  0  0  0  0  0  0  0  0  0  0  0
    2.6359   -0.4737    0.0000 C   0  0  0  0  0  0  0  0  0  0  0  0
    2.6359    0.3513    0.0000 N   0  3  0  0  0  0  0  0  0  0  0  0
    1.9215    0.7638    0.0000 O   0  5  0  0  0  0  0  0  0  0  0  0
    3.3504    0.7638    0.0000 O   0  0  0  0  0  0  0  0  0  0  0  0
    1.9215   -0.8862    0.0000 C   0  0  0  0  0  0  0  0  0  0  0  0
    1.9215   -1.7112    0.0000 C   0  0  0  0  0  0  0  0  0  0  0  0
    1.2070   -2.1237    0.0000 N   0  3  0  0  0  0  0  0  0  0  0  0
    1.2070   -2.9487    0.0000 O   0  5  0  0  0  0  0  0  0  0  0  0
    0.4925   -1.7112    0.0000 O   0  0  0  0  0  0  0  0  0  0  0  0
  1  2  1  0  0  0  0
  3  2  1  0  0  0  0
  4  3  2  0  0  0  0
  5  4  1  0  0  0  0
  5  6  1  0  0  0  0
  6  7  1  0  0  0  0
  6  8  2  0  0  0  0
  9  5  2  0  0  0  0
 10  9  1  0  0  0  0
  2 10  2  0  0  0  0
 10 11  1  0  0  0  0
 11 12  1  0  0  0  0
 11 13  2  0  0  0  0
M  CHG  4   6   1   7  -1  11   1  12  -1
M  END
> <ChemID>
10008

> <CAS>
51-28-5

> <Original_SMILES>
[O-][N+](=O)c1cc(ccc1O)[N+]([O-])=O

> <preferred_name>
2,4-Dinitrophenol

> <dsstox_substance_id>
DTXSID0020523

> <dsstox_compound_id>
DTXCID80523

> <Canonical_QSARr>
[O-][N+](=O)C1C=C(C=CC=1O)[N+]([O-])=O

> <InChI_Code_QSARr>
InChI=1S/C6H4N2O5/c9-6-2-1-4(7(10)11)3-5(6)8(12)13/h1-3,9H

> <InChI Key_QSARr>
UFBJCMHMOXMLKC-UHFFFAOYSA-N

> <Salt_Solvent>


> <Salt_Solvent_ID>
0

> <Clint>
-7.0

> <Tr_1_Tst_0>
1

$$$$
Row28
  Mrv171c012261910192D          

 13 13  0  0  0  0            999 V2000
    2.6359   -2.9487    0.0000 C   0  0  0  0  0  0  0  0  0  0  0  0
    2.6359   -2.1237    0.0000 C   0  0  0  0  0  0  0  0  0  0  0  0
    3.3504   -1.7112    0.0000 C   0  0  0  0  0  0  0  0  0  0  0  0
    3.3504   -0.8862    0.0000 C   0  0  0  0  0  0  0  0  0  0  0  0
    2.6359   -0.4737    0.0000 C   0  0  0  0  0  0  0  0  0  0  0  0
    2.6359    0.3513    0.0000 N   0  3  0  0  0  0  0  0  0  0  0  0
    1.9215    0.7638    0.0000 O   0  5  0  0  0  0  0  0  0  0  0  0
    3.3504    0.7638    0.0000 O   0  0  0  0  0  0  0  0  0  0  0  0
    1.9215   -0.8862    0.0000 C   0  0  0  0  0  0  0  0  0  0  0  0
    1.9215   -1.7112    0.0000 C   0  0  0  0  0  0  0  0  0  0  0  0
    1.2070   -2.1237    0.0000 N   0  3  0  0  0  0  0  0  0  0  0  0
    1.2070   -2.9487    0.0000 O   0  5  0  0  0  0  0  0  0  0  0  0
    0.4925   -1.7112    0.0000 O   0  0  0  0  0  0  0  0  0  0  0  0
  1  2  1  0  0  0  0
  3  2  1  0  0  0  0
  4  3  2  0  0  0  0
  5  4  1  0  0  0  0
  5  6  1  0  0  0  0
  6  7  1  0  0  0  0
  6  8  2  0  0  0  0
  9  5  2  0  0  0  0
 10  9  1  0  0  0  0
  2 10  2  0  0  0  0
 10 11  1  0  0  0  0
 11 12  1  0  0  0  0
 11 13  2  0  0  0  0
M  CHG  4   6   1   7  -1  11   1  12  -1
M  END
> <ChemID>
10009

> <CAS>
121-14-2

> <Original_SMILES>
Cc1ccc(cc1[N+]([O-])=O)[N+]([O-])=O

> <preferred_name>
2,4-Dinitrotoluene

> <dsstox_substance_id>
DTXSID0020529

> <dsstox_compound_id>
DTXCID60529

> <Canonical_QSARr>
CC1C=CC(=CC=1[N+]([O-])=O)[N+]([O-])=O

> <InChI_Code_QSARr>
InChI=1S/C7H6N2O4/c1-5-2-3-6(8(10)11)4-7(5)9(12)13/h2-4H,1H3

> <InChI Key_QSARr>
RMBFBMJGBANMMK-UHFFFAOYSA-N

> <Salt_Solvent>


> <Salt_Solvent_ID>
0

> <Clint>
-7.0

> <Tr_1_Tst_0>
1

$$$$
Row498
  Mrv171c012261910192D          

 26 25  0  0  0  0            999 V2000
    2.7458   -3.9001    0.0000 C   0  0  0  0  0  0  0  0  0  0  0  0
    2.0313   -3.4876    0.0000 C   0  0  0  0  0  0  0  0  0  0  0  0
    2.0313   -2.6626    0.0000 C   0  0  0  0  0  0  0  0  0  0  0  0
    1.3169   -2.2501    0.0000 C   0  0  0  0  0  0  0  0  0  0  0  0
    0.6024   -2.6626    0.0000 C   0  0  0  0  0  0  0  0  0  0  0  0
   -0.1121   -2.2501    0.0000 C   0  0  0  0  0  0  0  0  0  0  0  0
   -0.8265   -2.6626    0.0000 C   0  0  0  0  0  0  0  0  0  0  0  0
    2.7458   -2.2501    0.0000 C   0  0  0  0  0  0  0  0  0  0  0  0
    3.4603   -2.6626    0.0000 O   0  0  0  0  0  0  0  0  0  0  0  0
    4.1748   -2.2501    0.0000 C   0  0  0  0  0  0  0  0  0  0  0  0
    4.8892   -2.6626    0.0000 C   0  0  0  0  0  0  0  0  0  0  0  0
    5.6037   -2.2501    0.0000 C   0  0  0  0  0  0  0  0  0  0  0  0
    6.3182   -2.6626    0.0000 C   0  0  0  0  0  0  0  0  0  0  0  0
    7.0326   -2.2501    0.0000 C   0  0  0  0  0  0  0  0  0  0  0  0
    7.7471   -2.6626    0.0000 C   0  0  0  0  0  0  0  0  0  0  0  0
    8.4616   -2.2501    0.0000 O   0  0  0  0  0  0  0  0  0  0  0  0
    9.1761   -2.6626    0.0000 C   0  0  0  0  0  0  0  0  0  0  0  0
    9.8905   -2.2501    0.0000 C   0  0  0  0  0  0  0  0  0  0  0  0
    9.8905   -1.4251    0.0000 C   0  0  0  0  0  0  0  0  0  0  0  0
   10.6050   -1.0126    0.0000 C   0  0  0  0  0  0  0  0  0  0  0  0
   10.6050   -2.6626    0.0000 C   0  0  0  0  0  0  0  0  0  0  0  0
   11.3195   -2.2501    0.0000 C   0  0  0  0  0  0  0  0  0  0  0  0
   12.0339   -2.6626    0.0000 C   0  0  0  0  0  0  0  0  0  0  0  0
   12.7484   -2.2501    0.0000 C   0  0  0  0  0  0  0  0  0  0  0  0
    7.7471   -3.4876    0.0000 O   0  0  0  0  0  0  0  0  0  0  0  0
    4.1748   -1.4251    0.0000 O   0  0  0  0  0  0  0  0  0  0  0  0
  1  2  1  0  0  0  0
  2  3  1  0  0  0  0
  3  4  1  0  0  0  0
  4  5  1  0  0  0  0
  5  6  1  0  0  0  0
  6  7  1  0  0  0  0
  3  8  1  0  0  0  0
  8  9  1  0  0  0  0
  9 10  1  0  0  0  0
 10 11  1  0  0  0  0
 11 12  1  0  0  0  0
 12 13  1  0  0  0  0
 13 14  1  0  0  0  0
 14 15  1  0  0  0  0
 15 16  1  0  0  0  0
 16 17  1  0  0  0  0
 17 18  1  0  0  0  0
 18 19  1  0  0  0  0
 19 20  1  0  0  0  0
 18 21  1  0  0  0  0
 21 22  1  0  0  0  0
 22 23  1  0  0  0  0
 23 24  1  0  0  0  0
 15 25  2  0  0  0  0
 10 26  2  0  0  0  0
M  END
> <ChemID>
10010

> <CAS>
103-23-1

> <Original_SMILES>
CCCCC(COC(=O)CCCCC(=O)OCC(CCCC)CC)CC

> <preferred_name>
Bis(2-ethylhexyl)hexanedioate

> <dsstox_substance_id>
DTXSID0020606

> <dsstox_compound_id>
DTXCID40606

> <Canonical_QSARr>
CCCCC(COC(=O)CCCCC(=O)OCC(CCCC)CC)CC

> <InChI_Code_QSARr>
InChI=1S/C22H42O4/c1-5-9-13-19(7-3)17-25-21(23)15-11-12-16-22(24)26-18-20(8-4)14-10-6-2/h19-20H,5-18H2,1-4H3

> <InChI Key_QSARr>
SAOKZLXYCUGLFA-UHFFFAOYSA-N

> <Salt_Solvent>


> <Salt_Solvent_ID>
0

> <Clint>
1.1321315601653406

> <Tr_1_Tst_0>
0

$$$$
Row71
  Mrv171c012261910192D          

 18 18  0  0  0  0            999 V2000
    4.7199   -1.6552    0.0000 C   0  0  0  0  0  0  0  0  0  0  0  0
    4.7199   -0.8302    0.0000 C   0  0  0  0  0  0  0  0  0  0  0  0
    5.4343   -0.4177    0.0000 C   0  0  0  0  0  0  0  0  0  0  0  0
    5.4343    0.4073    0.0000 C   0  0  0  0  0  0  0  0  0  0  0  0
    4.7199    0.8198    0.0000 C   0  0  0  0  0  0  0  0  0  0  0  0
    4.7199    1.6448    0.0000 C   0  0  0  0  0  0  0  0  0  0  0  0
    4.0054    0.4073    0.0000 C   0  0  0  0  0  0  0  0  0  0  0  0
    4.0054   -0.4177    0.0000 C   0  0  0  0  0  0  0  0  0  0  0  0
    3.2909   -0.8302    0.0000 O   0  0  0  0  0  0  0  0  0  0  0  0
    3.2909   -1.6552    0.0000 C   0  0  0  0  0  0  0  0  0  0  0  0
    2.5764   -2.0677    0.0000 C   0  0  0  0  0  0  0  0  0  0  0  0
    2.5764   -2.8927    0.0000 C   0  0  0  0  0  0  0  0  0  0  0  0
    1.8620   -3.3052    0.0000 C   0  0  0  0  0  0  0  0  0  0  0  0
    1.4495   -2.5908    0.0000 C   0  0  0  0  0  0  0  0  0  0  0  0
    2.2745   -4.0197    0.0000 C   0  0  0  0  0  0  0  0  0  0  0  0
    1.1475   -3.7177    0.0000 C   0  0  0  0  0  0  0  0  0  0  0  0
    1.1475   -4.5427    0.0000 O   0  0  0  0  0  0  0  0  0  0  0  0
    0.4330   -3.3052    0.0000 O   0  0  0  0  0  0  0  0  0  0  0  0
  1  2  1  0  0  0  0
  3  2  1  0  0  0  0
  4  3  2  0  0  0  0
  5  4  1  0  0  0  0
  5  6  1  0  0  0  0
  7  5  2  0  0  0  0
  8  7  1  0  0  0  0
  2  8  2  0  0  0  0
  8  9  1  0  0  0  0
  9 10  1  0  0  0  0
 10 11  1  0  0  0  0
 11 12  1  0  0  0  0
 12 13  1  0  0  0  0
 13 14  1  0  0  0  0
 13 15  1  0  0  0  0
 13 16  1  0  0  0  0
 16 17  1  0  0  0  0
 16 18  2  0  0  0  0
M  END
> <ChemID>
10011

> <CAS>
25812-30-0

> <Original_SMILES>
Cc1cc(OCCCC(C)(C)C(O)=O)c(C)cc1

> <preferred_name>
Gemfibrozil

> <dsstox_substance_id>
DTXSID0020652

> <dsstox_compound_id>
DTXCID20652

> <Canonical_QSARr>
CC1=CC(OCCCC(C)(C)C(O)=O)=C(C)C=C1

> <InChI_Code_QSARr>
InChI=1S/C15H22O3/c1-11-6-7-12(2)13(10-11)18-9-5-8-15(3,4)14(16)17/h6-7,10H,5,8-9H2,1-4H3,(H,16,17)

> <InChI Key_QSARr>
HEMJJKBWTPKOJG-UHFFFAOYSA-N

> <Salt_Solvent>


> <Salt_Solvent_ID>
0

> <Clint>
-4.101274818410506

> <Tr_1_Tst_0>
1

$$$$
Row59
  Mrv171c012261910192D          

 25 29  0  0  0  0            999 V2000
    3.6110   -2.7597    0.0000 C   0  0  0  0  0  0  0  0  0  0  0  0
    2.9834   -2.2241    0.0000 C   0  0  0  0  0  0  0  0  0  0  0  0
    2.8369   -1.2440    0.0000 C   0  0  0  0  0  0  0  0  0  0  0  0
    3.6726   -0.9069    0.0000 C   0  0  0  0  0  0  0  0  0  0  0  0
    3.5159   -0.0970    0.0000 O   0  0  0  0  0  0  0  0  0  0  0  0
    4.4704   -1.1172    0.0000 C   0  0  0  0  0  0  0  0  0  0  0  0
    4.8034   -1.8720    0.0000 C   0  0  0  0  0  0  0  0  0  0  0  0
    5.6280   -1.8994    0.0000 O   0  0  0  0  0  0  0  0  0  0  0  0
    4.4209   -2.6029    0.0000 O   0  0  0  0  0  0  0  0  0  0  0  0
    5.0059   -0.4896    0.0000 C   0  0  0  0  0  0  0  0  0  0  0  0
    3.8354   -1.8310    0.0000 C   0  0  0  0  0  0  0  0  0  0  0  0
    3.0914   -1.5284    0.0000 C   0  0  0  0  0  0  0  0  0  0  0  0
    2.9853   -0.7103    0.0000 C   0  0  0  0  0  0  0  0  0  0  0  0
    3.2212    0.0803    0.0000 O   0  0  0  0  0  0  0  0  0  0  0  0
    2.2238   -0.3931    0.0000 O   0  0  0  0  0  0  0  0  0  0  0  0
    2.4119   -2.0387    0.0000 C   0  0  0  0  0  0  0  0  0  0  0  0
    1.7890   -1.4027    0.0000 C   0  0  0  0  0  0  0  0  0  0  0  0
    0.9880   -1.7530    0.0000 C   0  0  0  0  0  0  0  0  0  0  0  0
    0.2764   -1.3356    0.0000 C   0  0  0  0  0  0  0  0  0  0  0  0
    1.0728   -2.6196    0.0000 C   0  0  0  0  0  0  0  0  0  0  0  0
    0.2735   -2.8239    0.0000 O   0  0  0  0  0  0  0  0  0  0  0  0
    1.4141   -3.4203    0.0000 C   0  0  0  0  0  0  0  0  0  0  0  0
    2.2662   -3.5509    0.0000 C   0  0  0  0  0  0  0  0  0  0  0  0
    2.7708   -2.8418    0.0000 C   0  0  0  0  0  0  0  0  0  0  0  0
    1.7532   -2.3686    0.0000 C   0  0  0  0  0  0  0  0  0  0  0  0
  2  1  1  0  0  0  0
  3  2  2  0  0  0  0
  4  3  1  0  0  0  0
  4  5  1  0  0  0  0
  6  4  1  0  0  0  0
  6  7  1  0  0  0  0
  7  8  2  0  0  0  0
  7  9  1  0  0  0  0
  9  1  1  0  0  0  0
  6 10  1  0  0  0  0
 11  6  1  0  0  0  0
 11  1  1  0  0  0  0
 12 11  1  0  0  0  0
 12 13  1  0  0  0  0
 13 14  1  0  0  0  0
 13 15  2  0  0  0  0
 16 12  1  0  0  0  0
 17 16  1  0  0  0  0
 18 17  1  0  0  0  0
 18 19  2  0  0  0  0
 20 18  1  0  0  0  0
 20 21  1  0  0  0  0
 20 22  1  0  0  0  0
 22 23  1  0  0  0  0
 23 24  1  0  0  0  0
  1 24  1  0  0  0  0
 24 16  1  0  0  0  0
 25 20  1  0  0  0  0
 16 25  1  0  0  0  0
M  END
> <ChemID>
10012

> <CAS>
77-06-5

> <Original_SMILES>
C[C@]12[C@H]3[C@H](C(O)=O)[C@@]45C[C@@](O)(CC[C@H]4[C@@]3(C=C[C@@H]1O)OC2=O)C(=C)C5

> <preferred_name>
Gibberellic acid

> <dsstox_substance_id>
DTXSID0020656

> <dsstox_compound_id>
DTXCID40656

> <Canonical_QSARr>
CC12C3C(C(O)=O)C45CC(O)(CCC4C3(C=CC1O)OC2=O)C(=C)C5

> <InChI_Code_QSARr>
InChI=1S/C19H22O6/c1-9-7-17-8-18(9,24)5-3-10(17)19-6-4-11(20)16(2,15(23)25-19)13(19)12(17)14(21)22/h4,6,10-13,20,24H,1,3,5,7-8H2,2H3,(H,21,22)

> <InChI Key_QSARr>
IXORZMNAPKEEDV-UHFFFAOYSA-N

> <Salt_Solvent>


> <Salt_Solvent_ID>
0

> <Clint>
-7.0

> <Tr_1_Tst_0>
1

$$$$
Row238
  Mrv171c012261910192D          

 26 28  0  0  0  0            999 V2000
    2.3066   -1.8646    0.0000 C   0  0  0  0  0  0  0  0  0  0  0  0
    2.3066   -2.6896    0.0000 C   0  0  0  0  0  0  0  0  0  0  0  0
    3.0211   -3.1021    0.0000 C   0  0  0  0  0  0  0  0  0  0  0  0
    3.7355   -2.6896    0.0000 C   0  0  0  0  0  0  0  0  0  0  0  0
    3.7355   -1.8646    0.0000 C   0  0  0  0  0  0  0  0  0  0  0  0
    4.4500   -1.4521    0.0000 O   0  0  0  0  0  0  0  0  0  0  0  0
    5.1645   -1.8646    0.0000 C   0  0  0  0  0  0  0  0  0  0  0  0
    5.8790   -1.4521    0.0000 C   0  0  0  0  0  0  0  0  0  0  0  0
    6.5934   -1.8646    0.0000 C   0  0  0  0  0  0  0  0  0  0  0  0
    7.3079   -1.4521    0.0000 N   0  0  0  0  0  0  0  0  0  0  0  0
    8.0224   -1.8646    0.0000 C   0  0  0  0  0  0  0  0  0  0  0  0
    8.1086   -2.6851    0.0000 N   0  0  0  0  0  0  0  0  0  0  0  0
    7.4955   -3.2371    0.0000 C   0  0  0  0  0  0  0  0  0  0  0  0
    8.9156   -2.8566    0.0000 N   0  0  0  0  0  0  0  0  0  0  0  0
    9.3281   -2.1421    0.0000 C   0  0  0  0  0  0  0  0  0  0  0  0
   10.1486   -2.0559    0.0000 C   0  0  0  0  0  0  0  0  0  0  0  0
   10.6335   -2.7233    0.0000 O   0  0  0  0  0  0  0  0  0  0  0  0
    8.7760   -1.5290    0.0000 N   0  0  0  0  0  0  0  0  0  0  0  0
    3.0211   -1.4521    0.0000 C   0  0  0  0  0  0  0  0  0  0  0  0
    1.5921   -1.4521    0.0000 C   0  0  0  0  0  0  0  0  0  0  0  0
    0.8777   -1.8646    0.0000 N   0  0  0  0  0  0  0  0  0  0  0  0
    0.1632   -1.4521    0.0000 C   0  0  0  0  0  0  0  0  0  0  0  0
   -0.5513   -1.8646    0.0000 C   0  0  0  0  0  0  0  0  0  0  0  0
   -0.5513   -2.6896    0.0000 C   0  0  0  0  0  0  0  0  0  0  0  0
    0.1632   -3.1021    0.0000 C   0  0  0  0  0  0  0  0  0  0  0  0
    0.8777   -2.6896    0.0000 C   0  0  0  0  0  0  0  0  0  0  0  0
  2  1  1  0  0  0  0
  3  2  2  0  0  0  0
  4  3  1  0  0  0  0
  5  4  2  0  0  0  0
  5  6  1  0  0  0  0
  6  7  1  0  0  0  0
  7  8  1  0  0  0  0
  8  9  1  0  0  0  0
  9 10  1  0  0  0  0
 10 11  1  0  0  0  0
 12 11  1  0  0  0  0
 12 13  1  0  0  0  0
 14 12  1  0  0  0  0
 15 14  2  0  0  0  0
 15 16  1  0  0  0  0
 16 17  1  0  0  0  0
 18 15  1  0  0  0  0
 11 18  2  0  0  0  0
 19  5  1  0  0  0  0
  1 19  2  0  0  0  0
  1 20  1  0  0  0  0
 20 21  1  0  0  0  0
 22 21  1  0  0  0  0
 23 22  1  0  0  0  0
 24 23  1  0  0  0  0
 25 24  1  0  0  0  0
 26 25  1  0  0  0  0
 21 26  1  0  0  0  0
M  END
> <ChemID>
10013

> <CAS>
76956-02-0

> <Original_SMILES>
C[n]1[n]c(CO)[n]c1NCCCOc1cc(CN2CCCCC2)ccc1

> <preferred_name>
Loxtidine

> <dsstox_substance_id>
DTXSID0020785

> <dsstox_compound_id>
DTXCID80785

> <Canonical_QSARr>
CN1N=C(CO)N=C1NCCCOC1C=C(CN2CCCCC2)C=CC=1

> <InChI_Code_QSARr>
InChI=1S/C19H29N5O2/c1-23-19(21-18(15-25)22-23)20-9-6-12-26-17-8-5-7-16(13-17)14-24-10-3-2-4-11-24/h5,7-8,13,25H,2-4,6,9-12,14-15H2,1H3,(H,20,21,22)

> <InChI Key_QSARr>
VTLNPNNUIJHJQB-UHFFFAOYSA-N

> <Salt_Solvent>


> <Salt_Solvent_ID>
0

> <Clint>
1.041392685158225

> <Tr_1_Tst_0>
1

$$$$
Row494
  Mrv171c012261910192D          

 12 12  0  0  0  0            999 V2000
    1.4252   -3.3321    0.0000 O   0  0  0  0  0  0  0  0  0  0  0  0
    2.1397   -2.9196    0.0000 N   0  3  0  0  0  0  0  0  0  0  0  0
    2.8542   -3.3321    0.0000 O   0  5  0  0  0  0  0  0  0  0  0  0
    2.1397   -2.0946    0.0000 C   0  0  0  0  0  0  0  0  0  0  0  0
    2.8542   -1.6821    0.0000 C   0  0  0  0  0  0  0  0  0  0  0  0
    2.8542   -0.8571    0.0000 C   0  0  0  0  0  0  0  0  0  0  0  0
    2.1397   -0.4446    0.0000 C   0  0  0  0  0  0  0  0  0  0  0  0
    2.1397    0.3804    0.0000 O   0  0  0  0  0  0  0  0  0  0  0  0
    1.4252    0.7929    0.0000 C   0  0  0  0  0  0  0  0  0  0  0  0
    1.4252   -0.8571    0.0000 C   0  0  0  0  0  0  0  0  0  0  0  0
    0.7107   -0.4446    0.0000 N   0  0  0  0  0  0  0  0  0  0  0  0
    1.4252   -1.6821    0.0000 C   0  0  0  0  0  0  0  0  0  0  0  0
  1  2  2  0  0  0  0
  2  3  1  0  0  0  0
  2  4  1  0  0  0  0
  5  4  1  0  0  0  0
  6  5  2  0  0  0  0
  7  6  1  0  0  0  0
  7  8  1  0  0  0  0
  8  9  1  0  0  0  0
 10  7  2  0  0  0  0
 10 11  1  0  0  0  0
 12 10  1  0  0  0  0
  4 12  2  0  0  0  0
M  CHG  2   2   1   3  -1
M  END
> <ChemID>
10014

> <CAS>
99-59-2

> <Original_SMILES>
COc1ccc(cc1N)[N+]([O-])=O

> <preferred_name>
2-Methoxy-5-nitroaniline

> <dsstox_substance_id>
DTXSID0020943

> <dsstox_compound_id>
DTXCID60943

> <Canonical_QSARr>
COC1C=CC(=CC=1N)[N+]([O-])=O

> <InChI_Code_QSARr>
InChI=1S/C7H8N2O3/c1-12-7-3-2-5(9(10)11)4-6(7)8/h2-4H,8H2,1H3

> <InChI Key_QSARr>
NIPDVSLAMPAWTP-UHFFFAOYSA-N

> <Salt_Solvent>


> <Salt_Solvent_ID>
0

> <Clint>
1.08019341942848

> <Tr_1_Tst_0>
0

$$$$
Row24
  Mrv171c012261910192D          

 15 16  0  0  0  0            999 V2000
    3.6216   -3.7415    0.0000 N   0  0  0  0  0  0  0  0  0  0  0  0
    3.6216   -2.9165    0.0000 C   0  0  0  0  0  0  0  0  0  0  0  0
    4.3361   -2.5040    0.0000 C   0  0  0  0  0  0  0  0  0  0  0  0
    4.3361   -1.6790    0.0000 C   0  0  0  0  0  0  0  0  0  0  0  0
    3.6216   -1.2665    0.0000 C   0  0  0  0  0  0  0  0  0  0  0  0
    3.6216   -0.4415    0.0000 O   0  0  0  0  0  0  0  0  0  0  0  0
    2.9071   -0.0290    0.0000 C   0  0  0  0  0  0  0  0  0  0  0  0
    2.9071    0.7960    0.0000 C   0  0  0  0  0  0  0  0  0  0  0  0
    2.1927    1.2085    0.0000 C   0  0  0  0  0  0  0  0  0  0  0  0
    1.4782    0.7960    0.0000 C   0  0  0  0  0  0  0  0  0  0  0  0
    0.7637    1.2085    0.0000 N   0  0  0  0  0  0  0  0  0  0  0  0
    1.4782   -0.0290    0.0000 C   0  0  0  0  0  0  0  0  0  0  0  0
    2.1927   -0.4415    0.0000 C   0  0  0  0  0  0  0  0  0  0  0  0
    2.9071   -1.6790    0.0000 C   0  0  0  0  0  0  0  0  0  0  0  0
    2.9071   -2.5040    0.0000 C   0  0  0  0  0  0  0  0  0  0  0  0
  1  2  1  0  0  0  0
  3  2  1  0  0  0  0
  4  3  2  0  0  0  0
  5  4  1  0  0  0  0
  5  6  1  0  0  0  0
  6  7  1  0  0  0  0
  8  7  1  0  0  0  0
  9  8  2  0  0  0  0
 10  9  1  0  0  0  0
 10 11  1  0  0  0  0
 12 10  2  0  0  0  0
 13 12  1  0  0  0  0
  7 13  2  0  0  0  0
 14  5  2  0  0  0  0
 15 14  1  0  0  0  0
  2 15  2  0  0  0  0
M  END
> <ChemID>
10015

> <CAS>
101-80-4

> <Original_SMILES>
Nc1ccc(cc1)Oc1ccc(N)cc1

> <preferred_name>
4,4'-Oxydianiline

> <dsstox_substance_id>
DTXSID0021094

> <dsstox_compound_id>
DTXCID401094

> <Canonical_QSARr>
NC1C=CC(=CC=1)OC1C=CC(N)=CC=1

> <InChI_Code_QSARr>
InChI=1S/C12H12N2O/c13-9-1-5-11(6-2-9)15-12-7-3-10(14)4-8-12/h1-8H,13-14H2

> <InChI Key_QSARr>
HLBLWEWZXPIGSM-UHFFFAOYSA-N

> <Salt_Solvent>


> <Salt_Solvent_ID>
0

> <Clint>
-7.0

> <Tr_1_Tst_0>
1

$$$$
Row538
  Mrv171c012261910192D          

 24 27  0  0  0  0            999 V2000
    2.0294    0.1864    0.0000 O   0  0  0  0  0  0  0  0  0  0  0  0
    2.2843   -0.5982    0.0000 C   0  0  0  0  0  0  0  0  0  0  0  0
    3.0689   -0.8532    0.0000 C   0  0  0  0  0  0  0  0  0  0  0  0
    3.7834   -0.4407    0.0000 C   0  0  0  0  0  0  0  0  0  0  0  0
    4.4979   -0.8532    0.0000 C   0  0  0  0  0  0  0  0  0  0  0  0
    4.4979   -1.6782    0.0000 C   0  0  0  0  0  0  0  0  0  0  0  0
    3.7834   -2.0907    0.0000 C   0  0  0  0  0  0  0  0  0  0  0  0
    3.0689   -1.6782    0.0000 C   0  0  0  0  0  0  0  0  0  0  0  0
    2.2843   -1.9331    0.0000 C   0  0  0  0  0  0  0  0  0  0  0  0
    2.6199   -2.6868    0.0000 C   0  0  0  0  0  0  0  0  0  0  0  0
    2.1349   -3.3542    0.0000 C   0  0  0  0  0  0  0  0  0  0  0  0
    2.4705   -4.1079    0.0000 C   0  0  0  0  0  0  0  0  0  0  0  0
    3.2910   -4.1941    0.0000 C   0  0  0  0  0  0  0  0  0  0  0  0
    3.6265   -4.9478    0.0000 O   0  0  0  0  0  0  0  0  0  0  0  0
    3.7759   -3.5267    0.0000 C   0  0  0  0  0  0  0  0  0  0  0  0
    3.4403   -2.7730    0.0000 C   0  0  0  0  0  0  0  0  0  0  0  0
    1.5698   -2.3456    0.0000 C   0  0  0  0  0  0  0  0  0  0  0  0
    0.8554   -1.9331    0.0000 C   0  0  0  0  0  0  0  0  0  0  0  0
    0.1409   -2.3456    0.0000 C   0  0  0  0  0  0  0  0  0  0  0  0
    0.1409   -3.1706    0.0000 C   0  0  0  0  0  0  0  0  0  0  0  0
   -0.5736   -3.5831    0.0000 O   0  0  0  0  0  0  0  0  0  0  0  0
    0.8554   -3.5831    0.0000 C   0  0  0  0  0  0  0  0  0  0  0  0
    1.5698   -3.1706    0.0000 C   0  0  0  0  0  0  0  0  0  0  0  0
    1.7994   -1.2657    0.0000 O   0  0  0  0  0  0  0  0  0  0  0  0
  1  2  2  0  0  0  0
  3  2  1  0  0  0  0
  3  4  1  0  0  0  0
  4  5  2  0  0  0  0
  5  6  1  0  0  0  0
  6  7  2  0  0  0  0
  7  8  1  0  0  0  0
  8  3  2  0  0  0  0
  9  8  1  0  0  0  0
  9 10  1  0  0  0  0
 11 10  1  0  0  0  0
 12 11  2  0  0  0  0
 13 12  1  0  0  0  0
 13 14  1  0  0  0  0
 15 13  2  0  0  0  0
 16 15  1  0  0  0  0
 10 16  2  0  0  0  0
  9 17  1  0  0  0  0
 18 17  1  0  0  0  0
 19 18  2  0  0  0  0
 20 19  1  0  0  0  0
 20 21  1  0  0  0  0
 22 20  2  0  0  0  0
 23 22  1  0  0  0  0
 17 23  2  0  0  0  0
 24  9  1  0  0  0  0
  2 24  1  0  0  0  0
M  END
> <ChemID>
10016

> <CAS>
77-09-8

> <Original_SMILES>
Oc1ccc(cc1)C1(OC(=O)c2ccccc12)c1ccc(O)cc1

> <preferred_name>
Phenolphthalein

> <dsstox_substance_id>
DTXSID0021125

> <dsstox_compound_id>
DTXCID901125

> <Canonical_QSARr>
OC1C=CC(=CC=1)C1(OC(=O)C2C=CC=CC1=2)C1C=CC(O)=CC=1

> <InChI_Code_QSARr>
InChI=1S/C20H14O4/c21-15-9-5-13(6-10-15)20(14-7-11-16(22)12-8-14)18-4-2-1-3-17(18)19(23)24-20/h1-12,21-22H

> <InChI Key_QSARr>
KJFMBFZCATUALV-UHFFFAOYSA-N

> <Salt_Solvent>


> <Salt_Solvent_ID>
0

> <Clint>
1.675778341674085

> <Tr_1_Tst_0>
0

$$$$
Row262
  Mrv171c012261910192D          

 12 13  0  0  0  0            999 V2000
    5.4704   -0.3431    0.0000 C   0  0  0  0  0  0  0  0  0  0  0  0
    4.7559   -0.7556    0.0000 C   0  0  0  0  0  0  0  0  0  0  0  0
    4.0414   -0.3431    0.0000 C   0  0  0  0  0  0  0  0  0  0  0  0
    3.3270   -0.7556    0.0000 C   0  0  0  0  0  0  0  0  0  0  0  0
    2.6125   -0.3431    0.0000 C   0  0  0  0  0  0  0  0  0  0  0  0
    1.8980   -0.7556    0.0000 C   0  0  0  0  0  0  0  0  0  0  0  0
    1.1134   -0.5006    0.0000 O   0  0  0  0  0  0  0  0  0  0  0  0
    0.6285   -1.1681    0.0000 C   0  0  0  0  0  0  0  0  0  0  0  0
    1.1134   -1.8355    0.0000 O   0  0  0  0  0  0  0  0  0  0  0  0
    1.8980   -1.5806    0.0000 C   0  0  0  0  0  0  0  0  0  0  0  0
    2.6125   -1.9931    0.0000 C   0  0  0  0  0  0  0  0  0  0  0  0
    3.3270   -1.5806    0.0000 C   0  0  0  0  0  0  0  0  0  0  0  0
  1  2  2  0  0  0  0
  2  3  1  0  0  0  0
  3  4  1  0  0  0  0
  5  4  1  0  0  0  0
  6  5  2  0  0  0  0
  6  7  1  0  0  0  0
  7  8  1  0  0  0  0
  8  9  1  0  0  0  0
  9 10  1  0  0  0  0
 10  6  1  0  0  0  0
 11 10  2  0  0  0  0
 12 11  1  0  0  0  0
  4 12  2  0  0  0  0
M  END
> <ChemID>
10017

> <CAS>
94-59-7

> <Original_SMILES>
C=CCc1ccc2OCOc2c1

> <preferred_name>
Safrole

> <dsstox_substance_id>
DTXSID0021254

> <dsstox_compound_id>
DTXCID601254

> <Canonical_QSARr>
C=CCC1C=C2OCOC2=CC=1

> <InChI_Code_QSARr>
InChI=1S/C10H10O2/c1-2-3-8-4-5-9-10(6-8)12-7-11-9/h2,4-6H,1,3,7H2

> <InChI Key_QSARr>
ZMQAAUBTXCXRIC-UHFFFAOYSA-N

> <Salt_Solvent>


> <Salt_Solvent_ID>
0

> <Clint>
1.1499577088910593

> <Tr_1_Tst_0>
1

$$$$
Row176
  Mrv171c012261910192D          

 28 30  0  0  0  0            999 V2000
    5.7158   -1.6500    0.0000 O   0  0  0  0  0  0  0  0  0  0  0  0
    6.4302   -2.0625    0.0000 C   0  0  0  0  0  0  0  0  0  0  0  0
    7.1447   -1.6500    0.0000 O   0  0  0  0  0  0  0  0  0  0  0  0
    6.4302   -2.8875    0.0000 C   0  0  0  0  0  0  0  0  0  0  0  0
    7.1447   -3.3000    0.0000 C   0  0  0  0  0  0  0  0  0  0  0  0
    7.1447   -4.1250    0.0000 C   0  0  0  0  0  0  0  0  0  0  0  0
    6.4302   -4.5375    0.0000 C   0  0  0  0  0  0  0  0  0  0  0  0
    5.7158   -4.1250    0.0000 C   0  0  0  0  0  0  0  0  0  0  0  0
    5.7158   -3.3000    0.0000 C   0  0  0  0  0  0  0  0  0  0  0  0
    5.0013   -2.8875    0.0000 O   0  0  0  0  0  0  0  0  0  0  0  0
    7.8592   -4.5375    0.0000 N   0  0  0  0  0  0  0  0  0  0  0  0
    8.5737   -4.1250    0.0000 N   0  0  0  0  0  0  0  0  0  0  0  0
    9.2881   -4.5375    0.0000 C   0  0  0  0  0  0  0  0  0  0  0  0
   10.0026   -4.1250    0.0000 C   0  0  0  0  0  0  0  0  0  0  0  0
   10.7171   -4.5375    0.0000 C   0  0  0  0  0  0  0  0  0  0  0  0
   10.7171   -5.3625    0.0000 C   0  0  0  0  0  0  0  0  0  0  0  0
   10.0026   -5.7750    0.0000 C   0  0  0  0  0  0  0  0  0  0  0  0
    9.2881   -5.3625    0.0000 C   0  0  0  0  0  0  0  0  0  0  0  0
   11.4315   -5.7750    0.0000 S   0  0  0  0  0  0  0  0  0  0  0  0
   11.0190   -6.4895    0.0000 O   0  0  0  0  0  0  0  0  0  0  0  0
   11.8440   -5.0605    0.0000 O   0  0  0  0  0  0  0  0  0  0  0  0
   12.1460   -6.1875    0.0000 N   0  0  0  0  0  0  0  0  0  0  0  0
   12.1460   -7.0125    0.0000 C   0  0  0  0  0  0  0  0  0  0  0  0
   12.8605   -7.4250    0.0000 C   0  0  0  0  0  0  0  0  0  0  0  0
   12.8605   -8.2500    0.0000 C   0  0  0  0  0  0  0  0  0  0  0  0
   12.1460   -8.6625    0.0000 C   0  0  0  0  0  0  0  0  0  0  0  0
   11.4315   -8.2500    0.0000 C   0  0  0  0  0  0  0  0  0  0  0  0
   11.4315   -7.4250    0.0000 N   0  0  0  0  0  0  0  0  0  0  0  0
  1  2  1  0  0  0  0
  2  3  2  0  0  0  0
  2  4  1  0  0  0  0
  4  5  2  0  0  0  0
  5  6  1  0  0  0  0
  6  7  2  0  0  0  0
  7  8  1  0  0  0  0
  8  9  2  0  0  0  0
  4  9  1  0  0  0  0
  9 10  1  0  0  0  0
 11  6  1  4  0  0  0
 11 12  2  0  0  0  0
 12 13  1  0  0  0  0
 13 14  1  0  0  0  0
 14 15  2  0  0  0  0
 15 16  1  0  0  0  0
 16 17  2  0  0  0  0
 17 18  1  0  0  0  0
 13 18  2  0  0  0  0
 16 19  1  0  0  0  0
 19 20  2  0  0  0  0
 19 21  2  0  0  0  0
 19 22  1  0  0  0  0
 22 23  1  0  0  0  0
 23 24  1  0  0  0  0
 24 25  2  0  0  0  0
 25 26  1  0  0  0  0
 26 27  2  0  0  0  0
 27 28  1  0  0  0  0
 23 28  2  0  0  0  0
M  END
> <ChemID>
10018

> <CAS>
599-79-1

> <Original_SMILES>
OC(=O)c1cc(ccc1O)/N=N/c1ccc(cc1)S(=O)(=O)Nc1cccc[n]1

> <preferred_name>
Sulfasalazine

> <dsstox_substance_id>
DTXSID0021256

> <dsstox_compound_id>
DTXCID401256

> <Canonical_QSARr>
OC(=O)C1=CC(=CC=C1O)N=NC1C=CC(=CC=1)S(=O)(=O)NC1C=CC=CN=1

> <InChI_Code_QSARr>
InChI=1S/C18H14N4O5S/c23-16-9-6-13(11-15(16)18(24)25)21-20-12-4-7-14(8-5-12)28(26,27)22-17-3-1-2-10-19-17/h1-11,23H,(H,19,22)(H,24,25)

> <InChI Key_QSARr>
NCEXYHBECQHGNR-UHFFFAOYSA-N

> <Salt_Solvent>


> <Salt_Solvent_ID>
0

> <Clint>
0.7126497016272113

> <Tr_1_Tst_0>
1

$$$$
Row21
  Mrv171c012261910192D          

 14 16  0  0  0  0            999 V2000
    2.5813   -0.1575    0.0000 N   0  0  0  0  0  0  0  0  0  0  0  0
    3.3659   -0.4124    0.0000 C   0  0  0  0  0  0  0  0  0  0  0  0
    4.0804    0.0001    0.0000 C   0  0  0  0  0  0  0  0  0  0  0  0
    4.7949   -0.4124    0.0000 C   0  0  0  0  0  0  0  0  0  0  0  0
    4.7949   -1.2374    0.0000 C   0  0  0  0  0  0  0  0  0  0  0  0
    4.0804   -1.6499    0.0000 C   0  0  0  0  0  0  0  0  0  0  0  0
    3.3659   -1.2374    0.0000 C   0  0  0  0  0  0  0  0  0  0  0  0
    2.5813   -1.4924    0.0000 N   0  0  0  0  0  0  0  0  0  0  0  0
    2.0964   -0.8249    0.0000 C   0  0  0  0  0  0  0  0  0  0  0  0
    1.2714   -0.8249    0.0000 C   0  0  0  0  0  0  0  0  0  0  0  0
    0.7864   -0.1575    0.0000 N   0  0  0  0  0  0  0  0  0  0  0  0
    0.0018   -0.4124    0.0000 C   0  0  0  0  0  0  0  0  0  0  0  0
    0.0018   -1.2374    0.0000 S   0  0  0  0  0  0  0  0  0  0  0  0
    0.7864   -1.4924    0.0000 C   0  0  0  0  0  0  0  0  0  0  0  0
  2  1  1  0  0  0  0
  2  3  1  0  0  0  0
  3  4  2  0  0  0  0
  4  5  1  0  0  0  0
  5  6  2  0  0  0  0
  6  7  1  0  0  0  0
  7  2  2  0  0  0  0
  8  7  1  0  0  0  0
  9  8  2  0  0  0  0
  1  9  1  0  0  0  0
  9 10  1  0  0  0  0
 11 10  1  0  0  0  0
 12 11  2  0  0  0  0
 13 12  1  0  0  0  0
 14 13  1  0  0  0  0
 10 14  2  0  0  0  0
M  END
> <ChemID>
10019

> <CAS>
148-79-8

> <Original_SMILES>
c1[n]c(c[s]1)-c1[nH]c2ccccc2[n]1

> <preferred_name>
Thiabendazole

> <dsstox_substance_id>
DTXSID0021337

> <dsstox_compound_id>
DTXCID401337

> <Canonical_QSARr>
C1=NC(=CS1)C1NC2C=CC=CC=2N=1

> <InChI_Code_QSARr>
InChI=1S/C10H7N3S/c1-2-4-8-7(3-1)12-10(13-8)9-5-14-6-11-9/h1-6H,(H,12,13)

> <InChI Key_QSARr>
WJCNZQLZVWNLKY-UHFFFAOYSA-N

> <Salt_Solvent>


> <Salt_Solvent_ID>
0

> <Clint>
-7.0

> <Tr_1_Tst_0>
1

$$$$
Row308
  Mrv171c012261910192D          

 10 10  0  0  0  0            999 V2000
    0.9322   -2.3640    0.0000 C   0  0  0  0  0  0  0  0  0  0  0  0
    1.6467   -1.9515    0.0000 N   0  0  0  0  0  0  0  0  0  0  0  0
    1.6467   -1.1265    0.0000 C   0  0  0  0  0  0  0  0  0  0  0  0
    2.3611   -0.7140    0.0000 C   0  0  0  0  0  0  0  0  0  0  0  0
    2.3611    0.1110    0.0000 C   0  0  0  0  0  0  0  0  0  0  0  0
    1.6467    0.5235    0.0000 C   0  0  0  0  0  0  0  0  0  0  0  0
    1.6467    1.3485    0.0000 C   0  0  0  0  0  0  0  0  0  0  0  0
    0.9322    0.1110    0.0000 C   0  0  0  0  0  0  0  0  0  0  0  0
    0.9322   -0.7140    0.0000 C   0  0  0  0  0  0  0  0  0  0  0  0
    2.3611   -2.3640    0.0000 C   0  0  0  0  0  0  0  0  0  0  0  0
  1  2  1  0  0  0  0
  2  3  1  0  0  0  0
  4  3  1  0  0  0  0
  5  4  2  0  0  0  0
  6  5  1  0  0  0  0
  6  7  1  0  0  0  0
  8  6  2  0  0  0  0
  9  8  1  0  0  0  0
  3  9  2  0  0  0  0
  2 10  1  0  0  0  0
M  END
> <ChemID>
10020

> <CAS>
99-97-8

> <Original_SMILES>
Cc1ccc(cc1)N(C)C

> <preferred_name>
N,N,4-Trimethylaniline

> <dsstox_substance_id>
DTXSID0021832

> <dsstox_compound_id>
DTXCID401832

> <Canonical_QSARr>
CC1C=CC(=CC=1)N(C)C

> <InChI_Code_QSARr>
InChI=1S/C9H13N/c1-8-4-6-9(7-5-8)10(2)3/h4-7H,1-3H3

> <InChI Key_QSARr>
GYVGXEWAOAAJEU-UHFFFAOYSA-N

> <Salt_Solvent>


> <Salt_Solvent_ID>
0

> <Clint>
1.3092041796704075

> <Tr_1_Tst_0>
1

$$$$
Row487
  Mrv171c012261910192D          

 14 15  0  0  0  0            999 V2000
    3.4173   -2.3837    0.0000 C   0  0  0  0  0  0  0  0  0  0  0  0
    2.7029   -1.9712    0.0000 C   0  0  0  0  0  0  0  0  0  0  0  0
    2.7029   -1.1462    0.0000 C   0  0  0  0  0  0  0  0  0  0  0  0
    1.9884   -0.7337    0.0000 C   0  0  0  0  0  0  0  0  0  0  0  0
    1.9884    0.0913    0.0000 C   0  0  0  0  0  0  0  0  0  0  0  0
    1.2739    0.5038    0.0000 C   0  0  0  0  0  0  0  0  0  0  0  0
    0.5595    0.0913    0.0000 C   0  0  0  0  0  0  0  0  0  0  0  0
    0.5595   -0.7337    0.0000 C   0  0  0  0  0  0  0  0  0  0  0  0
    1.2739   -1.1462    0.0000 C   0  0  0  0  0  0  0  0  0  0  0  0
    3.4173   -0.7337    0.0000 O   0  0  0  0  0  0  0  0  0  0  0  0
    1.9884   -2.3837    0.0000 C   0  0  0  0  0  0  0  0  0  0  0  0
    1.9884   -3.2087    0.0000 C   0  0  0  0  0  0  0  0  0  0  0  0
    2.7029   -3.6212    0.0000 C   0  0  0  0  0  0  0  0  0  0  0  0
    3.4173   -3.2087    0.0000 C   0  0  0  0  0  0  0  0  0  0  0  0
  2  1  1  0  0  0  0
  2  3  1  0  0  0  0
  3  4  1  0  0  0  0
  5  4  1  0  0  0  0
  6  5  2  0  0  0  0
  7  6  1  0  0  0  0
  8  7  2  0  0  0  0
  9  8  1  0  0  0  0
  4  9  2  0  0  0  0
  3 10  2  0  0  0  0
 11  2  2  0  0  0  0
 12 11  1  0  0  0  0
 13 12  2  0  0  0  0
 14 13  1  0  0  0  0
  1 14  2  0  0  0  0
M  END
> <ChemID>
10021

> <CAS>
119-61-9

> <Original_SMILES>
O=C(c1ccccc1)c1ccccc1

> <preferred_name>
Benzophenone

> <dsstox_substance_id>
DTXSID0021961

> <dsstox_compound_id>
DTXCID101961

> <Canonical_QSARr>
O=C(C1C=CC=CC=1)C1C=CC=CC=1

> <InChI_Code_QSARr>
InChI=1S/C13H10O/c14-13(11-7-3-1-4-8-11)12-9-5-2-6-10-12/h1-10H

> <InChI Key_QSARr>
RWCCWEUUXYIKHB-UHFFFAOYSA-N

> <Salt_Solvent>


> <Salt_Solvent_ID>
0

> <Clint>
0.9606610072709818

> <Tr_1_Tst_0>
0

$$$$
Row386
  Mrv171c012261910192D          

 14 13  0  0  0  0            999 V2000
    3.7882   -0.5279    0.0000 C   0  0  0  0  0  0  0  0  0  0  0  0
    3.0737   -0.9404    0.0000 C   0  0  0  0  0  0  0  0  0  0  0  0
    3.0737   -1.7654    0.0000 O   0  0  0  0  0  0  0  0  0  0  0  0
    2.3593   -2.1779    0.0000 P   0  0  0  0  0  0  0  0  0  0  0  0
    1.6448   -2.5904    0.0000 S   0  0  0  0  0  0  0  0  0  0  0  0
    0.9303   -2.1779    0.0000 C   0  0  0  0  0  0  0  0  0  0  0  0
    0.9303   -1.3529    0.0000 C   0  0  0  0  0  0  0  0  0  0  0  0
    0.2158   -0.9404    0.0000 S   0  0  0  0  0  0  0  0  0  0  0  0
    0.2158   -0.1154    0.0000 C   0  0  0  0  0  0  0  0  0  0  0  0
   -0.4986    0.2971    0.0000 C   0  0  0  0  0  0  0  0  0  0  0  0
    1.9468   -1.4634    0.0000 S   0  0  0  0  0  0  0  0  0  0  0  0
    2.7718   -2.8924    0.0000 O   0  0  0  0  0  0  0  0  0  0  0  0
    2.3593   -3.6069    0.0000 C   0  0  0  0  0  0  0  0  0  0  0  0
    1.5343   -3.6069    0.0000 C   0  0  0  0  0  0  0  0  0  0  0  0
  1  2  1  0  0  0  0
  2  3  1  0  0  0  0
  3  4  1  0  0  0  0
  4  5  1  0  0  0  0
  5  6  1  0  0  0  0
  6  7  1  0  0  0  0
  7  8  1  0  0  0  0
  8  9  1  0  0  0  0
  9 10  1  0  0  0  0
  4 11  2  0  0  0  0
  4 12  1  0  0  0  0
 12 13  1  0  0  0  0
 13 14  1  0  0  0  0
M  END
> <ChemID>
10022

> <CAS>
298-04-4

> <Original_SMILES>
CCSCCSP(=S)(OCC)OCC

> <preferred_name>
Disulfoton

> <dsstox_substance_id>
DTXSID0022018

> <dsstox_compound_id>
DTXCID702018

> <Canonical_QSARr>
CCSCCSP(=S)(OCC)OCC

> <InChI_Code_QSARr>
InChI=1S/C8H19O2PS3/c1-4-9-11(12,10-5-2)14-8-7-13-6-3/h4-8H2,1-3H3

> <InChI Key_QSARr>
DOFZAZXDOSGAJZ-UHFFFAOYSA-N

> <Salt_Solvent>


> <Salt_Solvent_ID>
0

> <Clint>
1.763577724466645

> <Tr_1_Tst_0>
1

$$$$
Row142
  Mrv171c012261910192D          

 19 20  0  0  0  0            999 V2000
    0.6765   -0.6308    0.0000 C   0  0  0  0  0  0  0  0  0  0  0  0
   -0.0380   -1.0433    0.0000 C   0  0  0  0  0  0  0  0  0  0  0  0
   -0.0380   -1.8683    0.0000 C   0  0  0  0  0  0  0  0  0  0  0  0
    0.6765   -2.2808    0.0000 N   0  0  0  0  0  0  0  0  0  0  0  0
    1.3910   -1.8683    0.0000 C   0  0  0  0  0  0  0  0  0  0  0  0
    2.1054   -2.2808    0.0000 C   0  0  0  0  0  0  0  0  0  0  0  0
    2.1054   -3.1058    0.0000 C   0  0  0  0  0  0  0  0  0  0  0  0
    1.3910   -3.5183    0.0000 C   0  0  0  0  0  0  0  0  0  0  0  0
    1.3910   -4.3433    0.0000 C   0  0  0  0  0  0  0  0  0  0  0  0
    2.1054   -4.7558    0.0000 C   0  0  0  0  0  0  0  0  0  0  0  0
    2.1054   -5.5808    0.0000 Cl  0  0  0  0  0  0  0  0  0  0  0  0
    2.8199   -4.3433    0.0000 C   0  0  0  0  0  0  0  0  0  0  0  0
    2.8199   -3.5183    0.0000 C   0  0  0  0  0  0  0  0  0  0  0  0
    2.8199   -1.8683    0.0000 C   0  0  0  0  0  0  0  0  0  0  0  0
    3.5344   -2.2808    0.0000 C   0  0  0  0  0  0  0  0  0  0  0  0
    4.2488   -1.8683    0.0000 N   0  0  0  0  0  0  0  0  0  0  0  0
    4.2488   -1.0433    0.0000 C   0  0  0  0  0  0  0  0  0  0  0  0
    4.9633   -2.2808    0.0000 C   0  0  0  0  0  0  0  0  0  0  0  0
    1.3910   -1.0433    0.0000 C   0  0  0  0  0  0  0  0  0  0  0  0
  2  1  1  0  0  0  0
  3  2  2  0  0  0  0
  4  3  1  0  0  0  0
  5  4  2  0  0  0  0
  5  6  1  0  0  0  0
  6  7  1  0  0  0  0
  8  7  1  0  0  0  0
  9  8  2  0  0  0  0
 10  9  1  0  0  0  0
 10 11  1  0  0  0  0
 12 10  2  0  0  0  0
 13 12  1  0  0  0  0
  7 13  2  0  0  0  0
  6 14  1  0  0  0  0
 14 15  1  0  0  0  0
 15 16  1  0  0  0  0
 16 17  1  0  0  0  0
 16 18  1  0  0  0  0
 19  5  1  0  0  0  0
  1 19  2  0  0  0  0
M  END
> <ChemID>
10023

> <CAS>
132-22-9

> <Original_SMILES>
CN(C)CCC(c1cccc[n]1)c1ccc(Cl)cc1

> <preferred_name>
Chlorpheniramine

> <dsstox_substance_id>
DTXSID0022804

> <dsstox_compound_id>
DTXCID402804

> <Canonical_QSARr>
CN(C)CCC(C1C=CC=CN=1)C1C=CC(Cl)=CC=1

> <InChI_Code_QSARr>
InChI=1S/C16H19ClN2/c1-19(2)12-10-15(16-5-3-4-11-18-16)13-6-8-14(17)9-7-13/h3-9,11,15H,10,12H2,1-2H3

> <InChI Key_QSARr>
SOYKEARSMXGVTM-UHFFFAOYSA-N

> <Salt_Solvent>


> <Salt_Solvent_ID>
0

> <Clint>
0.44715803134221915

> <Tr_1_Tst_0>
1

$$$$
Row491
  Mrv171c012261910192D          

 21 23  0  0  0  0            999 V2000
    3.3702   -4.6758    0.0000 C   0  0  0  0  0  0  0  0  0  0  0  0
    4.0847   -4.2633    0.0000 C   0  0  0  0  0  0  0  0  0  0  0  0
    4.0847   -3.4383    0.0000 C   0  0  0  0  0  0  0  0  0  0  0  0
    3.3702   -3.0258    0.0000 C   0  0  0  0  0  0  0  0  0  0  0  0
    3.3702   -2.2008    0.0000 N   0  0  0  0  0  0  0  0  0  0  0  0
    2.6557   -1.7883    0.0000 C   0  0  0  0  0  0  0  0  0  0  0  0
    2.6557   -0.9633    0.0000 C   0  0  0  0  0  0  0  0  0  0  0  0
    1.9413   -0.5508    0.0000 C   0  0  0  0  0  0  0  0  0  0  0  0
    1.9413    0.2742    0.0000 Cl  0  0  0  0  0  0  0  0  0  0  0  0
    1.2268   -0.9633    0.0000 C   0  0  0  0  0  0  0  0  0  0  0  0
    1.2268   -1.7883    0.0000 C   0  0  0  0  0  0  0  0  0  0  0  0
    1.9413   -2.2008    0.0000 C   0  0  0  0  0  0  0  0  0  0  0  0
    1.9413   -3.0258    0.0000 S   0  0  0  0  0  0  0  0  0  0  0  0
    2.6557   -3.4383    0.0000 C   0  0  0  0  0  0  0  0  0  0  0  0
    2.6557   -4.2633    0.0000 C   0  0  0  0  0  0  0  0  0  0  0  0
    4.0847   -1.7883    0.0000 C   0  0  0  0  0  0  0  0  0  0  0  0
    4.7991   -2.2008    0.0000 C   0  0  0  0  0  0  0  0  0  0  0  0
    5.5136   -1.7883    0.0000 C   0  0  0  0  0  0  0  0  0  0  0  0
    6.2281   -2.2008    0.0000 N   0  0  0  0  0  0  0  0  0  0  0  0
    6.9426   -1.7883    0.0000 C   0  0  0  0  0  0  0  0  0  0  0  0
    6.2281   -3.0258    0.0000 C   0  0  0  0  0  0  0  0  0  0  0  0
  2  1  1  0  0  0  0
  3  2  2  0  0  0  0
  4  3  1  0  0  0  0
  4  5  1  0  0  0  0
  5  6  1  0  0  0  0
  7  6  1  0  0  0  0
  8  7  2  0  0  0  0
  8  9  1  0  0  0  0
 10  8  1  0  0  0  0
 11 10  2  0  0  0  0
 12 11  1  0  0  0  0
  6 12  2  0  0  0  0
 12 13  1  0  0  0  0
 13 14  1  0  0  0  0
 14  4  2  0  0  0  0
 15 14  1  0  0  0  0
  1 15  2  0  0  0  0
  5 16  1  0  0  0  0
 16 17  1  0  0  0  0
 17 18  1  0  0  0  0
 18 19  1  0  0  0  0
 19 20  1  0  0  0  0
 19 21  1  0  0  0  0
M  END
> <ChemID>
10024

> <CAS>
50-53-3

> <Original_SMILES>
CN(C)CCCN1c2ccccc2Sc2ccc(Cl)cc12

> <preferred_name>
Chlorpromazine

> <dsstox_substance_id>
DTXSID0022808

> <dsstox_compound_id>
DTXCID002808

> <Canonical_QSARr>
CN(C)CCCN1C2C=CC=CC=2SC2C=CC(Cl)=CC1=2

> <InChI_Code_QSARr>
InChI=1S/C17H19ClN2S/c1-19(2)10-5-11-20-14-6-3-4-7-16(14)21-17-9-8-13(18)12-15(17)20/h3-4,6-9,12H,5,10-11H2,1-2H3

> <InChI Key_QSARr>
ZPEIMTDSQAKGNT-UHFFFAOYSA-N

> <Salt_Solvent>


> <Salt_Solvent_ID>
0

> <Clint>
1.041392685158225

> <Tr_1_Tst_0>
0

$$$$
Row223
  Mrv171c012261910192D          

 23 26  0  0  0  0            999 V2000
    4.9033   -1.3534    0.0000 C   0  0  0  0  0  0  0  0  0  0  0  0
    5.7283   -1.3534    0.0000 N   0  0  0  0  0  0  0  0  0  0  0  0
    5.4589   -0.2755    0.0000 C   0  0  0  0  0  0  0  0  0  0  0  0
    4.6967   -0.5912    0.0000 C   0  0  0  0  0  0  0  0  0  0  0  0
    4.3809   -1.3534    0.0000 C   0  0  0  0  0  0  0  0  0  0  0  0
    3.5559   -1.3534    0.0000 N   0  0  0  0  0  0  0  0  0  0  0  0
    3.1434   -2.0679    0.0000 C   0  0  0  0  0  0  0  0  0  0  0  0
    2.3184   -2.0679    0.0000 C   0  0  0  0  0  0  0  0  0  0  0  0
    1.8335   -2.7353    0.0000 C   0  0  0  0  0  0  0  0  0  0  0  0
    2.0050   -3.5423    0.0000 C   0  0  0  0  0  0  0  0  0  0  0  0
    1.3920   -4.0943    0.0000 C   0  0  0  0  0  0  0  0  0  0  0  0
    0.6073   -3.8394    0.0000 C   0  0  0  0  0  0  0  0  0  0  0  0
    0.4358   -3.0324    0.0000 C   0  0  0  0  0  0  0  0  0  0  0  0
    1.0489   -2.4804    0.0000 C   0  0  0  0  0  0  0  0  0  0  0  0
    1.0489   -1.6554    0.0000 N   0  0  0  0  0  0  0  0  0  0  0  0
    0.3815   -1.1705    0.0000 C   0  0  0  0  0  0  0  0  0  0  0  0
    1.8335   -1.4005    0.0000 N   0  0  0  0  0  0  0  0  0  0  0  0
    3.5559   -2.7824    0.0000 O   0  0  0  0  0  0  0  0  0  0  0  0
    4.6967   -2.1156    0.0000 C   0  0  0  0  0  0  0  0  0  0  0  0
    5.4589   -2.4313    0.0000 C   0  0  0  0  0  0  0  0  0  0  0  0
    6.2211   -2.1156    0.0000 C   0  0  0  0  0  0  0  0  0  0  0  0
    6.5368   -1.3534    0.0000 C   0  0  0  0  0  0  0  0  0  0  0  0
    6.2211   -0.5912    0.0000 C   0  0  0  0  0  0  0  0  0  0  0  0
  1  2  1  0  0  0  0
  3  2  1  0  0  0  0
  3  4  1  0  0  0  0
  4  5  1  0  0  0  0
  5  6  1  0  0  0  0
  6  7  1  0  0  0  0
  7  8  1  0  0  0  0
  9  8  1  0  0  0  0
  9 10  2  0  0  0  0
 10 11  1  0  0  0  0
 11 12  2  0  0  0  0
 12 13  1  0  0  0  0
 13 14  2  0  0  0  0
 14  9  1  0  0  0  0
 15 14  1  0  0  0  0
 15 16  1  0  0  0  0
 17 15  1  0  0  0  0
  8 17  2  0  0  0  0
  7 18  2  0  0  0  0
  5 19  1  0  0  0  0
 19 20  1  0  0  0  0
  2 20  1  0  0  0  0
 20 21  1  0  0  0  0
 21 22  1  0  0  0  0
 22 23  1  0  0  0  0
 23  3  1  0  0  0  0
M  END
> <ChemID>
10025

> <CAS>
109889-09-0

> <Original_SMILES>
CN1[C@@H]2C[C@H](C[C@H]1CCC2)NC(=O)c1[n][n](C)c2ccccc21

> <preferred_name>
Granisetron

> <dsstox_substance_id>
DTXSID0023111

> <dsstox_compound_id>
DTXCID203111

> <Canonical_QSARr>
CN1C2CC(CC1CCC2)NC(=O)C1=NN(C)C2=CC=CC=C21

> <InChI_Code_QSARr>
InChI=1S/C18H24N4O/c1-21-13-6-5-7-14(21)11-12(10-13)19-18(23)17-15-8-3-4-9-16(15)22(2)20-17/h3-4,8-9,12-14H,5-7,10-11H2,1-2H3,(H,19,23)

> <InChI Key_QSARr>
MFWNKCLOYSRHCJ-UHFFFAOYSA-N

> <Salt_Solvent>


> <Salt_Solvent_ID>
0

> <Clint>
0.9542425094393249

> <Tr_1_Tst_0>
1

$$$$
Row206
  Mrv171c012261910192D          

 26 27  0  0  0  0            999 V2000
    2.3995    0.5649    0.0000 N   0  0  0  0  0  0  0  0  0  0  0  0
    1.6851    0.9774    0.0000 C   0  0  0  0  0  0  0  0  0  0  0  0
    1.6851    1.8024    0.0000 C   0  0  0  0  0  0  0  0  0  0  0  0
    0.9706    0.5649    0.0000 C   0  0  0  0  0  0  0  0  0  0  0  0
    0.2561    0.9774    0.0000 C   0  0  0  0  0  0  0  0  0  0  0  0
    0.2561    1.8024    0.0000 O   0  0  0  0  0  0  0  0  0  0  0  0
   -0.4583    2.2149    0.0000 C   0  0  0  0  0  0  0  0  0  0  0  0
   -0.4583    3.0399    0.0000 C   0  0  0  0  0  0  0  0  0  0  0  0
   -0.4583    0.5649    0.0000 O   0  0  0  0  0  0  0  0  0  0  0  0
    0.9706   -0.2601    0.0000 C   0  0  0  0  0  0  0  0  0  0  0  0
    0.2561   -0.6726    0.0000 C   0  0  0  0  0  0  0  0  0  0  0  0
   -0.4583   -0.2601    0.0000 C   0  0  0  0  0  0  0  0  0  0  0  0
   -1.1728   -0.6726    0.0000 C   0  0  0  0  0  0  0  0  0  0  0  0
   -1.8873   -0.2601    0.0000 N   0  3  0  0  0  0  0  0  0  0  0  0
   -2.6018   -0.6726    0.0000 O   0  0  0  0  0  0  0  0  0  0  0  0
   -1.8873    0.5649    0.0000 O   0  5  0  0  0  0  0  0  0  0  0  0
   -1.1728   -1.4976    0.0000 C   0  0  0  0  0  0  0  0  0  0  0  0
   -0.4583   -1.9101    0.0000 C   0  0  0  0  0  0  0  0  0  0  0  0
    0.2561   -1.4976    0.0000 C   0  0  0  0  0  0  0  0  0  0  0  0
    1.6851   -0.6726    0.0000 C   0  0  0  0  0  0  0  0  0  0  0  0
    1.6851   -1.4976    0.0000 C   0  0  0  0  0  0  0  0  0  0  0  0
    2.3995   -1.9101    0.0000 O   0  0  0  0  0  0  0  0  0  0  0  0
    2.3995   -2.7351    0.0000 C   0  0  0  0  0  0  0  0  0  0  0  0
    0.9706   -1.9101    0.0000 O   0  0  0  0  0  0  0  0  0  0  0  0
    2.3995   -0.2601    0.0000 C   0  0  0  0  0  0  0  0  0  0  0  0
    3.1140   -0.6726    0.0000 C   0  0  0  0  0  0  0  0  0  0  0  0
  2  1  1  0  0  0  0
  2  3  1  0  0  0  0
  4  2  2  0  0  0  0
  4  5  1  0  0  0  0
  5  6  1  0  0  0  0
  6  7  1  0  0  0  0
  7  8  1  0  0  0  0
  5  9  2  0  0  0  0
 10  4  1  0  0  0  0
 10 11  1  0  0  0  0
 12 11  1  0  0  0  0
 13 12  2  0  0  0  0
 13 14  1  0  0  0  0
 14 15  2  0  0  0  0
 14 16  1  0  0  0  0
 17 13  1  0  0  0  0
 18 17  2  0  0  0  0
 19 18  1  0  0  0  0
 11 19  2  0  0  0  0
 20 10  1  0  0  0  0
 20 21  1  0  0  0  0
 21 22  1  0  0  0  0
 22 23  1  0  0  0  0
 21 24  2  0  0  0  0
 25 20  1  0  0  0  0
  1 25  2  0  0  0  0
 25 26  1  0  0  0  0
M  CHG  2  14   1  16  -1
M  END
> <ChemID>
10026

> <CAS>
39562-70-4

> <Original_SMILES>
COC(=O)C1C(C(C(=O)OCC)=C(C)NC=1C)c1cc(ccc1)[N+]([O-])=O

> <preferred_name>
Nitrendipine

> <dsstox_substance_id>
DTXSID0023373

> <dsstox_compound_id>
DTXCID203373

> <Canonical_QSARr>
COC(=O)C1C(C(C(=O)OCC)=C(C)N=C1C)C1C=C(C=CC=1)[N+]([O-])=O

> <InChI_Code_QSARr>
InChI=1S/C18H20N2O6/c1-5-26-18(22)15-11(3)19-10(2)14(17(21)25-4)16(15)12-7-6-8-13(9-12)20(23)24/h6-9,14,16H,5H2,1-4H3

> <InChI Key_QSARr>
VVTJQHCRBOHFTD-UHFFFAOYSA-N

> <Salt_Solvent>


> <Salt_Solvent_ID>
0

> <Clint>
0.8692317197309762

> <Tr_1_Tst_0>
1

$$$$
Row328
  Mrv171c012261910192D          

 30 32  0  0  0  0            999 V2000
    5.9073   -2.4060    0.0000 C   0  0  0  0  0  0  0  0  0  0  0  0
    5.1928   -1.9935    0.0000 C   0  0  0  0  0  0  0  0  0  0  0  0
    4.4783   -2.4060    0.0000 C   0  0  0  0  0  0  0  0  0  0  0  0
    3.7638   -1.9935    0.0000 C   0  0  0  0  0  0  0  0  0  0  0  0
    4.4783   -3.2310    0.0000 C   0  0  0  0  0  0  0  0  0  0  0  0
    5.1928   -3.6435    0.0000 C   0  0  0  0  0  0  0  0  0  0  0  0
    5.1928   -4.4685    0.0000 O   0  0  0  0  0  0  0  0  0  0  0  0
    4.4783   -4.8810    0.0000 C   0  0  0  0  0  0  0  0  0  0  0  0
    4.4783   -5.7060    0.0000 O   0  0  0  0  0  0  0  0  0  0  0  0
    3.7638   -4.4685    0.0000 C   0  0  0  0  0  0  0  0  0  0  0  0
    4.1763   -3.7541    0.0000 C   0  0  0  0  0  0  0  0  0  0  0  0
    3.0494   -4.0560    0.0000 C   0  0  0  0  0  0  0  0  0  0  0  0
    3.3513   -5.1830    0.0000 C   0  0  0  0  0  0  0  0  0  0  0  0
    2.5263   -5.1830    0.0000 C   0  0  0  0  0  0  0  0  0  0  0  0
    5.9073   -3.2310    0.0000 C   0  0  0  0  0  0  0  0  0  0  0  0
    6.6217   -3.6435    0.0000 C   0  0  0  0  0  0  0  0  0  0  0  0
    6.6217   -4.4685    0.0000 C   0  0  0  0  0  0  0  0  0  0  0  0
    5.9073   -4.8810    0.0000 C   0  0  0  0  0  0  0  0  0  0  0  0
    5.9073   -5.7060    0.0000 C   0  0  0  0  0  0  0  0  0  0  0  0
    5.1928   -6.1185    0.0000 C   0  0  0  0  0  0  0  0  0  0  0  0
    5.1928   -6.9435    0.0000 C   0  0  0  0  0  0  0  0  0  0  0  0
    4.4783   -7.3560    0.0000 O   0  0  0  0  0  0  0  0  0  0  0  0
    5.9073   -7.3560    0.0000 C   0  0  0  0  0  0  0  0  0  0  0  0
    6.6217   -6.9435    0.0000 C   0  0  0  0  0  0  0  0  0  0  0  0
    7.3362   -7.3560    0.0000 O   0  0  0  0  0  0  0  0  0  0  0  0
    6.6217   -6.1185    0.0000 O   0  0  0  0  0  0  0  0  0  0  0  0
    7.3362   -3.2310    0.0000 C   0  0  0  0  0  0  0  0  0  0  0  0
    8.0507   -3.6435    0.0000 C   0  0  0  0  0  0  0  0  0  0  0  0
    7.3362   -2.4060    0.0000 C   0  0  0  0  0  0  0  0  0  0  0  0
    6.6217   -1.9935    0.0000 C   0  0  0  0  0  0  0  0  0  0  0  0
  2  1  2  0  0  0  0
  3  2  1  0  0  0  0
  3  4  1  0  0  0  0
  5  3  1  0  0  0  0
  6  5  1  0  0  0  0
  6  7  1  0  0  0  0
  7  8  1  0  0  0  0
  8  9  2  0  0  0  0
  8 10  1  0  0  0  0
 10 11  1  0  0  0  0
 10 12  1  0  0  0  0
 10 13  1  0  0  0  0
 13 14  1  0  0  0  0
 15  6  1  0  0  0  0
 15  1  1  0  0  0  0
 16 15  1  0  0  0  0
 16 17  1  0  0  0  0
 17 18  1  0  0  0  0
 18 19  1  0  0  0  0
 20 19  1  0  0  0  0
 21 20  1  0  0  0  0
 21 22  1  0  0  0  0
 23 21  1  0  0  0  0
 24 23  1  0  0  0  0
 24 25  2  0  0  0  0
 26 24  1  0  0  0  0
 19 26  1  0  0  0  0
 27 16  1  0  0  0  0
 27 28  1  0  0  0  0
 29 27  1  0  0  0  0
 30 29  2  0  0  0  0
  1 30  1  0  0  0  0
M  END
> <ChemID>
10027

> <CAS>
79902-63-9

> <Original_SMILES>
CCC(C)(C)C(=O)O[C@H]1C[C@@H](C)C=C2C=C[C@H](C)[C@H](CC[C@@H]3C[C@@H](O)CC(=O)O3)[C@H]21

> <preferred_name>
Simvastatin

> <dsstox_substance_id>
DTXSID0023581

> <dsstox_compound_id>
DTXCID103581

> <Canonical_QSARr>
CCC(C)(C)C(=O)OC1CC(C)C=C2C=CC(C)C(CCC3CC(O)CC(=O)O3)C21

> <InChI_Code_QSARr>
InChI=1S/C25H38O5/c1-6-25(4,5)24(28)30-21-12-15(2)11-17-8-7-16(3)20(23(17)21)10-9-19-13-18(26)14-22(27)29-19/h7-8,11,15-16,18-21,23,26H,6,9-10,12-14H2,1-5H3

> <InChI Key_QSARr>
RYMZZMVNJRMUDD-UHFFFAOYSA-N

> <Salt_Solvent>


> <Salt_Solvent_ID>
0

> <Clint>
1.3856062735983121

> <Tr_1_Tst_0>
1

$$$$
Row257
  Mrv171c012261910192D          

 14 16  0  0  0  0            999 V2000
    2.1385   -0.0041    0.0000 C   0  0  0  0  0  0  0  0  0  0  0  0
    2.8530   -0.4166    0.0000 C   0  0  0  0  0  0  0  0  0  0  0  0
    3.5675   -0.0041    0.0000 C   0  0  0  0  0  0  0  0  0  0  0  0
    4.2819   -0.4166    0.0000 C   0  0  0  0  0  0  0  0  0  0  0  0
    4.2819   -1.2416    0.0000 C   0  0  0  0  0  0  0  0  0  0  0  0
    3.5675   -1.6541    0.0000 C   0  0  0  0  0  0  0  0  0  0  0  0
    2.8530   -1.2416    0.0000 C   0  0  0  0  0  0  0  0  0  0  0  0
    2.1385   -1.6541    0.0000 C   0  0  0  0  0  0  0  0  0  0  0  0
    1.4240   -1.2416    0.0000 C   0  0  0  0  0  0  0  0  0  0  0  0
    0.7096   -1.6541    0.0000 C   0  0  0  0  0  0  0  0  0  0  0  0
   -0.0049   -1.2416    0.0000 C   0  0  0  0  0  0  0  0  0  0  0  0
   -0.0049   -0.4166    0.0000 C   0  0  0  0  0  0  0  0  0  0  0  0
    0.7096   -0.0041    0.0000 C   0  0  0  0  0  0  0  0  0  0  0  0
    1.4240   -0.4166    0.0000 C   0  0  0  0  0  0  0  0  0  0  0  0
  2  1  2  0  0  0  0
  2  3  1  0  0  0  0
  3  4  2  0  0  0  0
  4  5  1  0  0  0  0
  5  6  2  0  0  0  0
  6  7  1  0  0  0  0
  7  2  1  0  0  0  0
  8  7  2  0  0  0  0
  9  8  1  0  0  0  0
  9 10  1  0  0  0  0
 10 11  2  0  0  0  0
 11 12  1  0  0  0  0
 12 13  2  0  0  0  0
 13 14  1  0  0  0  0
  1 14  1  0  0  0  0
 14  9  2  0  0  0  0
M  END
> <ChemID>
10028

> <CAS>
120-12-7

> <Original_SMILES>
c1c2ccccc2cc2ccccc21

> <preferred_name>
Anthracene

> <dsstox_substance_id>
DTXSID0023878

> <dsstox_compound_id>
DTXCID203878

> <Canonical_QSARr>
C1=C2C=CC=CC2=CC2C=CC=CC=21

> <InChI_Code_QSARr>
InChI=1S/C14H10/c1-2-6-12-10-14-8-4-3-7-13(14)9-11(12)5-1/h1-10H

> <InChI Key_QSARr>
MWPLVEDNUUSJAV-UHFFFAOYSA-N

> <Salt_Solvent>


> <Salt_Solvent_ID>
0

> <Clint>
1.1248953049884924

> <Tr_1_Tst_0>
1

$$$$
Row4
  Mrv171c012261910192D          

 16 17  0  0  0  0            999 V2000
    1.4863   -0.8779    0.0000 S   0  0  0  0  0  0  0  0  0  0  0  0
    1.2041   -0.1026    0.0000 O   0  0  0  0  0  0  0  0  0  0  0  0
    0.6738   -1.0211    0.0000 O   0  0  0  0  0  0  0  0  0  0  0  0
    2.2007   -0.4654    0.0000 N   0  0  0  0  0  0  0  0  0  0  0  0
    2.9152   -0.8779    0.0000 C   0  0  0  0  0  0  0  0  0  0  0  0
    3.6297   -0.4654    0.0000 C   0  0  0  0  0  0  0  0  0  0  0  0
    4.3441   -0.8779    0.0000 C   0  0  0  0  0  0  0  0  0  0  0  0
    4.3441   -1.7029    0.0000 C   0  0  0  0  0  0  0  0  0  0  0  0
    3.6297   -2.1154    0.0000 C   0  0  0  0  0  0  0  0  0  0  0  0
    2.9152   -1.7029    0.0000 C   0  0  0  0  0  0  0  0  0  0  0  0
    2.2007   -2.1154    0.0000 C   0  0  0  0  0  0  0  0  0  0  0  0
    2.2007   -2.9404    0.0000 O   0  0  0  0  0  0  0  0  0  0  0  0
    1.4863   -1.7029    0.0000 N   0  0  0  0  0  0  0  0  0  0  0  0
    0.7718   -2.1154    0.0000 C   0  0  0  0  0  0  0  0  0  0  0  0
    0.7718   -2.9404    0.0000 C   0  0  0  0  0  0  0  0  0  0  0  0
    0.0573   -1.7029    0.0000 C   0  0  0  0  0  0  0  0  0  0  0  0
  1  2  2  0  0  0  0
  1  3  2  0  0  0  0
  4  1  1  0  0  0  0
  5  4  1  0  0  0  0
  5  6  1  0  0  0  0
  6  7  2  0  0  0  0
  7  8  1  0  0  0  0
  8  9  2  0  0  0  0
  9 10  1  0  0  0  0
 10  5  2  0  0  0  0
 11 10  1  0  0  0  0
 11 12  2  0  0  0  0
 13 11  1  0  0  0  0
  1 13  1  0  0  0  0
 13 14  1  0  0  0  0
 14 15  1  0  0  0  0
 14 16  1  0  0  0  0
M  END
> <ChemID>
10029

> <CAS>
25057-89-0

> <Original_SMILES>
CC(C)N1C(=O)c2ccccc2NS1(=O)=O

> <preferred_name>
Bentazone

> <dsstox_substance_id>
DTXSID0023901

> <dsstox_compound_id>
DTXCID503901

> <Canonical_QSARr>
CC(C)N1C(=O)C2C=CC=CC=2NS1(=O)=O

> <InChI_Code_QSARr>
InChI=1S/C10H12N2O3S/c1-7(2)12-10(13)8-5-3-4-6-9(8)11-16(12,14)15/h3-7,11H,1-2H3

> <InChI Key_QSARr>
ZOMSMJKLGFBRBS-UHFFFAOYSA-N

> <Salt_Solvent>


> <Salt_Solvent_ID>
0

> <Clint>
-7.0

> <Tr_1_Tst_0>
1

$$$$
Row473
  Mrv171c012261910192D          

 20 24  0  0  0  0            999 V2000
   -0.0881    0.0535    0.0000 C   0  0  0  0  0  0  0  0  0  0  0  0
    0.6218    0.4739    0.0000 C   0  0  0  0  0  0  0  0  0  0  0  0
    0.6127    1.2988    0.0000 C   0  0  0  0  0  0  0  0  0  0  0  0
   -0.1063    1.7034    0.0000 C   0  0  0  0  0  0  0  0  0  0  0  0
   -0.8162    1.2831    0.0000 C   0  0  0  0  0  0  0  0  0  0  0  0
   -0.8071    0.4581    0.0000 C   0  0  0  0  0  0  0  0  0  0  0  0
   -1.4141   -0.1006    0.0000 C   0  0  0  0  0  0  0  0  0  0  0  0
   -2.2354   -0.0235    0.0000 C   0  0  0  0  0  0  0  0  0  0  0  0
   -2.7130   -0.6962    0.0000 C   0  0  0  0  0  0  0  0  0  0  0  0
   -2.3691   -1.4461    0.0000 C   0  0  0  0  0  0  0  0  0  0  0  0
   -1.5477   -1.5233    0.0000 C   0  0  0  0  0  0  0  0  0  0  0  0
   -1.0702   -0.8506    0.0000 C   0  0  0  0  0  0  0  0  0  0  0  0
   -0.2507   -0.7553    0.0000 C   0  0  0  0  0  0  0  0  0  0  0  0
    0.3684   -1.3005    0.0000 C   0  0  0  0  0  0  0  0  0  0  0  0
    1.1502   -1.0370    0.0000 C   0  0  0  0  0  0  0  0  0  0  0  0
    1.7693   -1.5822    0.0000 C   0  0  0  0  0  0  0  0  0  0  0  0
    2.5511   -1.3186    0.0000 C   0  0  0  0  0  0  0  0  0  0  0  0
    2.7137   -0.5098    0.0000 C   0  0  0  0  0  0  0  0  0  0  0  0
    2.0946    0.0354    0.0000 C   0  0  0  0  0  0  0  0  0  0  0  0
    1.3128   -0.2281    0.0000 C   0  0  0  0  0  0  0  0  0  0  0  0
  2  1  1  0  0  0  0
  2  3  1  0  0  0  0
  3  4  2  0  0  0  0
  4  5  1  0  0  0  0
  5  6  2  0  0  0  0
  6  1  1  0  0  0  0
  6  7  1  0  0  0  0
  8  7  2  0  0  0  0
  9  8  1  0  0  0  0
 10  9  2  0  0  0  0
 11 10  1  0  0  0  0
 12 11  2  0  0  0  0
  7 12  1  0  0  0  0
 12 13  1  0  0  0  0
  1 13  2  0  0  0  0
 13 14  1  0  0  0  0
 14 15  2  0  0  0  0
 16 15  1  0  0  0  0
 17 16  2  0  0  0  0
 18 17  1  0  0  0  0
 19 18  2  0  0  0  0
 20 19  1  0  0  0  0
 15 20  1  0  0  0  0
 20  2  2  0  0  0  0
M  END
> <ChemID>
10030

> <CAS>
205-99-2

> <Original_SMILES>
c1c2c3c(cccc3-c3ccccc3-2)c2ccccc21

> <preferred_name>
Benzo(b)fluoranthene

> <dsstox_substance_id>
DTXSID0023907

> <dsstox_compound_id>
DTXCID903907

> <Canonical_QSARr>
C1C2=C3C(=CC=CC3=C3C=CC=CC3=1)C1=CC=CC=C21

> <InChI_Code_QSARr>
InChI=1S/C20H12/c1-2-7-14-13(6-1)12-19-16-9-4-3-8-15(16)18-11-5-10-17(14)20(18)19/h1-12H

> <InChI Key_QSARr>
FTOVXSOBNPWTSH-UHFFFAOYSA-N

> <Salt_Solvent>


> <Salt_Solvent_ID>
0

> <Clint>
0.7453871213200087

> <Tr_1_Tst_0>
0

$$$$
Row329
  Mrv171c012261910192D          

 16 17  0  0  0  0            999 V2000
    3.0373   -2.1126    0.0000 C   0  0  0  0  0  0  0  0  0  0  0  0
    3.0373   -2.9376    0.0000 S   0  0  0  0  0  0  0  0  0  0  0  0
    3.7518   -3.3501    0.0000 C   0  0  0  0  0  0  0  0  0  0  0  0
    4.4662   -2.9376    0.0000 C   0  0  0  0  0  0  0  0  0  0  0  0
    4.4662   -2.1126    0.0000 O   0  0  0  0  0  0  0  0  0  0  0  0
    3.7518   -1.7001    0.0000 C   0  0  0  0  0  0  0  0  0  0  0  0
    3.7518   -0.8751    0.0000 C   0  0  0  0  0  0  0  0  0  0  0  0
    2.3228   -1.7001    0.0000 C   0  0  0  0  0  0  0  0  0  0  0  0
    1.6084   -2.1126    0.0000 O   0  0  0  0  0  0  0  0  0  0  0  0
    2.3228   -0.8751    0.0000 N   0  0  0  0  0  0  0  0  0  0  0  0
    1.6084   -0.4626    0.0000 C   0  0  0  0  0  0  0  0  0  0  0  0
    1.6084    0.3624    0.0000 C   0  0  0  0  0  0  0  0  0  0  0  0
    0.8939    0.7749    0.0000 C   0  0  0  0  0  0  0  0  0  0  0  0
    0.1794    0.3624    0.0000 C   0  0  0  0  0  0  0  0  0  0  0  0
    0.1794   -0.4626    0.0000 C   0  0  0  0  0  0  0  0  0  0  0  0
    0.8939   -0.8751    0.0000 C   0  0  0  0  0  0  0  0  0  0  0  0
  2  1  1  0  0  0  0
  3  2  1  0  0  0  0
  4  3  1  0  0  0  0
  5  4  1  0  0  0  0
  6  5  1  0  0  0  0
  1  6  2  0  0  0  0
  6  7  1  0  0  0  0
  1  8  1  0  0  0  0
  8  9  2  0  0  0  0
  8 10  1  0  0  0  0
 10 11  1  0  0  0  0
 12 11  2  0  0  0  0
 13 12  1  0  0  0  0
 14 13  2  0  0  0  0
 15 14  1  0  0  0  0
 16 15  2  0  0  0  0
 11 16  1  0  0  0  0
M  END
> <ChemID>
10031

> <CAS>
5234-68-4

> <Original_SMILES>
CC1OCCSC=1C(=O)Nc1ccccc1

> <preferred_name>
Carboxin

> <dsstox_substance_id>
DTXSID0023951

> <dsstox_compound_id>
DTXCID003951

> <Canonical_QSARr>
CC1OCCSC=1C(=O)NC1C=CC=CC=1

> <InChI_Code_QSARr>
InChI=1S/C12H13NO2S/c1-9-11(16-8-7-15-9)12(14)13-10-5-3-2-4-6-10/h2-6H,7-8H2,1H3,(H,13,14)

> <InChI Key_QSARr>
GYSSRZJIHXQEHQ-UHFFFAOYSA-N

> <Salt_Solvent>


> <Salt_Solvent_ID>
0

> <Clint>
1.3875677794171883

> <Tr_1_Tst_0>
1

$$$$
Row366
  Mrv171c012261910192D          

 18 18  0  0  0  0            999 V2000
    2.1489   -1.6389    0.0000 C   0  0  0  0  0  0  0  0  0  0  0  0
    2.8633   -1.2264    0.0000 C   0  0  0  0  0  0  0  0  0  0  0  0
    3.5778   -1.6389    0.0000 O   0  0  0  0  0  0  0  0  0  0  0  0
    4.2923   -1.2264    0.0000 C   0  0  0  0  0  0  0  0  0  0  0  0
    2.8633   -0.4014    0.0000 O   0  0  0  0  0  0  0  0  0  0  0  0
    1.4344   -1.2264    0.0000 C   0  0  0  0  0  0  0  0  0  0  0  0
    1.4344   -0.4014    0.0000 Cl  0  0  0  0  0  0  0  0  0  0  0  0
    0.7199   -1.6389    0.0000 C   0  0  0  0  0  0  0  0  0  0  0  0
    0.0055   -1.2264    0.0000 Cl  0  0  0  0  0  0  0  0  0  0  0  0
    0.7199   -2.4639    0.0000 C   0  0  0  0  0  0  0  0  0  0  0  0
    0.0055   -2.8764    0.0000 C   0  0  0  0  0  0  0  0  0  0  0  0
   -0.7090   -2.4639    0.0000 O   0  0  0  0  0  0  0  0  0  0  0  0
   -1.4235   -2.8764    0.0000 C   0  0  0  0  0  0  0  0  0  0  0  0
    0.0055   -3.7014    0.0000 O   0  0  0  0  0  0  0  0  0  0  0  0
    1.4344   -2.8764    0.0000 C   0  0  0  0  0  0  0  0  0  0  0  0
    1.4344   -3.7014    0.0000 Cl  0  0  0  0  0  0  0  0  0  0  0  0
    2.1489   -2.4639    0.0000 C   0  0  0  0  0  0  0  0  0  0  0  0
    2.8633   -2.8764    0.0000 Cl  0  0  0  0  0  0  0  0  0  0  0  0
  1  2  1  0  0  0  0
  2  3  1  0  0  0  0
  3  4  1  0  0  0  0
  2  5  2  0  0  0  0
  6  1  1  0  0  0  0
  6  7  1  0  0  0  0
  8  6  2  0  0  0  0
  8  9  1  0  0  0  0
 10  8  1  0  0  0  0
 10 11  1  0  0  0  0
 11 12  1  0  0  0  0
 12 13  1  0  0  0  0
 11 14  2  0  0  0  0
 15 10  2  0  0  0  0
 15 16  1  0  0  0  0
 17 15  1  0  0  0  0
  1 17  2  0  0  0  0
 17 18  1  0  0  0  0
M  END
> <ChemID>
10032

> <CAS>
1861-32-1

> <Original_SMILES>
COC(=O)c1c(Cl)c(Cl)c(c(Cl)c1Cl)C(=O)OC

> <preferred_name>
Chlorthal-dimethyl

> <dsstox_substance_id>
DTXSID0024000

> <dsstox_compound_id>
DTXCID404000

> <Canonical_QSARr>
COC(=O)C1=C(Cl)C(Cl)=C(C(Cl)=C1Cl)C(=O)OC

> <InChI_Code_QSARr>
InChI=1S/C10H6Cl4O4/c1-17-9(15)3-5(11)7(13)4(10(16)18-2)8(14)6(3)12/h1-2H3

> <InChI Key_QSARr>
NPOJQCVWMSKXDN-UHFFFAOYSA-N

> <Salt_Solvent>


> <Salt_Solvent_ID>
0

> <Clint>
1.5868122694433757

> <Tr_1_Tst_0>
1

$$$$
Row463
  Mrv171c012261910192D          

 26 28  0  0  0  0            999 V2000
    1.5006   -1.1870    0.0000 C   0  0  0  0  0  0  0  0  0  0  0  0
    1.3573   -1.9994    0.0000 C   0  0  0  0  0  0  0  0  0  0  0  0
    0.7254   -0.9048    0.0000 C   0  0  0  0  0  0  0  0  0  0  0  0
    2.3256   -1.1870    0.0000 C   0  0  0  0  0  0  0  0  0  0  0  0
    3.0401   -1.5995    0.0000 C   0  0  0  0  0  0  0  0  0  0  0  0
    3.7545   -1.1870    0.0000 O   0  0  0  0  0  0  0  0  0  0  0  0
    3.0401   -2.4245    0.0000 O   0  0  0  0  0  0  0  0  0  0  0  0
    3.7545   -2.8370    0.0000 C   0  0  0  0  0  0  0  0  0  0  0  0
    3.7545   -3.6620    0.0000 C   0  0  0  0  0  0  0  0  0  0  0  0
    3.0401   -4.0745    0.0000 C   0  0  0  0  0  0  0  0  0  0  0  0
    3.0401   -4.8995    0.0000 C   0  0  0  0  0  0  0  0  0  0  0  0
    3.7545   -5.3120    0.0000 C   0  0  0  0  0  0  0  0  0  0  0  0
    4.4690   -4.8995    0.0000 C   0  0  0  0  0  0  0  0  0  0  0  0
    5.1835   -5.3120    0.0000 O   0  0  0  0  0  0  0  0  0  0  0  0
    5.8980   -4.8995    0.0000 C   0  0  0  0  0  0  0  0  0  0  0  0
    6.6124   -5.3120    0.0000 C   0  0  0  0  0  0  0  0  0  0  0  0
    7.3269   -4.8995    0.0000 C   0  0  0  0  0  0  0  0  0  0  0  0
    7.3269   -4.0745    0.0000 C   0  0  0  0  0  0  0  0  0  0  0  0
    6.6124   -3.6620    0.0000 C   0  0  0  0  0  0  0  0  0  0  0  0
    5.8980   -4.0745    0.0000 C   0  0  0  0  0  0  0  0  0  0  0  0
    4.4690   -4.0745    0.0000 C   0  0  0  0  0  0  0  0  0  0  0  0
    4.4690   -2.4245    0.0000 C   0  0  0  0  0  0  0  0  0  0  0  0
    5.1835   -2.0120    0.0000 N   0  0  0  0  0  0  0  0  0  0  0  0
    1.9131   -0.4725    0.0000 C   0  0  0  0  0  0  0  0  0  0  0  0
    2.3863    0.2033    0.0000 C   0  0  0  0  0  0  0  0  0  0  0  0
    1.4399    0.2033    0.0000 C   0  0  0  0  0  0  0  0  0  0  0  0
  1  2  1  0  0  0  0
  1  3  1  0  0  0  0
  4  1  1  0  0  0  0
  4  5  1  0  0  0  0
  5  6  2  0  0  0  0
  5  7  1  0  0  0  0
  7  8  1  0  0  0  0
  8  9  1  0  0  0  0
 10  9  2  0  0  0  0
 11 10  1  0  0  0  0
 12 11  2  0  0  0  0
 13 12  1  0  0  0  0
 13 14  1  0  0  0  0
 14 15  1  0  0  0  0
 16 15  2  0  0  0  0
 17 16  1  0  0  0  0
 18 17  2  0  0  0  0
 19 18  1  0  0  0  0
 20 19  2  0  0  0  0
 15 20  1  0  0  0  0
 21 13  2  0  0  0  0
  9 21  1  0  0  0  0
  8 22  1  0  0  0  0
 22 23  3  0  0  0  0
 24  4  1  0  0  0  0
  1 24  1  0  0  0  0
 24 25  1  0  0  0  0
 24 26  1  0  0  0  0
M  END
> <ChemID>
10033

> <CAS>
39515-41-8

> <Original_SMILES>
CC1(C)C(C(=O)OC(C#N)c2cc(ccc2)Oc2ccccc2)C1(C)C

> <preferred_name>
Fenpropathrin

> <dsstox_substance_id>
DTXSID0024002

> <dsstox_compound_id>
DTXCID204002

> <Canonical_QSARr>
CC1(C)C(C(=O)OC(C#N)C2C=C(C=CC=2)OC2C=CC=CC=2)C1(C)C

> <InChI_Code_QSARr>
InChI=1S/C22H23NO3/c1-21(2)19(22(21,3)4)20(24)26-18(14-23)15-9-8-12-17(13-15)25-16-10-6-5-7-11-16/h5-13,18-19H,1-4H3

> <InChI Key_QSARr>
XQUXKZZNEFRCAW-UHFFFAOYSA-N

> <Salt_Solvent>


> <Salt_Solvent_ID>
0

> <Clint>
0.5010592622177514

> <Tr_1_Tst_0>
0

$$$$
Row361
  Mrv171c012261910192D          

 11 11  0  0  0  0            999 V2000
    0.8456   -1.7700    0.0000 C   0  0  0  0  0  0  0  0  0  0  0  0
    0.1311   -2.1825    0.0000 Cl  0  0  0  0  0  0  0  0  0  0  0  0
    1.2581   -2.4845    0.0000 Cl  0  0  0  0  0  0  0  0  0  0  0  0
    0.4331   -1.0555    0.0000 Cl  0  0  0  0  0  0  0  0  0  0  0  0
    1.5600   -1.3575    0.0000 C   0  0  0  0  0  0  0  0  0  0  0  0
    2.2745   -1.7700    0.0000 C   0  0  0  0  0  0  0  0  0  0  0  0
    2.9890   -1.3575    0.0000 C   0  0  0  0  0  0  0  0  0  0  0  0
    2.9890   -0.5325    0.0000 C   0  0  0  0  0  0  0  0  0  0  0  0
    2.2745   -0.1200    0.0000 C   0  0  0  0  0  0  0  0  0  0  0  0
    2.2745    0.7050    0.0000 Cl  0  0  0  0  0  0  0  0  0  0  0  0
    1.5600   -0.5325    0.0000 N   0  0  0  0  0  0  0  0  0  0  0  0
  1  2  1  0  0  0  0
  1  3  1  0  0  0  0
  1  4  1  0  0  0  0
  1  5  1  0  0  0  0
  6  5  1  0  0  0  0
  7  6  2  0  0  0  0
  8  7  1  0  0  0  0
  9  8  2  0  0  0  0
  9 10  1  0  0  0  0
 11  9  1  0  0  0  0
  5 11  2  0  0  0  0
M  END
> <ChemID>
10034

> <CAS>
1929-82-4

> <Original_SMILES>
Clc1cccc([n]1)C(Cl)(Cl)Cl

> <preferred_name>
Nitrapyrin

> <dsstox_substance_id>
DTXSID0024216

> <dsstox_compound_id>
DTXCID504216

> <Canonical_QSARr>
ClC1=CC=CC(=N1)C(Cl)(Cl)Cl

> <InChI_Code_QSARr>
InChI=1S/C6H3Cl4N/c7-5-3-1-2-4(11-5)6(8,9)10/h1-3H

> <InChI Key_QSARr>
DCUJJWWUNKIJPH-UHFFFAOYSA-N

> <Salt_Solvent>


> <Salt_Solvent_ID>
0

> <Clint>
1.5663196215248112

> <Tr_1_Tst_0>
1

$$$$
Row345
  Mrv171c012261910192D          

 19 19  0  0  0  0            999 V2000
    3.2741   -1.7444    0.0000 N   0  0  0  0  0  0  0  0  0  0  0  0
    2.5597   -1.3319    0.0000 C   0  0  0  0  0  0  0  0  0  0  0  0
    2.5597   -0.5069    0.0000 O   0  0  0  0  0  0  0  0  0  0  0  0
    1.8452   -0.0944    0.0000 P   0  0  0  0  0  0  0  0  0  0  0  0
    1.1307    0.3181    0.0000 O   0  0  0  0  0  0  0  0  0  0  0  0
    1.1307    1.1431    0.0000 C   0  0  0  0  0  0  0  0  0  0  0  0
    1.4327   -0.8089    0.0000 O   0  0  0  0  0  0  0  0  0  0  0  0
    0.6077   -0.8089    0.0000 C   0  0  0  0  0  0  0  0  0  0  0  0
    2.2577    0.6200    0.0000 S   0  0  0  0  0  0  0  0  0  0  0  0
    1.8452   -1.7444    0.0000 C   0  0  0  0  0  0  0  0  0  0  0  0
    1.8452   -2.5694    0.0000 C   0  0  0  0  0  0  0  0  0  0  0  0
    1.1307   -2.9819    0.0000 C   0  0  0  0  0  0  0  0  0  0  0  0
    2.5597   -2.9819    0.0000 N   0  0  0  0  0  0  0  0  0  0  0  0
    3.2741   -2.5694    0.0000 C   0  0  0  0  0  0  0  0  0  0  0  0
    3.9886   -2.9819    0.0000 N   0  0  0  0  0  0  0  0  0  0  0  0
    3.9886   -3.8069    0.0000 C   0  0  0  0  0  0  0  0  0  0  0  0
    4.7031   -4.2194    0.0000 C   0  0  0  0  0  0  0  0  0  0  0  0
    4.7031   -2.5694    0.0000 C   0  0  0  0  0  0  0  0  0  0  0  0
    5.4175   -2.9819    0.0000 C   0  0  0  0  0  0  0  0  0  0  0  0
  2  1  1  0  0  0  0
  2  3  1  0  0  0  0
  3  4  1  0  0  0  0
  4  5  1  0  0  0  0
  5  6  1  0  0  0  0
  4  7  1  0  0  0  0
  7  8  1  0  0  0  0
  4  9  2  0  0  0  0
 10  2  2  0  0  0  0
 11 10  1  0  0  0  0
 11 12  1  0  0  0  0
 13 11  2  0  0  0  0
 14 13  1  0  0  0  0
  1 14  2  0  0  0  0
 14 15  1  0  0  0  0
 15 16  1  0  0  0  0
 16 17  1  0  0  0  0
 15 18  1  0  0  0  0
 18 19  1  0  0  0  0
M  END
> <ChemID>
10035

> <CAS>
29232-93-7

> <Original_SMILES>
Cc1cc([n]c([n]1)N(CC)CC)OP(=S)(OC)OC

> <preferred_name>
Pirimiphos-methyl

> <dsstox_substance_id>
DTXSID0024266

> <dsstox_compound_id>
DTXCID004266

> <Canonical_QSARr>
CC1C=C(N=C(N=1)N(CC)CC)OP(=S)(OC)OC

> <InChI_Code_QSARr>
InChI=1S/C11H20N3O3PS/c1-6-14(7-2)11-12-9(3)8-10(13-11)17-18(19,15-4)16-5/h8H,6-7H2,1-5H3

> <InChI Key_QSARr>
QHOQHJPRIBSPCY-UHFFFAOYSA-N

> <Salt_Solvent>


> <Salt_Solvent_ID>
0

> <Clint>
1.4739246934161572

> <Tr_1_Tst_0>
1

$$$$
Row268
  Mrv171c012261910192D          

 26 27  0  0  0  0            999 V2000
    3.6137   -2.9046    0.0000 C   0  0  0  0  0  0  0  0  0  0  0  0
    2.8992   -3.3171    0.0000 S   0  0  0  0  0  0  0  0  0  0  0  0
    2.4867   -2.6026    0.0000 O   0  0  0  0  0  0  0  0  0  0  0  0
    2.1847   -3.7296    0.0000 N   0  0  0  0  0  0  0  0  0  0  0  0
    1.4702   -3.3171    0.0000 C   0  0  0  0  0  0  0  0  0  0  0  0
    0.7558   -3.7296    0.0000 N   0  0  0  0  0  0  0  0  0  0  0  0
    0.0413   -3.3171    0.0000 C   0  0  0  0  0  0  0  0  0  0  0  0
    0.0413   -2.4921    0.0000 N   0  0  0  0  0  0  0  0  0  0  0  0
   -0.6732   -2.0796    0.0000 C   0  0  0  0  0  0  0  0  0  0  0  0
   -0.6732   -1.2546    0.0000 O   0  0  0  0  0  0  0  0  0  0  0  0
   -1.3876   -0.8421    0.0000 C   0  0  0  0  0  0  0  0  0  0  0  0
   -1.3876   -2.4921    0.0000 N   0  0  0  0  0  0  0  0  0  0  0  0
   -1.3876   -3.3171    0.0000 C   0  0  0  0  0  0  0  0  0  0  0  0
   -2.1021   -3.7296    0.0000 C   0  0  0  0  0  0  0  0  0  0  0  0
   -0.6732   -3.7296    0.0000 N   0  0  0  0  0  0  0  0  0  0  0  0
    1.4702   -2.4921    0.0000 O   0  0  0  0  0  0  0  0  0  0  0  0
    3.3117   -4.0316    0.0000 O   0  0  0  0  0  0  0  0  0  0  0  0
    4.3281   -3.3171    0.0000 C   0  0  0  0  0  0  0  0  0  0  0  0
    4.3281   -4.1421    0.0000 O   0  0  0  0  0  0  0  0  0  0  0  0
    5.0426   -4.5546    0.0000 C   0  0  0  0  0  0  0  0  0  0  0  0
    5.0426   -5.3796    0.0000 C   0  0  0  0  0  0  0  0  0  0  0  0
    5.7571   -5.7921    0.0000 Cl  0  0  0  0  0  0  0  0  0  0  0  0
    5.0426   -2.9046    0.0000 C   0  0  0  0  0  0  0  0  0  0  0  0
    5.0426   -2.0796    0.0000 C   0  0  0  0  0  0  0  0  0  0  0  0
    4.3281   -1.6671    0.0000 C   0  0  0  0  0  0  0  0  0  0  0  0
    3.6137   -2.0796    0.0000 C   0  0  0  0  0  0  0  0  0  0  0  0
  1  2  1  0  0  0  0
  2  3  2  0  0  0  0
  2  4  1  0  0  0  0
  4  5  1  0  0  0  0
  5  6  1  0  0  0  0
  6  7  1  0  0  0  0
  8  7  2  0  0  0  0
  9  8  1  0  0  0  0
  9 10  1  0  0  0  0
 10 11  1  0  0  0  0
 12  9  2  0  0  0  0
 13 12  1  0  0  0  0
 13 14  1  0  0  0  0
 15 13  2  0  0  0  0
  7 15  1  0  0  0  0
  5 16  2  0  0  0  0
  2 17  2  0  0  0  0
 18  1  2  0  0  0  0
 18 19  1  0  0  0  0
 19 20  1  0  0  0  0
 20 21  1  0  0  0  0
 21 22  1  0  0  0  0
 23 18  1  0  0  0  0
 24 23  2  0  0  0  0
 25 24  1  0  0  0  0
 26 25  2  0  0  0  0
  1 26  1  0  0  0  0
M  END
> <ChemID>
10036

> <CAS>
82097-50-5

> <Original_SMILES>
Cc1[n]c(NC(=O)NS(=O)(=O)c2ccccc2OCCCl)[n]c([n]1)OC

> <preferred_name>
Triasulfuron

> <dsstox_substance_id>
DTXSID0024345

> <dsstox_compound_id>
DTXCID204345

> <Canonical_QSARr>
CC1N=C(N=C(NC(=O)NS(=O)(=O)C2C=CC=CC=2OCCCl)N=1)OC

> <InChI_Code_QSARr>
InChI=1S/C14H16ClN5O5S/c1-9-16-12(19-14(17-9)24-2)18-13(21)20-26(22,23)11-6-4-3-5-10(11)25-8-7-15/h3-6H,7-8H2,1-2H3,(H2,16,17,18,19,20,21)

> <InChI Key_QSARr>
XOPFESVZMSQIKC-UHFFFAOYSA-N

> <Salt_Solvent>


> <Salt_Solvent_ID>
0

> <Clint>
1.1637575239819558

> <Tr_1_Tst_0>
1

$$$$
Row22
  Mrv171c012261910192D          

 20 21  0  0  0  0            999 V2000
    3.0624   -2.8021    0.0000 C   0  0  0  0  0  0  0  0  0  0  0  0
    3.0624   -3.6271    0.0000 N   0  0  0  0  0  0  0  0  0  0  0  0
    3.7298   -4.1120    0.0000 C   0  0  0  0  0  0  0  0  0  0  0  0
    3.4749   -4.8966    0.0000 N   0  0  0  0  0  0  0  0  0  0  0  0
    2.6499   -4.8966    0.0000 C   0  0  0  0  0  0  0  0  0  0  0  0
    2.3949   -4.1120    0.0000 N   0  0  0  0  0  0  0  0  0  0  0  0
    3.7768   -2.3896    0.0000 O   0  0  0  0  0  0  0  0  0  0  0  0
    3.7768   -1.5646    0.0000 C   0  0  0  0  0  0  0  0  0  0  0  0
    4.4913   -1.1521    0.0000 C   0  0  0  0  0  0  0  0  0  0  0  0
    4.4913   -0.3271    0.0000 C   0  0  0  0  0  0  0  0  0  0  0  0
    3.7768    0.0854    0.0000 C   0  0  0  0  0  0  0  0  0  0  0  0
    3.7768    0.9104    0.0000 Cl  0  0  0  0  0  0  0  0  0  0  0  0
    3.0624   -0.3271    0.0000 C   0  0  0  0  0  0  0  0  0  0  0  0
    3.0624   -1.1521    0.0000 C   0  0  0  0  0  0  0  0  0  0  0  0
    2.3479   -2.3896    0.0000 C   0  0  0  0  0  0  0  0  0  0  0  0
    2.3479   -1.5646    0.0000 O   0  0  0  0  0  0  0  0  0  0  0  0
    1.6334   -2.8021    0.0000 C   0  0  0  0  0  0  0  0  0  0  0  0
    1.2209   -2.0876    0.0000 C   0  0  0  0  0  0  0  0  0  0  0  0
    2.0459   -3.5166    0.0000 C   0  0  0  0  0  0  0  0  0  0  0  0
    0.9190   -3.2146    0.0000 C   0  0  0  0  0  0  0  0  0  0  0  0
  1  2  1  0  0  0  0
  3  2  1  0  0  0  0
  4  3  2  0  0  0  0
  5  4  1  0  0  0  0
  6  5  2  0  0  0  0
  2  6  1  0  0  0  0
  1  7  1  0  0  0  0
  7  8  1  0  0  0  0
  9  8  1  0  0  0  0
 10  9  2  0  0  0  0
 11 10  1  0  0  0  0
 11 12  1  0  0  0  0
 13 11  2  0  0  0  0
 14 13  1  0  0  0  0
  8 14  2  0  0  0  0
  1 15  1  0  0  0  0
 15 16  1  0  0  0  0
 15 17  1  0  0  0  0
 17 18  1  0  0  0  0
 17 19  1  0  0  0  0
 17 20  1  0  0  0  0
M  END
> <ChemID>
10037

> <CAS>
55219-65-3

> <Original_SMILES>
CC(C)(C)C(O)C(Oc1ccc(Cl)cc1)[n]1c[n]c[n]1

> <preferred_name>
Triadimenol

> <dsstox_substance_id>
DTXSID0032493

> <dsstox_compound_id>
DTXCID8012493

> <Canonical_QSARr>
CC(C)(C)C(O)C(OC1=CC=C(Cl)C=C1)N1C=NC=N1

> <InChI_Code_QSARr>
InChI=1S/C14H18ClN3O2/c1-14(2,3)12(19)13(18-9-16-8-17-18)20-11-6-4-10(15)5-7-11/h4-9,12-13,19H,1-3H3

> <InChI Key_QSARr>
BAZVSMNPJJMILC-UHFFFAOYSA-N

> <Salt_Solvent>


> <Salt_Solvent_ID>
0

> <Clint>
-7.0

> <Tr_1_Tst_0>
1

$$$$
Row23
  Mrv171c012261910192D          

 14 14  0  0  0  0            999 V2000
    2.1382   -0.7967    0.0000 N   0  0  0  0  0  0  0  0  0  0  0  0
    1.4237   -0.3842    0.0000 C   0  0  0  0  0  0  0  0  0  0  0  0
    1.4237    0.4408    0.0000 Cl  0  0  0  0  0  0  0  0  0  0  0  0
    0.7093   -0.7967    0.0000 C   0  0  0  0  0  0  0  0  0  0  0  0
   -0.0052   -0.3842    0.0000 Cl  0  0  0  0  0  0  0  0  0  0  0  0
    0.7093   -1.6217    0.0000 C   0  0  0  0  0  0  0  0  0  0  0  0
    1.4237   -2.0342    0.0000 C   0  0  0  0  0  0  0  0  0  0  0  0
    1.4237   -2.8592    0.0000 Cl  0  0  0  0  0  0  0  0  0  0  0  0
    2.1382   -1.6217    0.0000 C   0  0  0  0  0  0  0  0  0  0  0  0
    2.8527   -2.0342    0.0000 O   0  0  0  0  0  0  0  0  0  0  0  0
    3.5672   -1.6217    0.0000 C   0  0  0  0  0  0  0  0  0  0  0  0
    4.2816   -2.0342    0.0000 C   0  0  0  0  0  0  0  0  0  0  0  0
    4.9961   -1.6217    0.0000 O   0  0  0  0  0  0  0  0  0  0  0  0
    4.2816   -2.8592    0.0000 O   0  0  0  0  0  0  0  0  0  0  0  0
  2  1  2  0  0  0  0
  2  3  1  0  0  0  0
  4  2  1  0  0  0  0
  4  5  1  0  0  0  0
  6  4  2  0  0  0  0
  7  6  1  0  0  0  0
  7  8  1  0  0  0  0
  9  7  2  0  0  0  0
  1  9  1  0  0  0  0
  9 10  1  0  0  0  0
 10 11  1  0  0  0  0
 11 12  1  0  0  0  0
 12 13  1  0  0  0  0
 12 14  2  0  0  0  0
M  END
> <ChemID>
10038

> <CAS>
55335-06-3

> <Original_SMILES>
OC(=O)COc1[n]c(Cl)c(Cl)cc1Cl

> <preferred_name>
Triclopyr

> <dsstox_substance_id>
DTXSID0032497

> <dsstox_compound_id>
DTXCID8012497

> <Canonical_QSARr>
OC(=O)COC1N=C(Cl)C(Cl)=CC=1Cl

> <InChI_Code_QSARr>
InChI=1S/C7H4Cl3NO3/c8-3-1-4(9)7(11-6(3)10)14-2-5(12)13/h1H,2H2,(H,12,13)

> <InChI Key_QSARr>
REEQLXCGVXDJSQ-UHFFFAOYSA-N

> <Salt_Solvent>


> <Salt_Solvent_ID>
0

> <Clint>
-7.0

> <Tr_1_Tst_0>
1

$$$$
Row349
  Mrv171c012261910192D          

 30 32  0  0  0  0            999 V2000
    5.7158   -2.4750    0.0000 C   0  0  0  0  0  0  0  0  0  0  0  0
    5.0013   -2.8875    0.0000 O   0  0  0  0  0  0  0  0  0  0  0  0
    4.2868   -2.4750    0.0000 C   0  0  0  0  0  0  0  0  0  0  0  0
    4.2868   -1.6500    0.0000 O   0  0  0  0  0  0  0  0  0  0  0  0
    3.5724   -2.8875    0.0000 C   0  0  0  0  0  0  0  0  0  0  0  0
    2.8579   -2.4750    0.0000 C   0  0  0  0  0  0  0  0  0  0  0  0
    2.8579   -1.6500    0.0000 O   0  0  0  0  0  0  0  0  0  0  0  0
    2.1434   -1.2375    0.0000 C   0  0  0  0  0  0  0  0  0  0  0  0
    3.5724   -3.7125    0.0000 C   0  0  0  0  0  0  0  0  0  0  0  0
    2.8579   -4.1250    0.0000 C   0  0  0  0  0  0  0  0  0  0  0  0
    2.8579   -4.9500    0.0000 C   0  0  0  0  0  0  0  0  0  0  0  0
    3.5724   -5.3625    0.0000 C   0  0  0  0  0  0  0  0  0  0  0  0
    4.2868   -4.9500    0.0000 C   0  0  0  0  0  0  0  0  0  0  0  0
    4.2868   -4.1250    0.0000 C   0  0  0  0  0  0  0  0  0  0  0  0
    5.0013   -3.7125    0.0000 O   0  0  0  0  0  0  0  0  0  0  0  0
    5.7158   -4.1250    0.0000 C   0  0  0  0  0  0  0  0  0  0  0  0
    6.4302   -3.7125    0.0000 C   0  0  0  0  0  0  0  0  0  0  0  0
    7.1447   -4.1250    0.0000 C   0  0  0  0  0  0  0  0  0  0  0  0
    7.1447   -4.9500    0.0000 N   0  0  0  0  0  0  0  0  0  0  0  0
    6.4302   -5.3625    0.0000 C   0  0  0  0  0  0  0  0  0  0  0  0
    5.7158   -4.9500    0.0000 N   0  0  0  0  0  0  0  0  0  0  0  0
    7.8592   -3.7125    0.0000 O   0  0  0  0  0  0  0  0  0  0  0  0
    8.5737   -4.1250    0.0000 C   0  0  0  0  0  0  0  0  0  0  0  0
    9.2881   -3.7125    0.0000 C   0  0  0  0  0  0  0  0  0  0  0  0
   10.0026   -4.1250    0.0000 C   0  0  0  0  0  0  0  0  0  0  0  0
   10.0026   -4.9500    0.0000 C   0  0  0  0  0  0  0  0  0  0  0  0
    9.2881   -5.3625    0.0000 C   0  0  0  0  0  0  0  0  0  0  0  0
    8.5737   -4.9500    0.0000 C   0  0  0  0  0  0  0  0  0  0  0  0
    7.8592   -5.3625    0.0000 C   0  0  0  0  0  0  0  0  0  0  0  0
    7.1447   -5.7750    0.0000 N   0  0  0  0  0  0  0  0  0  0  0  0
  1  2  1  0  0  0  0
  2  3  1  0  0  0  0
  3  4  2  0  0  0  0
  3  5  1  0  0  0  0
  5  6  2  0  0  0  0
  6  7  1  4  0  0  0
  7  8  1  0  0  0  0
  5  9  1  0  0  0  0
  9 10  2  0  0  0  0
 10 11  1  0  0  0  0
 11 12  2  0  0  0  0
 12 13  1  0  0  0  0
 13 14  2  0  0  0  0
  9 14  1  0  0  0  0
 14 15  1  0  0  0  0
 15 16  1  0  0  0  0
 16 17  2  0  0  0  0
 17 18  1  0  0  0  0
 18 19  2  0  0  0  0
 19 20  1  0  0  0  0
 20 21  2  0  0  0  0
 16 21  1  0  0  0  0
 18 22  1  0  0  0  0
 22 23  1  0  0  0  0
 23 24  2  0  0  0  0
 24 25  1  0  0  0  0
 25 26  2  0  0  0  0
 26 27  1  0  0  0  0
 27 28  2  0  0  0  0
 23 28  1  0  0  0  0
 28 29  1  0  0  0  0
 29 30  3  0  0  0  0
M  END
> <ChemID>
10039

> <CAS>
131860-33-8

> <Original_SMILES>
COC(=O)/C(=C/OC)/c1ccccc1Oc1cc([n]c[n]1)Oc1ccccc1C#N

> <preferred_name>
Azoxystrobin

> <dsstox_substance_id>
DTXSID0032520

> <dsstox_compound_id>
DTXCID8012520

> <Canonical_QSARr>
COC(=O)C(=COC)C1=CC=CC=C1OC1=CC(=NC=N1)OC1=CC=CC=C1C#N

> <InChI_Code_QSARr>
InChI=1S/C22H17N3O5/c1-27-13-17(22(26)28-2)16-8-4-6-10-19(16)30-21-11-20(24-14-25-21)29-18-9-5-3-7-15(18)12-23/h3-11,13-14H,1-2H3

> <InChI Key_QSARr>
WFDXOXNFNRHQEC-UHFFFAOYSA-N

> <Salt_Solvent>


> <Salt_Solvent_ID>
0

> <Clint>
1.5104109480101768

> <Tr_1_Tst_0>
1

$$$$
Row448
  Mrv171c012261910192D          

 20 22  0  0  0  0            999 V2000
    0.3579   -5.3543    0.0000 Cl  0  0  0  0  0  0  0  0  0  0  0  0
    0.7704   -4.6399    0.0000 C   0  0  0  0  0  0  0  0  0  0  0  0
    1.5954   -4.6399    0.0000 C   0  0  0  0  0  0  0  0  0  0  0  0
    2.0079   -3.9254    0.0000 C   0  0  0  0  0  0  0  0  0  0  0  0
    1.5954   -3.2109    0.0000 C   0  0  0  0  0  0  0  0  0  0  0  0
    2.0079   -2.4965    0.0000 C   0  0  0  0  0  0  0  0  0  0  0  0
    2.7224   -2.9090    0.0000 C   0  0  0  0  0  0  0  0  0  0  0  0
    3.4369   -2.4965    0.0000 C   0  0  0  0  0  0  0  0  0  0  0  0
    2.7224   -3.7340    0.0000 C   0  0  0  0  0  0  0  0  0  0  0  0
    2.3099   -4.4484    0.0000 C   0  0  0  0  0  0  0  0  0  0  0  0
    3.1349   -4.4484    0.0000 C   0  0  0  0  0  0  0  0  0  0  0  0
    2.4204   -1.7820    0.0000 C   0  0  0  0  0  0  0  0  0  0  0  0
    2.0079   -1.0675    0.0000 N   0  0  0  0  0  0  0  0  0  0  0  0
    2.3435   -0.3138    0.0000 N   0  0  0  0  0  0  0  0  0  0  0  0
    1.7304    0.2382    0.0000 C   0  0  0  0  0  0  0  0  0  0  0  0
    1.0159   -0.1743    0.0000 N   0  0  0  0  0  0  0  0  0  0  0  0
    1.1875   -0.9813    0.0000 C   0  0  0  0  0  0  0  0  0  0  0  0
    1.2935   -2.0840    0.0000 O   0  0  0  0  0  0  0  0  0  0  0  0
    0.7704   -3.2109    0.0000 C   0  0  0  0  0  0  0  0  0  0  0  0
    0.3579   -3.9254    0.0000 C   0  0  0  0  0  0  0  0  0  0  0  0
  1  2  1  0  0  0  0
  3  2  2  0  0  0  0
  4  3  1  0  0  0  0
  5  4  2  0  0  0  0
  5  6  1  0  0  0  0
  6  7  1  0  0  0  0
  7  8  1  0  0  0  0
  7  9  1  0  0  0  0
 10  9  1  0  0  0  0
 11 10  1  0  0  0  0
  9 11  1  0  0  0  0
  6 12  1  0  0  0  0
 12 13  1  0  0  0  0
 14 13  1  0  0  0  0
 15 14  2  0  0  0  0
 16 15  1  0  0  0  0
 17 16  2  0  0  0  0
 13 17  1  0  0  0  0
  6 18  1  0  0  0  0
 19  5  1  0  0  0  0
 20 19  2  0  0  0  0
  2 20  1  0  0  0  0
M  END
> <ChemID>
10040

> <CAS>
94361-06-5

> <Original_SMILES>
CC(C1CC1)C(O)(C[n]1c[n]c[n]1)c1ccc(Cl)cc1

> <preferred_name>
Cyproconazole

> <dsstox_substance_id>
DTXSID0032601

> <dsstox_compound_id>
DTXCID8012601

> <Canonical_QSARr>
CC(C1CC1)C(O)(CN1C=NC=N1)C1C=CC(Cl)=CC=1

> <InChI_Code_QSARr>
InChI=1S/C15H18ClN3O/c1-11(12-2-3-12)15(20,8-19-10-17-9-18-19)13-4-6-14(16)7-5-13/h4-7,9-12,20H,2-3,8H2,1H3

> <InChI Key_QSARr>
UFNOUKDBUJZYDE-UHFFFAOYSA-N

> <Salt_Solvent>


> <Salt_Solvent_ID>
0

> <Clint>
0.18752072083646307

> <Tr_1_Tst_0>
0

$$$$
Row194
  Mrv171c012261910192D          

 22 23  0  0  0  0            999 V2000
    2.6636   -0.9731    0.0000 Cl  0  0  0  0  0  0  0  0  0  0  0  0
    1.9491   -1.3856    0.0000 C   0  0  0  0  0  0  0  0  0  0  0  0
    1.2346   -0.9731    0.0000 C   0  0  0  0  0  0  0  0  0  0  0  0
    0.5201   -1.3856    0.0000 C   0  0  0  0  0  0  0  0  0  0  0  0
   -0.1943   -0.9731    0.0000 Cl  0  0  0  0  0  0  0  0  0  0  0  0
    0.5201   -2.2106    0.0000 C   0  0  0  0  0  0  0  0  0  0  0  0
    1.2346   -2.6231    0.0000 C   0  0  0  0  0  0  0  0  0  0  0  0
    1.9491   -2.2106    0.0000 C   0  0  0  0  0  0  0  0  0  0  0  0
    2.6636   -2.6231    0.0000 O   0  0  0  0  0  0  0  0  0  0  0  0
    3.3780   -2.2106    0.0000 C   0  0  0  0  0  0  0  0  0  0  0  0
    4.0925   -2.6231    0.0000 C   0  0  0  0  0  0  0  0  0  0  0  0
    4.8070   -2.2106    0.0000 C   0  0  0  0  0  0  0  0  0  0  0  0
    4.8070   -1.3856    0.0000 C   0  0  0  0  0  0  0  0  0  0  0  0
    5.5214   -0.9731    0.0000 O   0  0  0  0  0  0  0  0  0  0  0  0
    6.2359   -1.3856    0.0000 C   0  0  0  0  0  0  0  0  0  0  0  0
    6.2359   -2.2106    0.0000 C   0  0  0  0  0  0  0  0  0  0  0  0
    6.9504   -0.9731    0.0000 C   0  0  0  0  0  0  0  0  0  0  0  0
    7.6648   -1.3856    0.0000 O   0  0  0  0  0  0  0  0  0  0  0  0
    8.3793   -0.9731    0.0000 C   0  0  0  0  0  0  0  0  0  0  0  0
    6.9504   -0.1481    0.0000 O   0  0  0  0  0  0  0  0  0  0  0  0
    4.0925   -0.9731    0.0000 C   0  0  0  0  0  0  0  0  0  0  0  0
    3.3780   -1.3856    0.0000 C   0  0  0  0  0  0  0  0  0  0  0  0
  1  2  1  0  0  0  0
  3  2  2  0  0  0  0
  4  3  1  0  0  0  0
  4  5  1  0  0  0  0
  6  4  2  0  0  0  0
  7  6  1  0  0  0  0
  8  7  2  0  0  0  0
  2  8  1  0  0  0  0
  8  9  1  0  0  0  0
  9 10  1  0  0  0  0
 11 10  2  0  0  0  0
 12 11  1  0  0  0  0
 13 12  2  0  0  0  0
 13 14  1  0  0  0  0
 14 15  1  0  0  0  0
 15 16  1  0  0  0  0
 15 17  1  0  0  0  0
 17 18  1  0  0  0  0
 18 19  1  0  0  0  0
 17 20  2  0  0  0  0
 21 13  1  0  0  0  0
 22 21  2  0  0  0  0
 10 22  1  0  0  0  0
M  END
> <ChemID>
10041

> <CAS>
51338-27-3

> <Original_SMILES>
COC(=O)C(C)Oc1ccc(cc1)Oc1ccc(Cl)cc1Cl

> <preferred_name>
Methyl (RS)-2-[4-(2,4-dichlorophenoxy)phenoxy]propionate

> <dsstox_substance_id>
DTXSID0032605

> <dsstox_compound_id>
DTXCID8012605

> <Canonical_QSARr>
COC(=O)C(C)OC1C=CC(=CC=1)OC1=CC=C(Cl)C=C1Cl

> <InChI_Code_QSARr>
InChI=1S/C16H14Cl2O4/c1-10(16(19)20-2)21-12-4-6-13(7-5-12)22-15-8-3-11(17)9-14(15)18/h3-10H,1-2H3

> <InChI Key_QSARr>
BACHBFVBHLGWSL-UHFFFAOYSA-N

> <Salt_Solvent>


> <Salt_Solvent_ID>
0

> <Clint>
0.8095597146352677

> <Tr_1_Tst_0>
1

$$$$
Row469
  Mrv171c012261910192D          

 15 16  0  0  0  0            999 V2000
    2.0776   -3.2627    0.0000 S   0  0  0  0  0  0  0  0  0  0  0  0
    1.4102   -2.7778    0.0000 C   0  0  0  0  0  0  0  0  0  0  0  0
    1.4102   -1.9528    0.0000 N   0  0  0  0  0  0  0  0  0  0  0  0
    2.1246   -1.5403    0.0000 C   0  0  0  0  0  0  0  0  0  0  0  0
    2.1246   -0.7153    0.0000 N   0  0  0  0  0  0  0  0  0  0  0  0
    2.8391   -0.3028    0.0000 C   0  0  0  0  0  0  0  0  0  0  0  0
    3.5536   -0.7153    0.0000 C   0  0  0  0  0  0  0  0  0  0  0  0
    4.2680   -0.3028    0.0000 C   0  0  0  0  0  0  0  0  0  0  0  0
    4.2680    0.5222    0.0000 C   0  0  0  0  0  0  0  0  0  0  0  0
    3.5536    0.9347    0.0000 C   0  0  0  0  0  0  0  0  0  0  0  0
    2.8391    0.5222    0.0000 C   0  0  0  0  0  0  0  0  0  0  0  0
    2.8391   -1.9528    0.0000 O   0  0  0  0  0  0  0  0  0  0  0  0
    0.7427   -3.2627    0.0000 C   0  0  0  0  0  0  0  0  0  0  0  0
    0.9977   -4.0474    0.0000 N   0  0  0  0  0  0  0  0  0  0  0  0
    1.8227   -4.0474    0.0000 N   0  0  0  0  0  0  0  0  0  0  0  0
  2  1  1  0  0  0  0
  2  3  1  0  0  0  0
  3  4  1  0  0  0  0
  4  5  1  0  0  0  0
  5  6  1  0  0  0  0
  7  6  1  0  0  0  0
  8  7  2  0  0  0  0
  9  8  1  0  0  0  0
 10  9  2  0  0  0  0
 11 10  1  0  0  0  0
  6 11  2  0  0  0  0
  4 12  2  0  0  0  0
 13  2  2  0  0  0  0
 14 13  1  0  0  0  0
 15 14  2  0  0  0  0
  1 15  1  0  0  0  0
M  END
> <ChemID>
10042

> <CAS>
51707-55-2

> <Original_SMILES>
O=C(Nc1ccccc1)Nc1c[n][n][s]1

> <preferred_name>
Thidiazuron

> <dsstox_substance_id>
DTXSID0032651

> <dsstox_compound_id>
DTXCID8012651

> <Canonical_QSARr>
O=C(NC1=CN=NS1)NC1C=CC=CC=1

> <InChI_Code_QSARr>
InChI=1S/C9H8N4OS/c14-9(12-8-6-10-13-15-8)11-7-4-2-1-3-5-7/h1-6H,(H2,11,12,14)

> <InChI Key_QSARr>
HFCYZXMHUIHAQI-UHFFFAOYSA-N

> <Salt_Solvent>


> <Salt_Solvent_ID>
0

> <Clint>
0.6919651027673602

> <Tr_1_Tst_0>
0

$$$$
Row189
  Mrv171c012261910192D          

 22 24  0  0  0  0            999 V2000
    2.5887   -0.6860    0.0000 C   0  0  0  0  0  0  0  0  0  0  0  0
    2.0367   -1.2991    0.0000 C   0  0  0  0  0  0  0  0  0  0  0  0
    1.4847   -0.6860    0.0000 C   0  0  0  0  0  0  0  0  0  0  0  0
    2.7041   -1.7840    0.0000 C   0  0  0  0  0  0  0  0  0  0  0  0
    2.4492   -2.5687    0.0000 C   0  0  0  0  0  0  0  0  0  0  0  0
    1.6242   -2.5687    0.0000 C   0  0  0  0  0  0  0  0  0  0  0  0
    1.1393   -3.2361    0.0000 C   0  0  0  0  0  0  0  0  0  0  0  0
    0.3188   -3.1499    0.0000 C   0  0  0  0  0  0  0  0  0  0  0  0
   -0.1661   -3.8173    0.0000 C   0  0  0  0  0  0  0  0  0  0  0  0
   -0.9866   -3.7311    0.0000 C   0  0  0  0  0  0  0  0  0  0  0  0
   -1.3222   -2.9774    0.0000 C   0  0  0  0  0  0  0  0  0  0  0  0
   -2.1426   -2.8911    0.0000 Cl  0  0  0  0  0  0  0  0  0  0  0  0
   -0.8372   -2.3099    0.0000 C   0  0  0  0  0  0  0  0  0  0  0  0
   -0.0168   -2.3962    0.0000 C   0  0  0  0  0  0  0  0  0  0  0  0
    1.3693   -1.7840    0.0000 C   0  0  0  0  0  0  0  0  0  0  0  0
    0.5605   -1.9471    0.0000 O   0  0  0  0  0  0  0  0  0  0  0  0
    0.8108   -1.1767    0.0000 C   0  0  0  0  0  0  0  0  0  0  0  0
    1.0576   -0.3895    0.0000 N   0  0  0  0  0  0  0  0  0  0  0  0
    0.5657    0.2728    0.0000 C   0  0  0  0  0  0  0  0  0  0  0  0
    1.0436    0.9453    0.0000 N   0  0  0  0  0  0  0  0  0  0  0  0
    1.8308    0.6986    0.0000 C   0  0  0  0  0  0  0  0  0  0  0  0
    1.8395   -0.1264    0.0000 N   0  0  0  0  0  0  0  0  0  0  0  0
  1  2  1  0  0  0  0
  2  3  1  0  0  0  0
  2  4  1  0  0  0  0
  4  5  1  0  0  0  0
  5  6  1  0  0  0  0
  6  7  2  0  0  0  0
  7  8  1  4  0  0  0
  8  9  1  0  0  0  0
  9 10  2  0  0  0  0
 10 11  1  0  0  0  0
 11 12  1  0  0  0  0
 11 13  2  0  0  0  0
 13 14  1  0  0  0  0
  8 14  2  0  0  0  0
  6 15  1  0  0  0  0
  2 15  1  0  0  0  0
 15 16  1  0  0  0  0
 15 17  1  0  0  0  0
 17 18  1  0  0  0  0
 18 19  1  0  0  0  0
 19 20  2  0  0  0  0
 20 21  1  0  0  0  0
 21 22  2  0  0  0  0
 18 22  1  0  0  0  0
M  END
> <ChemID>
10043

> <CAS>
131983-72-7

> <Original_SMILES>
CC1(C)CCC(=Cc2ccc(Cl)cc2)C1(O)C[n]1c[n]c[n]1

> <preferred_name>
Triticonazole

> <dsstox_substance_id>
DTXSID0032655

> <dsstox_compound_id>
DTXCID8012655

> <Canonical_QSARr>
CC1(C)CCC(=CC2C=CC(Cl)=CC=2)C1(O)CN1C=NC=N1

> <InChI_Code_QSARr>
InChI=1S/C17H20ClN3O/c1-16(2)8-7-14(9-13-3-5-15(18)6-4-13)17(16,22)10-21-12-19-11-20-21/h3-6,9,11-12,22H,7-8,10H2,1-2H3

> <InChI Key_QSARr>
PPDBOQMNKNNODG-UHFFFAOYSA-N

> <Salt_Solvent>


> <Salt_Solvent_ID>
0

> <Clint>
0.7867514221455612

> <Tr_1_Tst_0>
1

$$$$
Row277
  Mrv171c012261910192D          

 23 24  0  0  0  0            999 V2000
    4.7694    0.6164    0.0000 N   0  0  0  0  0  0  0  0  0  0  0  0
    4.1019    1.1014    0.0000 C   0  0  0  0  0  0  0  0  0  0  0  0
    4.1019    1.9264    0.0000 C   0  0  0  0  0  0  0  0  0  0  0  0
    4.8164    2.3389    0.0000 C   0  0  0  0  0  0  0  0  0  0  0  0
    3.4345    0.6164    0.0000 C   0  0  0  0  0  0  0  0  0  0  0  0
    2.6499    0.8714    0.0000 Cl  0  0  0  0  0  0  0  0  0  0  0  0
    3.6894   -0.1682    0.0000 C   0  0  0  0  0  0  0  0  0  0  0  0
    3.2045   -0.8356    0.0000 C   0  0  0  0  0  0  0  0  0  0  0  0
    3.5401   -1.5893    0.0000 N   0  0  0  0  0  0  0  0  0  0  0  0
    3.0551   -2.2567    0.0000 C   0  0  0  0  0  0  0  0  0  0  0  0
    3.3907   -3.0104    0.0000 C   0  0  0  0  0  0  0  0  0  0  0  0
    2.9058   -3.6778    0.0000 C   0  0  0  0  0  0  0  0  0  0  0  0
    3.2413   -4.4315    0.0000 C   0  0  0  0  0  0  0  0  0  0  0  0
    4.0618   -4.5178    0.0000 C   0  0  0  0  0  0  0  0  0  0  0  0
    4.3974   -5.2714    0.0000 C   0  0  0  0  0  0  0  0  0  0  0  0
    4.7329   -6.0251    0.0000 C   0  0  0  0  0  0  0  0  0  0  0  0
    3.6437   -5.6070    0.0000 C   0  0  0  0  0  0  0  0  0  0  0  0
    5.1510   -4.9359    0.0000 C   0  0  0  0  0  0  0  0  0  0  0  0
    4.5467   -3.8503    0.0000 C   0  0  0  0  0  0  0  0  0  0  0  0
    4.2112   -3.0966    0.0000 C   0  0  0  0  0  0  0  0  0  0  0  0
    2.3840   -0.7494    0.0000 O   0  0  0  0  0  0  0  0  0  0  0  0
    4.5144   -0.1682    0.0000 N   0  0  0  0  0  0  0  0  0  0  0  0
    4.9994   -0.8356    0.0000 C   0  0  0  0  0  0  0  0  0  0  0  0
  2  1  2  0  0  0  0
  2  3  1  0  0  0  0
  3  4  1  0  0  0  0
  5  2  1  0  0  0  0
  5  6  1  0  0  0  0
  7  5  2  0  0  0  0
  7  8  1  0  0  0  0
  8  9  1  0  0  0  0
  9 10  1  0  0  0  0
 10 11  1  0  0  0  0
 12 11  1  0  0  0  0
 13 12  2  0  0  0  0
 14 13  1  0  0  0  0
 14 15  1  0  0  0  0
 15 16  1  0  0  0  0
 15 17  1  0  0  0  0
 15 18  1  0  0  0  0
 19 14  2  0  0  0  0
 20 19  1  0  0  0  0
 11 20  2  0  0  0  0
  8 21  2  0  0  0  0
 22  7  1  0  0  0  0
  1 22  1  0  0  0  0
 22 23  1  0  0  0  0
M  END
> <ChemID>
10044

> <CAS>
119168-77-3

> <Original_SMILES>
CCc1[n][n](C)c(C(=O)NCc2ccc(cc2)C(C)(C)C)c1Cl

> <preferred_name>
Tebufenpyrad

> <dsstox_substance_id>
DTXSID0034223

> <dsstox_compound_id>
DTXCID8014223

> <Canonical_QSARr>
CCC1=NN(C)C(C(=O)NCC2C=CC(=CC=2)C(C)(C)C)=C1Cl

> <InChI_Code_QSARr>
InChI=1S/C18H24ClN3O/c1-6-14-15(19)16(22(5)21-14)17(23)20-11-12-7-9-13(10-8-12)18(2,3)4/h7-10H,6,11H2,1-5H3,(H,20,23)

> <InChI Key_QSARr>
ZZYSLNWGKKDOML-UHFFFAOYSA-N

> <Salt_Solvent>


> <Salt_Solvent_ID>
0

> <Clint>
1.2024883170600933

> <Tr_1_Tst_0>
1

$$$$
Row251
  Mrv171c012261910192D          

 16 16  0  0  0  0            999 V2000
    1.8468   -1.4647    0.0000 N   0  0  0  0  0  0  0  0  0  0  0  0
    2.5613   -1.8772    0.0000 C   0  0  0  0  0  0  0  0  0  0  0  0
    3.2757   -1.4647    0.0000 O   0  0  0  0  0  0  0  0  0  0  0  0
    3.9902   -1.8772    0.0000 C   0  0  0  0  0  0  0  0  0  0  0  0
    3.9902   -2.7022    0.0000 C   0  0  0  0  0  0  0  0  0  0  0  0
    4.7047   -1.4647    0.0000 C   0  0  0  0  0  0  0  0  0  0  0  0
    5.4191   -1.8772    0.0000 C   0  0  0  0  0  0  0  0  0  0  0  0
    2.5613   -2.7022    0.0000 O   0  0  0  0  0  0  0  0  0  0  0  0
    1.8468   -0.6397    0.0000 C   0  0  0  0  0  0  0  0  0  0  0  0
    1.1323   -0.2272    0.0000 C   0  0  0  0  0  0  0  0  0  0  0  0
    0.4178   -0.6397    0.0000 C   0  0  0  0  0  0  0  0  0  0  0  0
    0.4178   -1.4647    0.0000 C   0  0  0  0  0  0  0  0  0  0  0  0
    1.1323   -1.8772    0.0000 C   0  0  0  0  0  0  0  0  0  0  0  0
    1.1323   -2.7022    0.0000 C   0  0  0  0  0  0  0  0  0  0  0  0
    0.4178   -3.1147    0.0000 C   0  0  0  0  0  0  0  0  0  0  0  0
    0.4178   -3.9397    0.0000 O   0  0  0  0  0  0  0  0  0  0  0  0
  1  2  1  0  0  0  0
  2  3  1  0  0  0  0
  3  4  1  0  0  0  0
  4  5  1  0  0  0  0
  4  6  1  0  0  0  0
  6  7  1  0  0  0  0
  2  8  2  0  0  0  0
  9  1  1  0  0  0  0
 10  9  1  0  0  0  0
 11 10  1  0  0  0  0
 12 11  1  0  0  0  0
 13 12  1  0  0  0  0
  1 13  1  0  0  0  0
 13 14  1  0  0  0  0
 14 15  1  0  0  0  0
 15 16  1  0  0  0  0
M  END
> <ChemID>
10045

> <CAS>
119515-38-7

> <Original_SMILES>
CC(CC)OC(=O)N1CCCCC1CCO

> <preferred_name>
Icaridin

> <dsstox_substance_id>
DTXSID0034227

> <dsstox_compound_id>
DTXCID8014227

> <Canonical_QSARr>
CC(CC)OC(=O)N1CCCCC1CCO

> <InChI_Code_QSARr>
InChI=1S/C12H23NO3/c1-3-10(2)16-12(15)13-8-5-4-6-11(13)7-9-14/h10-11,14H,3-9H2,1-2H3

> <InChI Key_QSARr>
QLHULAHOXSSASE-UHFFFAOYSA-N

> <Salt_Solvent>


> <Salt_Solvent_ID>
0

> <Clint>
1.098989639401177

> <Tr_1_Tst_0>
1

$$$$
Row3
  Mrv171c012261910192D          

 15 15  0  0  0  0            999 V2000
   -0.7145    3.7125    0.0000 C   0  0  0  0  0  0  0  0  0  0  0  0
    0.0000    3.3000    0.0000 C   0  0  0  0  0  0  0  0  0  0  0  0
    0.7145    3.7125    0.0000 N   0  0  0  0  0  0  0  0  0  0  0  0
    0.7145    4.5375    0.0000 C   0  0  0  0  0  0  0  0  0  0  0  0
    0.7145    5.3625    0.0000 N   0  0  0  0  0  0  0  0  0  0  0  0
    0.0000    2.4750    0.0000 N   0  0  0  0  0  0  0  0  0  0  0  0
   -0.7145    2.0625    0.0000 C   0  0  0  0  0  0  0  0  0  0  0  0
    0.7145    2.0625    0.0000 C   0  0  0  0  0  0  0  0  0  0  0  0
    0.7145    1.2375    0.0000 C   0  0  0  0  0  0  0  0  0  0  0  0
    1.4289    0.8250    0.0000 C   0  0  0  0  0  0  0  0  0  0  0  0
    1.4289   -0.0000    0.0000 N   0  0  0  0  0  0  0  0  0  0  0  0
    0.7145   -0.4125    0.0000 C   0  0  0  0  0  0  0  0  0  0  0  0
    0.7145   -1.2375    0.0000 Cl  0  0  0  0  0  0  0  0  0  0  0  0
    0.0000    0.0000    0.0000 C   0  0  0  0  0  0  0  0  0  0  0  0
    0.0000    0.8250    0.0000 C   0  0  0  0  0  0  0  0  0  0  0  0
  1  2  1  0  0  0  0
  2  3  2  0  0  0  0
  3  4  1  4  0  0  0
  4  5  3  0  0  0  0
  2  6  1  0  0  0  0
  6  7  1  0  0  0  0
  6  8  1  0  0  0  0
  8  9  1  0  0  0  0
  9 10  2  0  0  0  0
 10 11  1  0  0  0  0
 11 12  2  0  0  0  0
 12 13  1  0  0  0  0
 12 14  1  0  0  0  0
 14 15  2  0  0  0  0
  9 15  1  0  0  0  0
M  END
> <ChemID>
10046

> <CAS>
135410-20-7

> <Original_SMILES>
C/C(=N\C#N)/N(C)Cc1c[n]c(Cl)cc1

> <preferred_name>
Acetamiprid

> <dsstox_substance_id>
DTXSID0034300

> <dsstox_compound_id>
DTXCID7032422

> <Canonical_QSARr>
CC(=NC#N)N(C)CC1=CN=C(Cl)C=C1

> <InChI_Code_QSARr>
InChI=1S/C10H11ClN4/c1-8(14-7-12)15(2)6-9-3-4-10(11)13-5-9/h3-5H,6H2,1-2H3

> <InChI Key_QSARr>
WCXDHFDTOYPNIE-UHFFFAOYSA-N

> <Salt_Solvent>


> <Salt_Solvent_ID>
0

> <Clint>
-7.0

> <Tr_1_Tst_0>
1

$$$$
Row16
  Mrv171c012261910192D          

 32 34  0  0  0  0            999 V2000
    1.4811   -3.4858    0.0000 C   0  0  0  0  0  0  0  0  0  0  0  0
    1.0686   -2.7713    0.0000 O   0  0  0  0  0  0  0  0  0  0  0  0
    0.2436   -2.7713    0.0000 C   0  0  0  0  0  0  0  0  0  0  0  0
   -0.1689   -2.0569    0.0000 C   0  0  0  0  0  0  0  0  0  0  0  0
   -0.9939   -2.0569    0.0000 F   0  0  0  0  0  0  0  0  0  0  0  0
    0.2436   -1.3424    0.0000 F   0  0  0  0  0  0  0  0  0  0  0  0
    1.0686   -4.2003    0.0000 C   0  0  0  0  0  0  0  0  0  0  0  0
    1.4811   -4.9147    0.0000 C   0  0  0  0  0  0  0  0  0  0  0  0
    2.3061   -4.9147    0.0000 C   0  0  0  0  0  0  0  0  0  0  0  0
    2.7186   -4.2003    0.0000 C   0  0  0  0  0  0  0  0  0  0  0  0
    3.5436   -4.2003    0.0000 C   0  0  0  0  0  0  0  0  0  0  0  0
    4.3686   -4.2003    0.0000 F   0  0  0  0  0  0  0  0  0  0  0  0
    3.5436   -3.3753    0.0000 F   0  0  0  0  0  0  0  0  0  0  0  0
    3.5436   -5.0253    0.0000 F   0  0  0  0  0  0  0  0  0  0  0  0
    2.3061   -3.4858    0.0000 C   0  0  0  0  0  0  0  0  0  0  0  0
    2.7186   -2.7713    0.0000 S   0  0  0  0  0  0  0  0  0  0  0  0
    3.1311   -2.0569    0.0000 N   0  0  0  0  0  0  0  0  0  0  0  0
    3.9561   -2.0569    0.0000 C   0  0  0  0  0  0  0  0  0  0  0  0
    4.4410   -1.3894    0.0000 N   0  0  0  0  0  0  0  0  0  0  0  0
    5.2256   -1.6444    0.0000 C   0  0  0  0  0  0  0  0  0  0  0  0
    5.9401   -1.2319    0.0000 C   0  0  0  0  0  0  0  0  0  0  0  0
    5.9401   -0.4069    0.0000 O   0  0  0  0  0  0  0  0  0  0  0  0
    6.6546    0.0056    0.0000 C   0  0  0  0  0  0  0  0  0  0  0  0
    6.6546   -1.6444    0.0000 C   0  0  0  0  0  0  0  0  0  0  0  0
    6.6546   -2.4694    0.0000 N   0  0  0  0  0  0  0  0  0  0  0  0
    5.9401   -2.8819    0.0000 C   0  0  0  0  0  0  0  0  0  0  0  0
    5.9401   -3.7069    0.0000 O   0  0  0  0  0  0  0  0  0  0  0  0
    6.6546   -4.1194    0.0000 C   0  0  0  0  0  0  0  0  0  0  0  0
    5.2256   -2.4694    0.0000 N   0  0  0  0  0  0  0  0  0  0  0  0
    4.4410   -2.7243    0.0000 N   0  0  0  0  0  0  0  0  0  0  0  0
    3.5255   -2.9428    0.0000 O   0  0  0  0  0  0  0  0  0  0  0  0
    2.0041   -2.3588    0.0000 O   0  0  0  0  0  0  0  0  0  0  0  0
  1  2  1  0  0  0  0
  2  3  1  0  0  0  0
  3  4  1  0  0  0  0
  4  5  1  0  0  0  0
  4  6  1  0  0  0  0
  7  1  2  0  0  0  0
  8  7  1  0  0  0  0
  9  8  2  0  0  0  0
 10  9  1  0  0  0  0
 10 11  1  0  0  0  0
 11 12  1  0  0  0  0
 11 13  1  0  0  0  0
 11 14  1  0  0  0  0
 15 10  2  0  0  0  0
  1 15  1  0  0  0  0
 15 16  1  0  0  0  0
 16 17  1  0  0  0  0
 17 18  1  0  0  0  0
 19 18  1  0  0  0  0
 20 19  2  0  0  0  0
 20 21  1  0  0  0  0
 21 22  1  0  0  0  0
 22 23  1  0  0  0  0
 21 24  2  0  0  0  0
 24 25  1  0  0  0  0
 25 26  2  0  0  0  0
 26 27  1  0  0  0  0
 27 28  1  0  0  0  0
 26 29  1  0  0  0  0
 29 20  1  0  0  0  0
 30 29  1  0  0  0  0
 18 30  2  0  0  0  0
 16 31  2  0  0  0  0
 16 32  2  0  0  0  0
M  END
> <ChemID>
10047

> <CAS>
219714-96-2

> <Original_SMILES>
COc1[n]cc(OC)c2[n]c(NS(=O)(=O)c3c(cccc3C(F)(F)F)OCC(F)F)[n][n]21

> <preferred_name>
Penoxsulam

> <dsstox_substance_id>
DTXSID0034803

> <dsstox_compound_id>
DTXCID8014803

> <Canonical_QSARr>
COC1=NC=C(OC)C2=NC(NS(=O)(=O)C3C(=CC=CC=3C(F)(F)F)OCC(F)F)=NN21

> <InChI_Code_QSARr>
InChI=1S/C16H14F5N5O5S/c1-29-10-6-22-15(30-2)26-13(10)23-14(24-26)25-32(27,28)12-8(16(19,20)21)4-3-5-9(12)31-7-11(17)18/h3-6,11H,7H2,1-2H3,(H,24,25)

> <InChI Key_QSARr>
SYJGKVOENHZYMQ-UHFFFAOYSA-N

> <Salt_Solvent>


> <Salt_Solvent_ID>
0

> <Clint>
-7.0

> <Tr_1_Tst_0>
1

$$$$
Row548
  Mrv171c012261910192D          

 27 28  0  0  0  0            999 V2000
    2.1553   -1.8134    0.0000 C   0  0  0  0  0  0  0  0  0  0  0  0
    2.1553   -2.6384    0.0000 O   0  0  0  0  0  0  0  0  0  0  0  0
    1.4408   -1.4009    0.0000 O   0  0  0  0  0  0  0  0  0  0  0  0
    0.7264   -1.8134    0.0000 C   0  0  0  0  0  0  0  0  0  0  0  0
    0.0119   -1.4009    0.0000 C   0  0  0  0  0  0  0  0  0  0  0  0
   -0.7026   -1.8134    0.0000 C   0  0  0  0  0  0  0  0  0  0  0  0
   -1.4170   -1.4009    0.0000 C   0  0  0  0  0  0  0  0  0  0  0  0
    2.8698   -1.4009    0.0000 C   0  0  0  0  0  0  0  0  0  0  0  0
    3.5843   -1.8134    0.0000 O   0  0  0  0  0  0  0  0  0  0  0  0
    4.2987   -1.4009    0.0000 C   0  0  0  0  0  0  0  0  0  0  0  0
    5.0132   -1.8134    0.0000 C   0  0  0  0  0  0  0  0  0  0  0  0
    5.7277   -1.4009    0.0000 C   0  0  0  0  0  0  0  0  0  0  0  0
    5.7277   -0.5759    0.0000 C   0  0  0  0  0  0  0  0  0  0  0  0
    6.4421   -0.1634    0.0000 O   0  0  0  0  0  0  0  0  0  0  0  0
    7.1566   -0.5759    0.0000 C   0  0  0  0  0  0  0  0  0  0  0  0
    7.1566   -1.4009    0.0000 C   0  0  0  0  0  0  0  0  0  0  0  0
    7.8711   -1.8134    0.0000 C   0  0  0  0  0  0  0  0  0  0  0  0
    8.5856   -1.4009    0.0000 C   0  0  0  0  0  0  0  0  0  0  0  0
    9.3000   -1.8134    0.0000 C   0  0  0  0  0  0  0  0  0  0  0  0
   10.0145   -2.2259    0.0000 F   0  0  0  0  0  0  0  0  0  0  0  0
    8.8875   -2.5278    0.0000 F   0  0  0  0  0  0  0  0  0  0  0  0
    9.7125   -1.0989    0.0000 F   0  0  0  0  0  0  0  0  0  0  0  0
    8.5856   -0.5759    0.0000 C   0  0  0  0  0  0  0  0  0  0  0  0
    7.8711   -0.1634    0.0000 N   0  0  0  0  0  0  0  0  0  0  0  0
    5.0132   -0.1634    0.0000 C   0  0  0  0  0  0  0  0  0  0  0  0
    4.2987   -0.5759    0.0000 C   0  0  0  0  0  0  0  0  0  0  0  0
    2.8698   -0.5759    0.0000 C   0  0  0  0  0  0  0  0  0  0  0  0
  1  2  2  0  0  0  0
  1  3  1  0  0  0  0
  3  4  1  0  0  0  0
  4  5  1  0  0  0  0
  5  6  1  0  0  0  0
  6  7  1  0  0  0  0
  1  8  1  0  0  0  0
  8  9  1  0  0  0  0
  9 10  1  0  0  0  0
 11 10  1  0  0  0  0
 12 11  2  0  0  0  0
 13 12  1  0  0  0  0
 13 14  1  0  0  0  0
 14 15  1  0  0  0  0
 16 15  2  0  0  0  0
 17 16  1  0  0  0  0
 18 17  2  0  0  0  0
 18 19  1  0  0  0  0
 19 20  1  0  0  0  0
 19 21  1  0  0  0  0
 19 22  1  0  0  0  0
 23 18  1  0  0  0  0
 24 23  2  0  0  0  0
 15 24  1  0  0  0  0
 25 13  2  0  0  0  0
 26 25  1  0  0  0  0
 10 26  2  0  0  0  0
  8 27  1  0  0  0  0
M  END
> <ChemID>
10048

> <CAS>
79241-46-6

> <Original_SMILES>
CCCCOC(=O)[C@@H](C)Oc1ccc(cc1)Oc1ccc(c[n]1)C(F)(F)F

> <preferred_name>
Fluazifop-P-butyl

> <dsstox_substance_id>
DTXSID0034855

> <dsstox_compound_id>
DTXCID8014855

> <Canonical_QSARr>
CCCCOC(=O)C(C)OC1C=CC(=CC=1)OC1=CC=C(C=N1)C(F)(F)F

> <InChI_Code_QSARr>
InChI=1S/C19H20F3NO4/c1-3-4-11-25-18(24)13(2)26-15-6-8-16(9-7-15)27-17-10-5-14(12-23-17)19(20,21)22/h5-10,12-13H,3-4,11H2,1-2H3

> <InChI Key_QSARr>
VAIZTNZGPYBOGF-UHFFFAOYSA-N

> <Salt_Solvent>


> <Salt_Solvent_ID>
0

> <Clint>
2.3699946616084278

> <Tr_1_Tst_0>
0

$$$$
Row10
  Mrv171c012261910192D          

 16 16  0  0  0  0            999 V2000
    2.0983   -1.6020    0.0000 P   0  0  0  0  0  0  0  0  0  0  0  0
    2.8829   -1.8569    0.0000 N   0  0  0  0  0  0  0  0  0  0  0  0
    3.1379   -2.6415    0.0000 C   0  0  0  0  0  0  0  0  0  0  0  0
    3.9629   -2.6415    0.0000 C   0  0  0  0  0  0  0  0  0  0  0  0
    4.2178   -1.8569    0.0000 S   0  0  0  0  0  0  0  0  0  0  0  0
    3.5504   -1.3720    0.0000 C   0  0  0  0  0  0  0  0  0  0  0  0
    3.5504   -0.5470    0.0000 O   0  0  0  0  0  0  0  0  0  0  0  0
    1.3137   -1.3470    0.0000 S   0  0  0  0  0  0  0  0  0  0  0  0
    0.7006   -1.8991    0.0000 C   0  0  0  0  0  0  0  0  0  0  0  0
    0.8721   -2.7060    0.0000 C   0  0  0  0  0  0  0  0  0  0  0  0
   -0.0840   -1.6441    0.0000 C   0  0  0  0  0  0  0  0  0  0  0  0
   -0.6971   -2.1961    0.0000 C   0  0  0  0  0  0  0  0  0  0  0  0
    2.3532   -0.8173    0.0000 O   0  0  0  0  0  0  0  0  0  0  0  0
    1.8012   -0.2042    0.0000 C   0  0  0  0  0  0  0  0  0  0  0  0
    2.0562    0.5804    0.0000 C   0  0  0  0  0  0  0  0  0  0  0  0
    1.8434   -2.3866    0.0000 O   0  0  0  0  0  0  0  0  0  0  0  0
  1  2  1  0  0  0  0
  3  2  1  0  0  0  0
  4  3  1  0  0  0  0
  5  4  1  0  0  0  0
  6  5  1  0  0  0  0
  2  6  1  0  0  0  0
  6  7  2  0  0  0  0
  1  8  1  0  0  0  0
  8  9  1  0  0  0  0
  9 10  1  0  0  0  0
  9 11  1  0  0  0  0
 11 12  1  0  0  0  0
  1 13  1  0  0  0  0
 13 14  1  0  0  0  0
 14 15  1  0  0  0  0
  1 16  2  0  0  0  0
M  END
> <ChemID>
10049

> <CAS>
98886-44-3

> <Original_SMILES>
CC(CC)SP(=O)(OCC)N1CCSC1=O

> <preferred_name>
Fosthiazate

> <dsstox_substance_id>
DTXSID0034930

> <dsstox_compound_id>
DTXCID8014930

> <Canonical_QSARr>
CC(CC)SP(=O)(OCC)N1CCSC1=O

> <InChI_Code_QSARr>
InChI=1S/C9H18NO3PS2/c1-4-8(3)16-14(12,13-5-2)10-6-7-15-9(10)11/h8H,4-7H2,1-3H3

> <InChI Key_QSARr>
DUFVKSUJRWYZQP-UHFFFAOYSA-N

> <Salt_Solvent>


> <Salt_Solvent_ID>
0

> <Clint>
-7.0

> <Tr_1_Tst_0>
1

$$$$
Row2
  Mrv171c012261910192D          

 11 11  0  0  0  0            999 V2000
    4.2246   -3.4870    0.0000 C   0  0  0  0  0  0  0  0  0  0  0  0
    3.5102   -3.0745    0.0000 C   0  0  0  0  0  0  0  0  0  0  0  0
    3.5102   -2.2495    0.0000 N   0  0  0  0  0  0  0  0  0  0  0  0
    2.7957   -1.8370    0.0000 C   0  0  0  0  0  0  0  0  0  0  0  0
    2.7957   -1.0120    0.0000 N   0  0  0  0  0  0  0  0  0  0  0  0
    2.0812   -0.5995    0.0000 C   0  0  0  0  0  0  0  0  0  0  0  0
    2.0812    0.2255    0.0000 Cl  0  0  0  0  0  0  0  0  0  0  0  0
    1.3668   -1.0120    0.0000 N   0  0  0  0  0  0  0  0  0  0  0  0
    1.3668   -1.8370    0.0000 C   0  0  0  0  0  0  0  0  0  0  0  0
    0.6523   -2.2495    0.0000 N   0  0  0  0  0  0  0  0  0  0  0  0
    2.0812   -2.2495    0.0000 N   0  0  0  0  0  0  0  0  0  0  0  0
  1  2  1  0  0  0  0
  2  3  1  0  0  0  0
  3  4  1  0  0  0  0
  5  4  1  0  0  0  0
  6  5  2  0  0  0  0
  6  7  1  0  0  0  0
  8  6  1  0  0  0  0
  9  8  2  0  0  0  0
  9 10  1  0  0  0  0
 11  9  1  0  0  0  0
  4 11  2  0  0  0  0
M  END
> <ChemID>
10050

> <CAS>
1007-28-9

> <Original_SMILES>
CCNc1[n]c(N)[n]c(Cl)[n]1

> <preferred_name>
Deisopropylatrazine

> <dsstox_substance_id>
DTXSID0037495

> <dsstox_compound_id>
DTXCID8017495

> <Canonical_QSARr>
CCNC1N=C(Cl)N=C(N)N=1

> <InChI_Code_QSARr>
InChI=1S/C5H8ClN5/c1-2-8-5-10-3(6)9-4(7)11-5/h2H2,1H3,(H3,7,8,9,10,11)

> <InChI Key_QSARr>
IVENSCMCQBJAKW-UHFFFAOYSA-N

> <Salt_Solvent>


> <Salt_Solvent_ID>
0

> <Clint>
-7.0

> <Tr_1_Tst_0>
1

$$$$
Row91
  Mrv171c012261910192D          

 12 11  0  0  0  0            999 V2000
    2.3629    0.6232    0.0000 C   0  0  0  0  0  0  0  0  0  0  0  0
    3.0774    0.2107    0.0000 C   0  0  0  0  0  0  0  0  0  0  0  0
    3.7919   -0.2018    0.0000 C   0  0  0  0  0  0  0  0  0  0  0  0
    3.4899    0.9251    0.0000 S   0  0  0  0  0  0  0  0  0  0  0  0
    4.3149    0.9251    0.0000 C   0  0  0  0  0  0  0  0  0  0  0  0
    2.6649   -0.5038    0.0000 C   0  0  0  0  0  0  0  0  0  0  0  0
    1.8399   -0.5038    0.0000 N   0  0  0  0  0  0  0  0  0  0  0  0
    1.4274   -1.2183    0.0000 O   0  0  0  0  0  0  0  0  0  0  0  0
    1.8399   -1.9327    0.0000 C   0  0  0  0  0  0  0  0  0  0  0  0
    1.4274   -2.6472    0.0000 N   0  0  0  0  0  0  0  0  0  0  0  0
    1.8399   -3.3617    0.0000 C   0  0  0  0  0  0  0  0  0  0  0  0
    2.6649   -1.9327    0.0000 O   0  0  0  0  0  0  0  0  0  0  0  0
  1  2  1  0  0  0  0
  2  3  1  0  0  0  0
  2  4  1  0  0  0  0
  4  5  1  0  0  0  0
  6  2  1  4  0  0  0
  6  7  2  0  0  0  0
  7  8  1  0  0  0  0
  8  9  1  0  0  0  0
  9 10  1  0  0  0  0
 10 11  1  0  0  0  0
  9 12  2  0  0  0  0
M  END
> <ChemID>
10051

> <CAS>
116-06-3

> <Original_SMILES>
CNC(=O)ON=CC(C)(C)SC

> <preferred_name>
Aldicarb

> <dsstox_substance_id>
DTXSID0039223

> <dsstox_compound_id>
DTXCID1039

> <Canonical_QSARr>
CNC(=O)ON=CC(C)(C)SC

> <InChI_Code_QSARr>
InChI=1S/C7H14N2O2S/c1-7(2,12-4)5-9-11-6(10)8-3/h5H,1-4H3,(H,8,10)

> <InChI Key_QSARr>
QGLZXHRNAYXIBU-UHFFFAOYSA-N

> <Salt_Solvent>


> <Salt_Solvent_ID>
0

> <Clint>
-0.12493873660829993

> <Tr_1_Tst_0>
1

$$$$
Row507
  Mrv171c012261910192D          

 31 33  0  0  0  0            999 V2000
    0.7059   -1.9122    0.0000 C   0  0  0  0  0  0  0  0  0  0  0  0
   -0.0086   -2.3247    0.0000 C   0  0  0  0  0  0  0  0  0  0  0  0
   -0.0086   -3.1497    0.0000 C   0  0  0  0  0  0  0  0  0  0  0  0
    0.7059   -3.5622    0.0000 C   0  0  0  0  0  0  0  0  0  0  0  0
    1.4204   -3.1497    0.0000 C   0  0  0  0  0  0  0  0  0  0  0  0
    2.1348   -3.5622    0.0000 N   0  0  0  0  0  0  0  0  0  0  0  0
    2.8493   -3.1497    0.0000 C   0  0  0  0  0  0  0  0  0  0  0  0
    2.8493   -2.3247    0.0000 O   0  0  0  0  0  0  0  0  0  0  0  0
    3.5638   -3.5622    0.0000 N   0  0  0  0  0  0  0  0  0  0  0  0
    4.2783   -3.1497    0.0000 S   0  0  0  0  0  0  0  0  0  0  0  0
    4.6908   -3.8641    0.0000 O   0  0  0  0  0  0  0  0  0  0  0  0
    3.8658   -2.4352    0.0000 O   0  0  0  0  0  0  0  0  0  0  0  0
    4.9927   -2.7372    0.0000 C   0  0  0  0  0  0  0  0  0  0  0  0
    5.7072   -3.1497    0.0000 C   0  0  0  0  0  0  0  0  0  0  0  0
    6.4217   -2.7372    0.0000 C   0  0  0  0  0  0  0  0  0  0  0  0
    6.4217   -1.9122    0.0000 C   0  0  0  0  0  0  0  0  0  0  0  0
    7.1361   -1.4997    0.0000 C   0  0  0  0  0  0  0  0  0  0  0  0
    7.8506   -1.9122    0.0000 C   0  0  0  0  0  0  0  0  0  0  0  0
    8.5651   -1.4997    0.0000 N   0  0  0  0  0  0  0  0  0  0  0  0
    9.2796   -1.9122    0.0000 C   0  0  0  0  0  0  0  0  0  0  0  0
    9.9940   -1.4997    0.0000 C   0  0  0  0  0  0  0  0  0  0  0  0
   10.7085   -1.9122    0.0000 C   0  0  0  0  0  0  0  0  0  0  0  0
   11.4230   -1.4997    0.0000 N   0  0  0  0  0  0  0  0  0  0  0  0
   11.4230   -0.6747    0.0000 C   0  0  0  0  0  0  0  0  0  0  0  0
   12.1374   -0.2622    0.0000 C   0  0  0  0  0  0  0  0  0  0  0  0
   10.7085   -0.2622    0.0000 C   0  0  0  0  0  0  0  0  0  0  0  0
    9.9940   -0.6747    0.0000 N   0  0  0  0  0  0  0  0  0  0  0  0
    9.2796   -2.7372    0.0000 O   0  0  0  0  0  0  0  0  0  0  0  0
    5.7072   -1.4997    0.0000 C   0  0  0  0  0  0  0  0  0  0  0  0
    4.9927   -1.9122    0.0000 C   0  0  0  0  0  0  0  0  0  0  0  0
    1.4204   -2.3247    0.0000 C   0  0  0  0  0  0  0  0  0  0  0  0
  2  1  1  0  0  0  0
  3  2  1  0  0  0  0
  4  3  1  0  0  0  0
  5  4  1  0  0  0  0
  5  6  1  0  0  0  0
  6  7  1  0  0  0  0
  7  8  2  0  0  0  0
  7  9  1  0  0  0  0
  9 10  1  0  0  0  0
 10 11  2  0  0  0  0
 10 12  2  0  0  0  0
 10 13  1  0  0  0  0
 14 13  1  0  0  0  0
 15 14  2  0  0  0  0
 16 15  1  0  0  0  0
 16 17  1  0  0  0  0
 17 18  1  0  0  0  0
 18 19  1  0  0  0  0
 19 20  1  0  0  0  0
 20 21  1  0  0  0  0
 22 21  2  0  0  0  0
 23 22  1  0  0  0  0
 24 23  2  0  0  0  0
 24 25  1  0  0  0  0
 26 24  1  0  0  0  0
 27 26  2  0  0  0  0
 21 27  1  0  0  0  0
 20 28  2  0  0  0  0
 29 16  2  0  0  0  0
 30 29  1  0  0  0  0
 13 30  2  0  0  0  0
 31  5  1  0  0  0  0
  1 31  1  0  0  0  0
M  END
> <ChemID>
10052

> <CAS>
29094-61-9

> <Original_SMILES>
Cc1c[n]c(c[n]1)C(=O)NCCc1ccc(cc1)S(=O)(=O)NC(=O)NC1CCCCC1

> <preferred_name>
Glipizide

> <dsstox_substance_id>
DTXSID0040676

> <dsstox_compound_id>
DTXCID8020676

> <Canonical_QSARr>
CC1C=NC(=CN=1)C(=O)NCCC1C=CC(=CC=1)S(=O)(=O)NC(=O)NC1CCCCC1

> <InChI_Code_QSARr>
InChI=1S/C21H27N5O4S/c1-15-13-24-19(14-23-15)20(27)22-12-11-16-7-9-18(10-8-16)31(29,30)26-21(28)25-17-5-3-2-4-6-17/h7-10,13-14,17H,2-6,11-12H2,1H3,(H,22,27)(H2,25,26,28)

> <InChI Key_QSARr>
ZJJXGWJIGJFDTL-UHFFFAOYSA-N

> <Salt_Solvent>


> <Salt_Solvent_ID>
0

> <Clint>
1.2304489213782739

> <Tr_1_Tst_0>
0

$$$$
Row360
  Mrv171c012261910192D          

 18 18  0  0  0  0            999 V2000
    2.5942   -1.1712    0.0000 O   0  0  0  0  0  0  0  0  0  0  0  0
    3.3087   -0.7587    0.0000 C   0  0  0  0  0  0  0  0  0  0  0  0
    4.0232   -1.1712    0.0000 C   0  0  0  0  0  0  0  0  0  0  0  0
    4.0232   -1.9962    0.0000 O   0  0  0  0  0  0  0  0  0  0  0  0
    4.7377   -0.7587    0.0000 C   0  0  0  0  0  0  0  0  0  0  0  0
    5.4521   -1.1712    0.0000 N   0  0  0  0  0  0  0  0  0  0  0  0
    6.1666   -0.7587    0.0000 C   0  0  0  0  0  0  0  0  0  0  0  0
    6.8811   -1.1712    0.0000 C   0  0  0  0  0  0  0  0  0  0  0  0
    6.1666    0.0663    0.0000 C   0  0  0  0  0  0  0  0  0  0  0  0
    1.8798   -0.7587    0.0000 C   0  0  0  0  0  0  0  0  0  0  0  0
    1.8798    0.0663    0.0000 C   0  0  0  0  0  0  0  0  0  0  0  0
    1.1653    0.4788    0.0000 C   0  0  0  0  0  0  0  0  0  0  0  0
    0.4508    0.0663    0.0000 C   0  0  0  0  0  0  0  0  0  0  0  0
    0.4508   -0.7587    0.0000 C   0  0  0  0  0  0  0  0  0  0  0  0
    1.1653   -1.1712    0.0000 C   0  0  0  0  0  0  0  0  0  0  0  0
    1.1653   -1.9962    0.0000 C   0  0  0  0  0  0  0  0  0  0  0  0
    0.4508   -2.4087    0.0000 C   0  0  0  0  0  0  0  0  0  0  0  0
    0.4508   -3.2337    0.0000 C   0  0  0  0  0  0  0  0  0  0  0  0
  1  2  1  0  0  0  0
  2  3  1  0  0  0  0
  3  4  1  0  0  0  0
  3  5  1  0  0  0  0
  5  6  1  0  0  0  0
  6  7  1  0  0  0  0
  7  8  1  0  0  0  0
  7  9  1  0  0  0  0
  1 10  1  0  0  0  0
 11 10  1  0  0  0  0
 12 11  2  0  0  0  0
 13 12  1  0  0  0  0
 14 13  2  0  0  0  0
 15 14  1  0  0  0  0
 10 15  2  0  0  0  0
 15 16  1  0  0  0  0
 16 17  1  0  0  0  0
 17 18  2  0  0  0  0
M  END
> <ChemID>
10053

> <CAS>
13655-52-2

> <Original_SMILES>
CC(C)NCC(O)COc1ccccc1CC=C

> <preferred_name>
Alprenolol

> <dsstox_substance_id>
DTXSID0045127

> <dsstox_compound_id>
DTXCID8025127

> <Canonical_QSARr>
CC(C)NCC(O)COC1C=CC=CC=1CC=C

> <InChI_Code_QSARr>
InChI=1S/C15H23NO2/c1-4-7-13-8-5-6-9-15(13)18-11-14(17)10-16-12(2)3/h4-6,8-9,12,14,16-17H,1,7,10-11H2,2-3H3

> <InChI Key_QSARr>
PAZJSJFMUHDSTF-UHFFFAOYSA-N

> <Salt_Solvent>


> <Salt_Solvent_ID>
0

> <Clint>
1.556302500767287

> <Tr_1_Tst_0>
1

$$$$
Row527
  Mrv171c012261910192D          

 18 19  0  0  0  0            999 V2000
    5.6948   -0.1059    0.0000 O   0  0  0  0  0  0  0  0  0  0  0  0
    4.9803   -0.5184    0.0000 C   0  0  0  0  0  0  0  0  0  0  0  0
    4.2659   -0.1059    0.0000 C   0  0  0  0  0  0  0  0  0  0  0  0
    4.7962    0.5261    0.0000 C   0  0  0  0  0  0  0  0  0  0  0  0
    5.6086    0.3829    0.0000 C   0  0  0  0  0  0  0  0  0  0  0  0
    3.7356    0.5261    0.0000 C   0  0  0  0  0  0  0  0  0  0  0  0
    4.0749    1.2781    0.0000 C   0  0  0  0  0  0  0  0  0  0  0  0
    3.6985    2.0123    0.0000 C   0  0  0  0  0  0  0  0  0  0  0  0
    2.8899    2.1757    0.0000 C   0  0  0  0  0  0  0  0  0  0  0  0
    2.2579    1.6454    0.0000 C   0  0  0  0  0  0  0  0  0  0  0  0
    2.2784    0.8207    0.0000 C   0  0  0  0  0  0  0  0  0  0  0  0
    2.9361    0.3225    0.0000 C   0  0  0  0  0  0  0  0  0  0  0  0
    3.5514   -0.5184    0.0000 C   0  0  0  0  0  0  0  0  0  0  0  0
    2.8369   -0.1059    0.0000 O   0  0  0  0  0  0  0  0  0  0  0  0
    3.5514   -1.3434    0.0000 N   0  0  0  0  0  0  0  0  0  0  0  0
    4.2659   -1.7559    0.0000 C   0  0  0  0  0  0  0  0  0  0  0  0
    4.2659   -2.5809    0.0000 O   0  0  0  0  0  0  0  0  0  0  0  0
    4.9803   -1.3434    0.0000 N   0  0  0  0  0  0  0  0  0  0  0  0
  1  2  2  0  0  0  0
  3  2  1  0  0  0  0
  3  4  1  0  0  0  0
  4  5  1  0  0  0  0
  3  6  1  0  0  0  0
  7  6  2  0  0  0  0
  8  7  1  0  0  0  0
  9  8  1  0  0  0  0
 10  9  1  0  0  0  0
 11 10  1  0  0  0  0
 12 11  1  0  0  0  0
  6 12  1  0  0  0  0
 13  3  1  0  0  0  0
 13 14  2  0  0  0  0
 15 13  1  0  0  0  0
 16 15  1  0  0  0  0
 16 17  2  0  0  0  0
 18 16  1  0  0  0  0
  2 18  1  0  0  0  0
M  END
> <ChemID>
10054

> <CAS>
509-86-4

> <Original_SMILES>
CCC1(C2CCCCCC=2)C(=O)NC(=O)NC1=O

> <preferred_name>
Heptabarbital

> <dsstox_substance_id>
DTXSID10198927

> <dsstox_compound_id>
DTXCID70121418

> <Canonical_QSARr>
CCC1(C2CCCCCC=2)C(=O)NC(=O)NC1=O

> <InChI_Code_QSARr>
InChI=1S/C13H18N2O3/c1-2-13(9-7-5-3-4-6-8-9)10(16)14-12(18)15-11(13)17/h7H,2-6,8H2,1H3,(H2,14,15,16,17,18)

> <InChI Key_QSARr>
PAZQYDJGLKSCSI-UHFFFAOYSA-N

> <Salt_Solvent>


> <Salt_Solvent_ID>
0

> <Clint>
1.462397997898956

> <Tr_1_Tst_0>
0

$$$$
Row337
  Mrv171c012261910192D          

 11 11  0  0  0  0            999 V2000
    2.1750   -1.9500    0.0000 C   0  0  0  0  0  0  0  0  0  0  0  0
    2.1750   -2.7750    0.0000 C   0  0  0  0  0  0  0  0  0  0  0  0
    3.0000   -1.9500    0.0000 C   0  0  0  0  0  0  0  0  0  0  0  0
    1.3500   -1.9500    0.0000 C   0  0  0  0  0  0  0  0  0  0  0  0
    2.1750   -1.1250    0.0000 C   0  0  0  0  0  0  0  0  0  0  0  0
    2.8895   -0.7125    0.0000 C   0  0  0  0  0  0  0  0  0  0  0  0
    2.8895    0.1125    0.0000 C   0  0  0  0  0  0  0  0  0  0  0  0
    2.1750    0.5250    0.0000 C   0  0  0  0  0  0  0  0  0  0  0  0
    2.1750    1.3500    0.0000 O   0  0  0  0  0  0  0  0  0  0  0  0
    1.4606    0.1125    0.0000 C   0  0  0  0  0  0  0  0  0  0  0  0
    1.4606   -0.7125    0.0000 C   0  0  0  0  0  0  0  0  0  0  0  0
  1  2  1  0  0  0  0
  1  3  1  0  0  0  0
  1  4  1  0  0  0  0
  1  5  1  0  0  0  0
  6  5  1  0  0  0  0
  7  6  2  0  0  0  0
  8  7  1  0  0  0  0
  8  9  1  0  0  0  0
 10  8  2  0  0  0  0
 11 10  1  0  0  0  0
  5 11  2  0  0  0  0
M  END
> <ChemID>
10055

> <CAS>
98-54-4

> <Original_SMILES>
CC(C)(C)c1ccc(O)cc1

> <preferred_name>
4-tert-Butylphenol

> <dsstox_substance_id>
DTXSID1020221

> <dsstox_compound_id>
DTXCID90221

> <Canonical_QSARr>
CC(C)(C)C1C=CC(O)=CC=1

> <InChI_Code_QSARr>
InChI=1S/C10H14O/c1-10(2,3)8-4-6-9(11)7-5-8/h4-7,11H,1-3H3

> <InChI Key_QSARr>
QHPQWRBYOIRBIT-UHFFFAOYSA-N

> <Salt_Solvent>


> <Salt_Solvent_ID>
0

> <Clint>
1.4281347940287887

> <Tr_1_Tst_0>
1

$$$$
Row304
  Mrv171c012261910192D          

 10 10  0  0  0  0            999 V2000
    3.1277   -0.8182    0.0000 N   0  0  0  0  0  0  0  0  0  0  0  0
    2.4132   -1.2307    0.0000 C   0  0  0  0  0  0  0  0  0  0  0  0
    1.6987   -0.8182    0.0000 C   0  0  0  0  0  0  0  0  0  0  0  0
    1.6987    0.0068    0.0000 O   0  0  0  0  0  0  0  0  0  0  0  0
    0.9843    0.4193    0.0000 C   0  0  0  0  0  0  0  0  0  0  0  0
    0.9843   -1.2307    0.0000 C   0  0  0  0  0  0  0  0  0  0  0  0
    0.9843   -2.0557    0.0000 C   0  0  0  0  0  0  0  0  0  0  0  0
    1.6987   -2.4682    0.0000 C   0  0  0  0  0  0  0  0  0  0  0  0
    1.6987   -3.2932    0.0000 C   0  0  0  0  0  0  0  0  0  0  0  0
    2.4132   -2.0557    0.0000 C   0  0  0  0  0  0  0  0  0  0  0  0
  1  2  1  0  0  0  0
  3  2  1  0  0  0  0
  3  4  1  0  0  0  0
  4  5  1  0  0  0  0
  6  3  2  0  0  0  0
  7  6  1  0  0  0  0
  8  7  2  0  0  0  0
  8  9  1  0  0  0  0
 10  8  1  0  0  0  0
  2 10  2  0  0  0  0
M  END
> <ChemID>
10056

> <CAS>
120-71-8

> <Original_SMILES>
Cc1ccc(OC)c(N)c1

> <preferred_name>
2-Methoxy-5-methylaniline

> <dsstox_substance_id>
DTXSID1020350

> <dsstox_compound_id>
DTXCID30350

> <Canonical_QSARr>
CC1C=C(N)C(=CC=1)OC

> <InChI_Code_QSARr>
InChI=1S/C8H11NO/c1-6-3-4-8(10-2)7(9)5-6/h3-5H,9H2,1-2H3

> <InChI Key_QSARr>
WXWCDTXEKCVRRO-UHFFFAOYSA-N

> <Salt_Solvent>


> <Salt_Solvent_ID>
0

> <Clint>
1.2907467156120858

> <Tr_1_Tst_0>
1

$$$$
Row152
  Mrv171c012261910192D          

 20 23  0  0  0  0            999 V2000
    2.7405   -0.0454    0.0000 C   0  0  0  0  0  0  0  0  0  0  0  0
    2.4705   -0.8249    0.0000 C   0  0  0  0  0  0  0  0  0  0  0  0
    3.0106   -1.4486    0.0000 C   0  0  0  0  0  0  0  0  0  0  0  0
    3.8207   -1.2927    0.0000 C   0  0  0  0  0  0  0  0  0  0  0  0
    4.0908   -0.5131    0.0000 C   0  0  0  0  0  0  0  0  0  0  0  0
    4.9009   -0.3572    0.0000 C   0  0  0  0  0  0  0  0  0  0  0  0
    5.4410   -0.9808    0.0000 C   0  0  0  0  0  0  0  0  0  0  0  0
    5.1709   -1.7604    0.0000 C   0  0  0  0  0  0  0  0  0  0  0  0
    4.3608   -1.9163    0.0000 C   0  0  0  0  0  0  0  0  0  0  0  0
    4.0908   -2.6959    0.0000 C   0  0  0  0  0  0  0  0  0  0  0  0
    3.2806   -2.8518    0.0000 C   0  0  0  0  0  0  0  0  0  0  0  0
    2.7405   -2.2281    0.0000 C   0  0  0  0  0  0  0  0  0  0  0  0
    1.9304   -2.3840    0.0000 C   0  0  0  0  0  0  0  0  0  0  0  0
    1.6604   -3.1636    0.0000 C   0  0  0  0  0  0  0  0  0  0  0  0
    1.3903   -1.7604    0.0000 C   0  0  0  0  0  0  0  0  0  0  0  0
    0.5802   -1.9163    0.0000 C   0  0  0  0  0  0  0  0  0  0  0  0
    0.0401   -1.2927    0.0000 C   0  0  0  0  0  0  0  0  0  0  0  0
    0.3101   -0.5131    0.0000 C   0  0  0  0  0  0  0  0  0  0  0  0
    1.1203   -0.3572    0.0000 C   0  0  0  0  0  0  0  0  0  0  0  0
    1.6604   -0.9808    0.0000 C   0  0  0  0  0  0  0  0  0  0  0  0
  1  2  1  0  0  0  0
  3  2  1  0  0  0  0
  3  4  2  0  0  0  0
  5  4  1  0  0  0  0
  6  5  2  0  0  0  0
  7  6  1  0  0  0  0
  8  7  2  0  0  0  0
  9  8  1  0  0  0  0
  4  9  1  0  0  0  0
  9 10  2  0  0  0  0
 10 11  1  0  0  0  0
 11 12  2  0  0  0  0
 12  3  1  0  0  0  0
 13 12  1  0  0  0  0
 13 14  1  0  0  0  0
 15 13  2  0  0  0  0
 15 16  1  0  0  0  0
 16 17  2  0  0  0  0
 17 18  1  0  0  0  0
 18 19  2  0  0  0  0
 19 20  1  0  0  0  0
  2 20  2  0  0  0  0
 20 15  1  0  0  0  0
M  END
> <ChemID>
10057

> <CAS>
57-97-6

> <Original_SMILES>
Cc1c2ccc3ccccc3c2c(C)c2ccccc12

> <preferred_name>
7,12-Dimethylbenz(a)anthracene

> <dsstox_substance_id>
DTXSID1020510

> <dsstox_compound_id>
DTXCID70510

> <Canonical_QSARr>
CC1C2=CC=C3C=CC=CC3=C2C(C)=C2C=CC=CC=12

> <InChI_Code_QSARr>
InChI=1S/C20H16/c1-13-16-8-5-6-9-17(16)14(2)20-18(13)12-11-15-7-3-4-10-19(15)20/h3-12H,1-2H3

> <InChI Key_QSARr>
ARSRBNBHOADGJU-UHFFFAOYSA-N

> <Salt_Solvent>


> <Salt_Solvent_ID>
0

> <Clint>
0.5086643630529426

> <Tr_1_Tst_0>
1

$$$$
Row173
  Mrv171c012261910192D          

 19 21  0  0  0  0            999 V2000
    1.1239   -2.4399    0.0000 O   0  0  0  0  0  0  0  0  0  0  0  0
    1.9271   -2.6284    0.0000 C   0  0  0  0  0  0  0  0  0  0  0  0
    2.4923   -2.2000    0.0000 C   0  0  0  0  0  0  0  0  0  0  0  0
    3.2872   -2.5349    0.0000 C   0  0  0  0  0  0  0  0  0  0  0  0
    3.4299   -3.3877    0.0000 Cl  0  0  0  0  0  0  0  0  0  0  0  0
    3.4985   -1.7112    0.0000 C   0  0  0  0  0  0  0  0  0  0  0  0
    2.7815   -1.8182    0.0000 Cl  0  0  0  0  0  0  0  0  0  0  0  0
    2.8346   -0.9234    0.0000 Cl  0  0  0  0  0  0  0  0  0  0  0  0
    3.2974   -0.8850    0.0000 C   0  0  0  0  0  0  0  0  0  0  0  0
    3.4744   -0.0236    0.0000 Cl  0  0  0  0  0  0  0  0  0  0  0  0
    2.5804   -1.2931    0.0000 C   0  0  0  0  0  0  0  0  0  0  0  0
    1.9385   -0.7747    0.0000 C   0  0  0  0  0  0  0  0  0  0  0  0
    1.1331   -0.9533    0.0000 O   0  0  0  0  0  0  0  0  0  0  0  0
    0.7706   -1.6944    0.0000 S   0  0  0  0  0  0  0  0  0  0  0  0
   -0.0887   -1.6896    0.0000 O   0  0  0  0  0  0  0  0  0  0  0  0
    4.0093   -1.3019    0.0000 C   0  0  0  0  0  0  0  0  0  0  0  0
    4.7684   -0.8868    0.0000 Cl  0  0  0  0  0  0  0  0  0  0  0  0
    4.0042   -2.1269    0.0000 C   0  0  0  0  0  0  0  0  0  0  0  0
    4.7538   -2.5541    0.0000 Cl  0  0  0  0  0  0  0  0  0  0  0  0
  2  1  1  0  0  0  0
  3  2  1  0  0  0  0
  3  4  1  0  0  0  0
  4  5  1  0  0  0  0
  6  4  1  0  0  0  0
  6  7  1  0  0  0  0
  6  8  1  0  0  0  0
  9  6  1  0  0  0  0
  9 10  1  0  0  0  0
  9 11  1  0  0  0  0
 11  3  1  0  0  0  0
 12 11  1  0  0  0  0
 13 12  1  0  0  0  0
 14 13  1  0  0  0  0
  1 14  1  0  0  0  0
 14 15  2  0  0  0  0
 16  9  1  0  0  0  0
 16 17  1  0  0  0  0
 18 16  2  0  0  0  0
  4 18  1  0  0  0  0
 18 19  1  0  0  0  0
M  END
> <ChemID>
10058

> <CAS>
115-29-7

> <Original_SMILES>
O=S1OCC2C(CO1)C1(Cl)C(Cl)=C(Cl)C2(Cl)C1(Cl)Cl

> <preferred_name>
Endosulfan

> <dsstox_substance_id>
DTXSID1020560

> <dsstox_compound_id>
DTXCID70560

> <Canonical_QSARr>
O=S1OCC2C(CO1)C1(Cl)C(Cl)=C(Cl)C2(Cl)C1(Cl)Cl

> <InChI_Code_QSARr>
InChI=1S/C9H6Cl6O3S/c10-5-6(11)8(13)4-2-18-19(16)17-1-3(4)7(5,12)9(8,14)15/h3-4H,1-2H2

> <InChI Key_QSARr>
RDYMFSUJUZBWLH-UHFFFAOYSA-N

> <Salt_Solvent>


> <Salt_Solvent_ID>
0

> <Clint>
0.6972293427597175

> <Tr_1_Tst_0>
1

$$$$
Row264
  Mrv171c012261910192D          

 16 16  0  0  0  0            999 V2000
    1.9978   -1.7106    0.0000 S   0  0  0  0  0  0  0  0  0  0  0  0
    2.4103   -2.4251    0.0000 P   0  0  0  0  0  0  0  0  0  0  0  0
    1.6958   -2.8376    0.0000 O   0  0  0  0  0  0  0  0  0  0  0  0
    1.6958   -3.6626    0.0000 C   0  0  0  0  0  0  0  0  0  0  0  0
    2.8228   -3.1396    0.0000 O   0  0  0  0  0  0  0  0  0  0  0  0
    2.4103   -3.8540    0.0000 C   0  0  0  0  0  0  0  0  0  0  0  0
    3.1247   -2.0126    0.0000 O   0  0  0  0  0  0  0  0  0  0  0  0
    3.1247   -1.1876    0.0000 C   0  0  0  0  0  0  0  0  0  0  0  0
    3.8392   -0.7751    0.0000 C   0  0  0  0  0  0  0  0  0  0  0  0
    3.8392    0.0499    0.0000 C   0  0  0  0  0  0  0  0  0  0  0  0
    3.1247    0.4624    0.0000 C   0  0  0  0  0  0  0  0  0  0  0  0
    3.1247    1.2874    0.0000 N   0  3  0  0  0  0  0  0  0  0  0  0
    2.4103    1.6999    0.0000 O   0  5  0  0  0  0  0  0  0  0  0  0
    3.8392    1.6999    0.0000 O   0  0  0  0  0  0  0  0  0  0  0  0
    2.4103    0.0499    0.0000 C   0  0  0  0  0  0  0  0  0  0  0  0
    2.4103   -0.7751    0.0000 C   0  0  0  0  0  0  0  0  0  0  0  0
  1  2  2  0  0  0  0
  2  3  1  0  0  0  0
  3  4  1  0  0  0  0
  2  5  1  0  0  0  0
  5  6  1  0  0  0  0
  2  7  1  0  0  0  0
  7  8  1  0  0  0  0
  9  8  1  0  0  0  0
 10  9  2  0  0  0  0
 11 10  1  0  0  0  0
 11 12  1  0  0  0  0
 12 13  1  0  0  0  0
 12 14  2  0  0  0  0
 15 11  2  0  0  0  0
 16 15  1  0  0  0  0
  8 16  2  0  0  0  0
M  CHG  2  12   1  13  -1
M  END
> <ChemID>
10059

> <CAS>
298-00-0

> <Original_SMILES>
COP(=S)(Oc1ccc(cc1)[N+]([O-])=O)OC

> <preferred_name>
Methyl parathion

> <dsstox_substance_id>
DTXSID1020855

> <dsstox_compound_id>
DTXCID30855

> <Canonical_QSARr>
COP(=S)(OC1C=CC(=CC=1)[N+]([O-])=O)OC

> <InChI_Code_QSARr>
InChI=1S/C8H10NO5PS/c1-12-15(16,13-2)14-8-5-3-7(4-6-8)9(10)11/h3-6H,1-2H3

> <InChI Key_QSARr>
RLBIQVVOMOPOHC-UHFFFAOYSA-N

> <Salt_Solvent>


> <Salt_Solvent_ID>
0

> <Clint>
1.151982395457474

> <Tr_1_Tst_0>
1

$$$$
Row129
  Mrv171c012261910192D          

 12 13  0  0  0  0            999 V2000
    1.2348   -2.1775    0.0000 N   0  0  0  0  0  0  0  0  0  0  0  0
    0.4502   -1.9226    0.0000 C   0  0  0  0  0  0  0  0  0  0  0  0
    1.4897   -2.9622    0.0000 C   0  0  0  0  0  0  0  0  0  0  0  0
    2.3147   -2.9622    0.0000 C   0  0  0  0  0  0  0  0  0  0  0  0
    2.5697   -2.1775    0.0000 C   0  0  0  0  0  0  0  0  0  0  0  0
    1.9022   -1.6926    0.0000 C   0  0  0  0  0  0  0  0  0  0  0  0
    1.9022   -0.8676    0.0000 C   0  0  0  0  0  0  0  0  0  0  0  0
    2.6167   -0.4551    0.0000 C   0  0  0  0  0  0  0  0  0  0  0  0
    2.6167    0.3699    0.0000 C   0  0  0  0  0  0  0  0  0  0  0  0
    1.9022    0.7824    0.0000 C   0  0  0  0  0  0  0  0  0  0  0  0
    1.1877    0.3699    0.0000 N   0  0  0  0  0  0  0  0  0  0  0  0
    1.1877   -0.4551    0.0000 C   0  0  0  0  0  0  0  0  0  0  0  0
  1  2  1  0  0  0  0
  3  1  1  0  0  0  0
  4  3  1  0  0  0  0
  5  4  1  0  0  0  0
  6  5  1  0  0  0  0
  1  6  1  0  0  0  0
  6  7  1  0  0  0  0
  8  7  1  0  0  0  0
  9  8  2  0  0  0  0
 10  9  1  0  0  0  0
 11 10  2  0  0  0  0
 12 11  1  0  0  0  0
  7 12  2  0  0  0  0
M  END
> <ChemID>
10060

> <CAS>
54-11-5

> <Original_SMILES>
CN1CCC[C@H]1c1c[n]ccc1

> <preferred_name>
Nicotine

> <dsstox_substance_id>
DTXSID1020930

> <dsstox_compound_id>
DTXCID50930

> <Canonical_QSARr>
CN1CCCC1C1=CN=CC=C1

> <InChI_Code_QSARr>
InChI=1S/C10H14N2/c1-12-7-3-5-10(12)9-4-2-6-11-8-9/h2,4,6,8,10H,3,5,7H2,1H3

> <InChI Key_QSARr>
SNICXCGAKADSCV-UHFFFAOYSA-N

> <Salt_Solvent>


> <Salt_Solvent_ID>
0

> <Clint>
0.3692158574101428

> <Tr_1_Tst_0>
1

$$$$
Row452
  Mrv171c012261910192D          

 20 22  0  0  0  0            999 V2000
   -0.0864   -1.9735    0.0000 Cl  0  0  0  0  0  0  0  0  0  0  0  0
    0.6281   -2.3860    0.0000 C   0  0  0  0  0  0  0  0  0  0  0  0
    1.3425   -1.9735    0.0000 C   0  0  0  0  0  0  0  0  0  0  0  0
    2.0570   -2.3860    0.0000 C   0  0  0  0  0  0  0  0  0  0  0  0
    2.7020   -1.8717    0.0000 C   0  0  0  0  0  0  0  0  0  0  0  0
    2.5184   -1.0673    0.0000 C   0  0  0  0  0  0  0  0  0  0  0  0
    3.1232   -0.5062    0.0000 C   0  0  0  0  0  0  0  0  0  0  0  0
    2.9396    0.2981    0.0000 C   0  0  0  0  0  0  0  0  0  0  0  0
    2.1513    0.5413    0.0000 C   0  0  0  0  0  0  0  0  0  0  0  0
    1.5465   -0.0199    0.0000 C   0  0  0  0  0  0  0  0  0  0  0  0
    1.7301   -0.8242    0.0000 C   0  0  0  0  0  0  0  0  0  0  0  0
    3.5063   -2.0552    0.0000 N   0  0  0  0  0  0  0  0  0  0  0  0
    3.8643   -2.7985    0.0000 C   0  0  0  0  0  0  0  0  0  0  0  0
    3.5063   -3.5418    0.0000 C   0  0  0  0  0  0  0  0  0  0  0  0
    2.7020   -3.7254    0.0000 N   0  0  0  0  0  0  0  0  0  0  0  0
    2.0570   -3.2110    0.0000 C   0  0  0  0  0  0  0  0  0  0  0  0
    1.3425   -3.6235    0.0000 C   0  0  0  0  0  0  0  0  0  0  0  0
    0.6281   -3.2110    0.0000 C   0  0  0  0  0  0  0  0  0  0  0  0
    4.0207   -4.1869    0.0000 O   0  0  0  0  0  0  0  0  0  0  0  0
    4.6893   -2.7985    0.0000 O   0  0  0  0  0  0  0  0  0  0  0  0
  1  2  1  0  0  0  0
  3  2  1  0  0  0  0
  4  3  2  0  0  0  0
  4  5  1  0  0  0  0
  5  6  1  0  0  0  0
  7  6  1  0  0  0  0
  8  7  2  0  0  0  0
  9  8  1  0  0  0  0
 10  9  2  0  0  0  0
 11 10  1  0  0  0  0
  6 11  2  0  0  0  0
  5 12  2  0  0  0  0
 12 13  1  0  0  0  0
 13 14  1  0  0  0  0
 14 15  1  0  0  0  0
 15 16  1  0  0  0  0
 16  4  1  0  0  0  0
 17 16  2  0  0  0  0
 18 17  1  0  0  0  0
  2 18  2  0  0  0  0
 14 19  2  0  0  0  0
 13 20  1  0  0  0  0
M  END
> <ChemID>
10061

> <CAS>
604-75-1

> <Original_SMILES>
OC1N=C(c2cc(Cl)ccc2NC1=O)c1ccccc1

> <preferred_name>
Oxazepam

> <dsstox_substance_id>
DTXSID1021087

> <dsstox_compound_id>
DTXCID301087

> <Canonical_QSARr>
OC1N=C(C2=CC(Cl)=CC=C2NC1=O)C1C=CC=CC=1

> <InChI_Code_QSARr>
InChI=1S/C15H11ClN2O2/c16-10-6-7-12-11(8-10)13(9-4-2-1-3-5-9)18-15(20)14(19)17-12/h1-8,15,20H,(H,17,19)

> <InChI Key_QSARr>
ADIMAYPTOBDMTL-UHFFFAOYSA-N

> <Salt_Solvent>


> <Salt_Solvent_ID>
0

> <Clint>
0.30102999566398114

> <Tr_1_Tst_0>
0

$$$$
Row270
  Mrv171c012261910192D          

 13 13  0  0  0  0            999 V2000
    2.4199   -3.6189    0.0000 C   0  0  0  0  0  0  0  0  0  0  0  0
    2.4199   -2.7939    0.0000 C   0  0  0  0  0  0  0  0  0  0  0  0
    3.1344   -2.3814    0.0000 N   0  0  0  0  0  0  0  0  0  0  0  0
    3.1344   -1.5564    0.0000 C   0  0  0  0  0  0  0  0  0  0  0  0
    3.8488   -1.1439    0.0000 C   0  0  0  0  0  0  0  0  0  0  0  0
    3.8488   -0.3189    0.0000 C   0  0  0  0  0  0  0  0  0  0  0  0
    3.1344    0.0936    0.0000 C   0  0  0  0  0  0  0  0  0  0  0  0
    3.1344    0.9186    0.0000 O   0  0  0  0  0  0  0  0  0  0  0  0
    3.8488    1.3311    0.0000 C   0  0  0  0  0  0  0  0  0  0  0  0
    3.8488    2.1561    0.0000 C   0  0  0  0  0  0  0  0  0  0  0  0
    2.4199   -0.3189    0.0000 C   0  0  0  0  0  0  0  0  0  0  0  0
    2.4199   -1.1439    0.0000 C   0  0  0  0  0  0  0  0  0  0  0  0
    1.7054   -2.3814    0.0000 O   0  0  0  0  0  0  0  0  0  0  0  0
  1  2  1  0  0  0  0
  2  3  1  0  0  0  0
  3  4  1  0  0  0  0
  5  4  1  0  0  0  0
  6  5  2  0  0  0  0
  7  6  1  0  0  0  0
  7  8  1  0  0  0  0
  8  9  1  0  0  0  0
  9 10  1  0  0  0  0
 11  7  2  0  0  0  0
 12 11  1  0  0  0  0
  4 12  2  0  0  0  0
  2 13  2  0  0  0  0
M  END
> <ChemID>
10062

> <CAS>
62-44-2

> <Original_SMILES>
CC(=O)Nc1ccc(cc1)OCC

> <preferred_name>
Phenacetin

> <dsstox_substance_id>
DTXSID1021116

> <dsstox_compound_id>
DTXCID001116

> <Canonical_QSARr>
CC(=O)NC1C=CC(=CC=1)OCC

> <InChI_Code_QSARr>
InChI=1S/C10H13NO2/c1-3-13-10-6-4-9(5-7-10)11-8(2)12/h4-7H,3H2,1-2H3,(H,11,12)

> <InChI Key_QSARr>
CPJSUEIXXCENMM-UHFFFAOYSA-N

> <Salt_Solvent>


> <Salt_Solvent_ID>
0

> <Clint>
1.16790781000148

> <Tr_1_Tst_0>
1

$$$$
Row149
  Mrv171c012261910192D          

 13 13  0  0  0  0            999 V2000
    2.2719   -1.4320    0.0000 C   0  0  0  0  0  0  0  0  0  0  0  0
    2.9864   -1.0195    0.0000 C   0  0  0  0  0  0  0  0  0  0  0  0
    3.7008   -1.4320    0.0000 O   0  0  0  0  0  0  0  0  0  0  0  0
    2.9864   -0.1945    0.0000 O   0  0  0  0  0  0  0  0  0  0  0  0
    1.5574   -1.0195    0.0000 C   0  0  0  0  0  0  0  0  0  0  0  0
    1.5574   -0.1945    0.0000 Cl  0  0  0  0  0  0  0  0  0  0  0  0
    0.8429   -1.4320    0.0000 C   0  0  0  0  0  0  0  0  0  0  0  0
    0.1285   -1.0195    0.0000 N   0  0  0  0  0  0  0  0  0  0  0  0
    0.8429   -2.2570    0.0000 C   0  0  0  0  0  0  0  0  0  0  0  0
    0.1285   -2.6695    0.0000 Cl  0  0  0  0  0  0  0  0  0  0  0  0
    1.5574   -2.6695    0.0000 C   0  0  0  0  0  0  0  0  0  0  0  0
    1.5574   -3.4945    0.0000 Cl  0  0  0  0  0  0  0  0  0  0  0  0
    2.2719   -2.2570    0.0000 N   0  0  0  0  0  0  0  0  0  0  0  0
  1  2  1  0  0  0  0
  2  3  1  0  0  0  0
  2  4  2  0  0  0  0
  5  1  2  0  0  0  0
  5  6  1  0  0  0  0
  7  5  1  0  0  0  0
  7  8  1  0  0  0  0
  9  7  2  0  0  0  0
  9 10  1  0  0  0  0
 11  9  1  0  0  0  0
 11 12  1  0  0  0  0
 13 11  2  0  0  0  0
  1 13  1  0  0  0  0
M  END
> <ChemID>
10063

> <CAS>
1918-02-1

> <Original_SMILES>
Nc1c(Cl)c([n]c(Cl)c1Cl)C(O)=O

> <preferred_name>
Picloram

> <dsstox_substance_id>
DTXSID1021160

> <dsstox_compound_id>
DTXCID101160

> <Canonical_QSARr>
NC1C(Cl)=C(N=C(Cl)C=1Cl)C(O)=O

> <InChI_Code_QSARr>
InChI=1S/C6H3Cl3N2O2/c7-1-3(10)2(8)5(9)11-4(1)6(12)13/h(H2,10,11)(H,12,13)

> <InChI Key_QSARr>
NQQVFXUMIDALNH-UHFFFAOYSA-N

> <Salt_Solvent>


> <Salt_Solvent_ID>
0

> <Clint>
0.4927603890268375

> <Tr_1_Tst_0>
1

$$$$
Row391
  Mrv171c012261910192D          

 24 25  0  0  0  0            999 V2000
    3.5579   -4.9712    0.0000 C   0  0  0  0  0  0  0  0  0  0  0  0
    3.5579   -4.1462    0.0000 C   0  0  0  0  0  0  0  0  0  0  0  0
    4.2723   -3.7337    0.0000 C   0  0  0  0  0  0  0  0  0  0  0  0
    4.2723   -2.9087    0.0000 C   0  0  0  0  0  0  0  0  0  0  0  0
    4.9868   -2.4962    0.0000 C   0  0  0  0  0  0  0  0  0  0  0  0
    5.7013   -2.9087    0.0000 C   0  0  0  0  0  0  0  0  0  0  0  0
    6.4157   -2.4962    0.0000 O   0  0  0  0  0  0  0  0  0  0  0  0
    7.1302   -2.9087    0.0000 C   0  0  0  0  0  0  0  0  0  0  0  0
    7.8447   -2.4962    0.0000 C   0  0  0  0  0  0  0  0  0  0  0  0
    8.5592   -2.9087    0.0000 O   0  0  0  0  0  0  0  0  0  0  0  0
    9.2736   -2.4962    0.0000 C   0  0  0  0  0  0  0  0  0  0  0  0
    9.9881   -2.9087    0.0000 C   0  0  0  0  0  0  0  0  0  0  0  0
   10.7026   -2.4962    0.0000 O   0  0  0  0  0  0  0  0  0  0  0  0
   11.4170   -2.9087    0.0000 C   0  0  0  0  0  0  0  0  0  0  0  0
   12.1315   -2.4962    0.0000 C   0  0  0  0  0  0  0  0  0  0  0  0
   12.8460   -2.9087    0.0000 C   0  0  0  0  0  0  0  0  0  0  0  0
   13.5604   -2.4962    0.0000 C   0  0  0  0  0  0  0  0  0  0  0  0
    4.9868   -1.6712    0.0000 C   0  0  0  0  0  0  0  0  0  0  0  0
    4.2723   -1.2587    0.0000 C   0  0  0  0  0  0  0  0  0  0  0  0
    4.1008   -0.4517    0.0000 O   0  0  0  0  0  0  0  0  0  0  0  0
    3.2803   -0.3655    0.0000 C   0  0  0  0  0  0  0  0  0  0  0  0
    2.9448   -1.1192    0.0000 O   0  0  0  0  0  0  0  0  0  0  0  0
    3.5579   -1.6712    0.0000 C   0  0  0  0  0  0  0  0  0  0  0  0
    3.5579   -2.4962    0.0000 C   0  0  0  0  0  0  0  0  0  0  0  0
  1  2  1  0  0  0  0
  2  3  1  0  0  0  0
  3  4  1  0  0  0  0
  5  4  1  0  0  0  0
  5  6  1  0  0  0  0
  6  7  1  0  0  0  0
  7  8  1  0  0  0  0
  8  9  1  0  0  0  0
  9 10  1  0  0  0  0
 10 11  1  0  0  0  0
 11 12  1  0  0  0  0
 12 13  1  0  0  0  0
 13 14  1  0  0  0  0
 14 15  1  0  0  0  0
 15 16  1  0  0  0  0
 16 17  1  0  0  0  0
 18  5  2  0  0  0  0
 19 18  1  0  0  0  0
 19 20  1  0  0  0  0
 20 21  1  0  0  0  0
 21 22  1  0  0  0  0
 22 23  1  0  0  0  0
 23 19  2  0  0  0  0
 24 23  1  0  0  0  0
  4 24  2  0  0  0  0
M  END
> <ChemID>
10064

> <CAS>
51-03-6

> <Original_SMILES>
CCCc1cc2OCOc2cc1COCCOCCOCCCC

> <preferred_name>
Piperonyl butoxide

> <dsstox_substance_id>
DTXSID1021166

> <dsstox_compound_id>
DTXCID501166

> <Canonical_QSARr>
CCCC1=CC2OCOC=2C=C1COCCOCCOCCCC

> <InChI_Code_QSARr>
InChI=1S/C19H30O5/c1-3-5-7-20-8-9-21-10-11-22-14-17-13-19-18(23-15-24-19)12-16(17)6-4-2/h12-13H,3-11,14-15H2,1-2H3

> <InChI Key_QSARr>
FIPWRIJSWJWJAI-UHFFFAOYSA-N

> <Salt_Solvent>


> <Salt_Solvent_ID>
0

> <Clint>
1.8808707325324232

> <Tr_1_Tst_0>
1

$$$$
Row534
  Mrv171c012261910192D          

 10 11  0  0  0  0            999 V2000
    0.7153    0.0000    0.0000 N   0  0  0  0  0  0  0  0  0  0  0  0
    1.4297   -0.4125    0.0000 C   0  0  0  0  0  0  0  0  0  0  0  0
    2.1442    0.0000    0.0000 C   0  0  0  0  0  0  0  0  0  0  0  0
    2.8587   -0.4125    0.0000 C   0  0  0  0  0  0  0  0  0  0  0  0
    2.8587   -1.2375    0.0000 C   0  0  0  0  0  0  0  0  0  0  0  0
    2.1442   -1.6500    0.0000 C   0  0  0  0  0  0  0  0  0  0  0  0
    1.4297   -1.2375    0.0000 C   0  0  0  0  0  0  0  0  0  0  0  0
    0.7153   -1.6500    0.0000 C   0  0  0  0  0  0  0  0  0  0  0  0
    0.0008   -1.2375    0.0000 C   0  0  0  0  0  0  0  0  0  0  0  0
    0.0008   -0.4125    0.0000 C   0  0  0  0  0  0  0  0  0  0  0  0
  2  1  1  0  0  0  0
  2  3  1  0  0  0  0
  3  4  2  0  0  0  0
  4  5  1  0  0  0  0
  5  6  2  0  0  0  0
  6  7  1  0  0  0  0
  7  2  2  0  0  0  0
  8  7  1  0  0  0  0
  9  8  2  0  0  0  0
 10  9  1  0  0  0  0
  1 10  2  0  0  0  0
M  END
> <ChemID>
10065

> <CAS>
91-22-5

> <Original_SMILES>
c1cccc2[n]cccc21

> <preferred_name>
Quinoline

> <dsstox_substance_id>
DTXSID1021798

> <dsstox_compound_id>
DTXCID401798

> <Canonical_QSARr>
C1=CC=NC2C=CC=CC=21

> <InChI_Code_QSARr>
InChI=1S/C9H7N/c1-2-6-9-8(4-1)5-3-7-10-9/h1-7H

> <InChI Key_QSARr>
SMWDFEZZVXVKRB-UHFFFAOYSA-N

> <Salt_Solvent>


> <Salt_Solvent_ID>
0

> <Clint>
1.5865873046717547

> <Tr_1_Tst_0>
0

$$$$
Row335
  Mrv171c012261910192D          

 23 25  0  0  0  0            999 V2000
    4.6081   -3.9088    0.0000 C   0  0  0  0  0  0  0  0  0  0  0  0
    3.8936   -3.4963    0.0000 C   0  0  0  0  0  0  0  0  0  0  0  0
    3.8936   -2.6713    0.0000 O   0  0  0  0  0  0  0  0  0  0  0  0
    3.1792   -2.2588    0.0000 P   0  0  0  0  0  0  0  0  0  0  0  0
    2.4647   -1.8463    0.0000 O   0  0  0  0  0  0  0  0  0  0  0  0
    1.7502   -2.2588    0.0000 C   0  0  0  0  0  0  0  0  0  0  0  0
    1.0357   -1.8463    0.0000 C   0  0  0  0  0  0  0  0  0  0  0  0
    0.3213   -2.2588    0.0000 C   0  0  0  0  0  0  0  0  0  0  0  0
    0.3213   -3.0838    0.0000 C   0  0  0  0  0  0  0  0  0  0  0  0
    1.0357   -3.4963    0.0000 C   0  0  0  0  0  0  0  0  0  0  0  0
    1.7502   -3.0838    0.0000 C   0  0  0  0  0  0  0  0  0  0  0  0
    3.5917   -1.5443    0.0000 O   0  0  0  0  0  0  0  0  0  0  0  0
    3.1792   -0.8299    0.0000 C   0  0  0  0  0  0  0  0  0  0  0  0
    3.5917   -0.1154    0.0000 C   0  0  0  0  0  0  0  0  0  0  0  0
    3.1792    0.5991    0.0000 C   0  0  0  0  0  0  0  0  0  0  0  0
    2.3542    0.5991    0.0000 C   0  0  0  0  0  0  0  0  0  0  0  0
    1.9417   -0.1154    0.0000 C   0  0  0  0  0  0  0  0  0  0  0  0
    2.3542   -0.8299    0.0000 C   0  0  0  0  0  0  0  0  0  0  0  0
    2.7667   -2.9733    0.0000 O   0  0  0  0  0  0  0  0  0  0  0  0
    3.1792   -3.9088    0.0000 C   0  0  0  0  0  0  0  0  0  0  0  0
    3.1792   -4.7338    0.0000 C   0  0  0  0  0  0  0  0  0  0  0  0
    3.8936   -5.1463    0.0000 C   0  0  0  0  0  0  0  0  0  0  0  0
    4.6081   -4.7338    0.0000 C   0  0  0  0  0  0  0  0  0  0  0  0
  2  1  1  0  0  0  0
  2  3  1  0  0  0  0
  3  4  1  0  0  0  0
  4  5  1  0  0  0  0
  5  6  1  0  0  0  0
  7  6  1  0  0  0  0
  8  7  2  0  0  0  0
  9  8  1  0  0  0  0
 10  9  2  0  0  0  0
 11 10  1  0  0  0  0
  6 11  2  0  0  0  0
  4 12  1  0  0  0  0
 12 13  1  0  0  0  0
 14 13  1  0  0  0  0
 15 14  2  0  0  0  0
 16 15  1  0  0  0  0
 17 16  2  0  0  0  0
 18 17  1  0  0  0  0
 13 18  2  0  0  0  0
  4 19  2  0  0  0  0
 20  2  2  0  0  0  0
 21 20  1  0  0  0  0
 22 21  2  0  0  0  0
 23 22  1  0  0  0  0
  1 23  2  0  0  0  0
M  END
> <ChemID>
10066

> <CAS>
115-86-6

> <Original_SMILES>
O=P(Oc1ccccc1)(Oc1ccccc1)Oc1ccccc1

> <preferred_name>
Triphenyl phosphate

> <dsstox_substance_id>
DTXSID1021952

> <dsstox_compound_id>
DTXCID201952

> <Canonical_QSARr>
O=P(OC1C=CC=CC=1)(OC1C=CC=CC=1)OC1C=CC=CC=1

> <InChI_Code_QSARr>
InChI=1S/C18H15O4P/c19-23(20-16-10-4-1-5-11-16,21-17-12-6-2-7-13-17)22-18-14-8-3-9-15-18/h1-15H

> <InChI Key_QSARr>
XZZNDPSIHUTMOC-UHFFFAOYSA-N

> <Salt_Solvent>


> <Salt_Solvent_ID>
0

> <Clint>
1.4222614508136027

> <Tr_1_Tst_0>
1

$$$$
Row421
  Mrv171c012261910192D          

 28 28  0  0  0  0            999 V2000
    3.1301   -1.2221    0.0000 C   0  0  0  0  0  0  0  0  0  0  0  0
    3.1301   -0.3971    0.0000 C   0  0  0  0  0  0  0  0  0  0  0  0
    2.4157    0.0154    0.0000 C   0  0  0  0  0  0  0  0  0  0  0  0
    1.7012   -0.3971    0.0000 C   0  0  0  0  0  0  0  0  0  0  0  0
    1.7012   -1.2221    0.0000 C   0  0  0  0  0  0  0  0  0  0  0  0
    2.4157   -1.6346    0.0000 C   0  0  0  0  0  0  0  0  0  0  0  0
    2.4157   -2.4596    0.0000 C   0  0  0  0  0  0  0  0  0  0  0  0
    1.7012   -2.8721    0.0000 O   0  0  0  0  0  0  0  0  0  0  0  0
    1.7012   -3.6971    0.0000 C   0  0  0  0  0  0  0  0  0  0  0  0
    0.9867   -4.1096    0.0000 C   0  0  0  0  0  0  0  0  0  0  0  0
    0.9867   -4.9346    0.0000 C   0  0  0  0  0  0  0  0  0  0  0  0
    0.2722   -5.3471    0.0000 C   0  0  0  0  0  0  0  0  0  0  0  0
    0.2722   -6.1721    0.0000 C   0  0  0  0  0  0  0  0  0  0  0  0
   -0.4422   -6.5846    0.0000 C   0  0  0  0  0  0  0  0  0  0  0  0
   -0.4422   -7.4096    0.0000 C   0  0  0  0  0  0  0  0  0  0  0  0
   -1.1567   -7.8221    0.0000 C   0  0  0  0  0  0  0  0  0  0  0  0
    3.1301   -2.8721    0.0000 O   0  0  0  0  0  0  0  0  0  0  0  0
    3.8446   -1.6346    0.0000 C   0  0  0  0  0  0  0  0  0  0  0  0
    4.5591   -1.2221    0.0000 O   0  0  0  0  0  0  0  0  0  0  0  0
    5.2735   -1.6346    0.0000 C   0  0  0  0  0  0  0  0  0  0  0  0
    5.9880   -1.2221    0.0000 C   0  0  0  0  0  0  0  0  0  0  0  0
    6.7025   -1.6346    0.0000 C   0  0  0  0  0  0  0  0  0  0  0  0
    7.4169   -1.2221    0.0000 C   0  0  0  0  0  0  0  0  0  0  0  0
    8.1314   -1.6346    0.0000 C   0  0  0  0  0  0  0  0  0  0  0  0
    8.8459   -1.2221    0.0000 C   0  0  0  0  0  0  0  0  0  0  0  0
    9.5604   -1.6346    0.0000 C   0  0  0  0  0  0  0  0  0  0  0  0
   10.2748   -1.2221    0.0000 C   0  0  0  0  0  0  0  0  0  0  0  0
    3.8446   -2.4596    0.0000 O   0  0  0  0  0  0  0  0  0  0  0  0
  2  1  1  0  0  0  0
  3  2  2  0  0  0  0
  4  3  1  0  0  0  0
  5  4  2  0  0  0  0
  6  5  1  0  0  0  0
  1  6  2  0  0  0  0
  6  7  1  0  0  0  0
  7  8  1  0  0  0  0
  8  9  1  0  0  0  0
  9 10  1  0  0  0  0
 10 11  1  0  0  0  0
 11 12  1  0  0  0  0
 12 13  1  0  0  0  0
 13 14  1  0  0  0  0
 14 15  1  0  0  0  0
 15 16  1  0  0  0  0
  7 17  2  0  0  0  0
  1 18  1  0  0  0  0
 18 19  1  0  0  0  0
 19 20  1  0  0  0  0
 20 21  1  0  0  0  0
 21 22  1  0  0  0  0
 22 23  1  0  0  0  0
 23 24  1  0  0  0  0
 24 25  1  0  0  0  0
 25 26  1  0  0  0  0
 26 27  1  0  0  0  0
 18 28  2  0  0  0  0
M  END
> <ChemID>
10067

> <CAS>
117-84-0

> <Original_SMILES>
CCCCCCCCOC(=O)c1ccccc1C(=O)OCCCCCCCC

> <preferred_name>
Di-n-octyl phthalate

> <dsstox_substance_id>
DTXSID1021956

> <dsstox_compound_id>
DTXCID801956

> <Canonical_QSARr>
CCCCCCCCOC(=O)C1C=CC=CC=1C(=O)OCCCCCCCC

> <InChI_Code_QSARr>
InChI=1S/C24H38O4/c1-3-5-7-9-11-15-19-27-23(25)21-17-13-14-18-22(21)24(26)28-20-16-12-10-8-6-4-2/h13-14,17-18H,3-12,15-16,19-20H2,1-2H3

> <InChI Key_QSARr>
MQIUGAXCHLFZKX-UHFFFAOYSA-N

> <Salt_Solvent>


> <Salt_Solvent_ID>
0

> <Clint>
-7.0

> <Tr_1_Tst_0>
0

$$$$
Row428
  Mrv171c012261910192D          

 14 14  0  0  0  0            999 V2000
    3.4349   -1.3675    0.0000 O   0  0  0  0  0  0  0  0  0  0  0  0
    2.7205   -1.7800    0.0000 C   0  0  0  0  0  0  0  0  0  0  0  0
    2.0060   -1.3675    0.0000 C   0  0  0  0  0  0  0  0  0  0  0  0
    2.0060   -0.5425    0.0000 N   0  3  0  0  0  0  0  0  0  0  0  0
    1.2915   -0.1300    0.0000 O   0  0  0  0  0  0  0  0  0  0  0  0
    2.7205   -0.1300    0.0000 O   0  5  0  0  0  0  0  0  0  0  0  0
    1.2915   -1.7800    0.0000 C   0  0  0  0  0  0  0  0  0  0  0  0
    1.2915   -2.6050    0.0000 C   0  0  0  0  0  0  0  0  0  0  0  0
    0.5770   -3.0175    0.0000 N   0  3  0  0  0  0  0  0  0  0  0  0
    0.5770   -3.8425    0.0000 O   0  0  0  0  0  0  0  0  0  0  0  0
   -0.1374   -2.6050    0.0000 O   0  5  0  0  0  0  0  0  0  0  0  0
    2.0060   -3.0175    0.0000 C   0  0  0  0  0  0  0  0  0  0  0  0
    2.7205   -2.6050    0.0000 C   0  0  0  0  0  0  0  0  0  0  0  0
    3.4349   -3.0175    0.0000 C   0  0  0  0  0  0  0  0  0  0  0  0
  1  2  1  0  0  0  0
  3  2  1  0  0  0  0
  3  4  1  0  0  0  0
  4  5  2  0  0  0  0
  4  6  1  0  0  0  0
  7  3  2  0  0  0  0
  8  7  1  0  0  0  0
  8  9  1  0  0  0  0
  9 10  2  0  0  0  0
  9 11  1  0  0  0  0
 12  8  2  0  0  0  0
 13 12  1  0  0  0  0
  2 13  2  0  0  0  0
 13 14  1  0  0  0  0
M  CHG  4   4   1   6  -1   9   1  11  -1
M  END
> <ChemID>
10068

> <CAS>
534-52-1

> <Original_SMILES>
Cc1cc(cc(c1O)[N+]([O-])=O)[N+]([O-])=O

> <preferred_name>
2-Methyl-4,6-dinitrophenol

> <dsstox_substance_id>
DTXSID1022053

> <dsstox_compound_id>
DTXCID902053

> <Canonical_QSARr>
CC1C=C(C=C(C=1O)[N+]([O-])=O)[N+]([O-])=O

> <InChI_Code_QSARr>
InChI=1S/C7H6N2O5/c1-4-2-5(8(11)12)3-6(7(4)10)9(13)14/h2-3,10H,1H3

> <InChI Key_QSARr>
ZXVONLUNISGICL-UHFFFAOYSA-N

> <Salt_Solvent>


> <Salt_Solvent_ID>
0

> <Clint>
-7.0

> <Tr_1_Tst_0>
0

$$$$
Row387
  Mrv171c012261910192D          

 18 18  0  0  0  0            999 V2000
    1.7856   -1.1886    0.0000 C   0  0  0  0  0  0  0  0  0  0  0  0
    2.1981   -1.9031    0.0000 C   0  0  0  0  0  0  0  0  0  0  0  0
    1.7856   -2.6176    0.0000 N   0  0  0  0  0  0  0  0  0  0  0  0
    0.9606   -2.6176    0.0000 C   0  0  0  0  0  0  0  0  0  0  0  0
    0.5481   -3.3320    0.0000 C   0  0  0  0  0  0  0  0  0  0  0  0
   -0.2769   -3.3320    0.0000 Cl  0  0  0  0  0  0  0  0  0  0  0  0
    0.5481   -1.9031    0.0000 O   0  0  0  0  0  0  0  0  0  0  0  0
    2.1981   -3.3320    0.0000 C   0  0  0  0  0  0  0  0  0  0  0  0
    3.0231   -3.3320    0.0000 O   0  0  0  0  0  0  0  0  0  0  0  0
    3.4356   -4.0465    0.0000 C   0  0  0  0  0  0  0  0  0  0  0  0
    3.0231   -1.9031    0.0000 C   0  0  0  0  0  0  0  0  0  0  0  0
    3.4356   -2.6176    0.0000 C   0  0  0  0  0  0  0  0  0  0  0  0
    4.2606   -2.6176    0.0000 C   0  0  0  0  0  0  0  0  0  0  0  0
    3.4356   -1.1886    0.0000 C   0  0  0  0  0  0  0  0  0  0  0  0
    3.0231   -0.4742    0.0000 C   0  0  0  0  0  0  0  0  0  0  0  0
    2.1981   -0.4742    0.0000 C   0  0  0  0  0  0  0  0  0  0  0  0
    0.9606   -1.1886    0.0000 C   0  0  0  0  0  0  0  0  0  0  0  0
    0.5481   -0.4742    0.0000 C   0  0  0  0  0  0  0  0  0  0  0  0
  2  1  1  0  0  0  0
  2  3  1  0  0  0  0
  3  4  1  0  0  0  0
  4  5  1  0  0  0  0
  5  6  1  0  0  0  0
  4  7  2  0  0  0  0
  3  8  1  0  0  0  0
  8  9  1  0  0  0  0
  9 10  1  0  0  0  0
 11  2  2  0  0  0  0
 11 12  1  0  0  0  0
 12 13  1  0  0  0  0
 14 11  1  0  0  0  0
 15 14  2  0  0  0  0
 16 15  1  0  0  0  0
  1 16  2  0  0  0  0
  1 17  1  0  0  0  0
 17 18  1  0  0  0  0
M  END
> <ChemID>
10069

> <CAS>
15972-60-8

> <Original_SMILES>
COCN(C(=O)CCl)c1c(CC)cccc1CC

> <preferred_name>
Alachlor

> <dsstox_substance_id>
DTXSID1022265

> <dsstox_compound_id>
DTXCID402265

> <Canonical_QSARr>
COCN(C(=O)CCl)C1C(CC)=CC=CC=1CC

> <InChI_Code_QSARr>
InChI=1S/C14H20ClNO2/c1-4-11-7-6-8-12(5-2)14(11)16(10-18-3)13(17)9-15/h6-8H,4-5,9-10H2,1-3H3

> <InChI Key_QSARr>
XCSGPAVHZFQHGE-UHFFFAOYSA-N

> <Salt_Solvent>


> <Salt_Solvent_ID>
0

> <Clint>
1.7986506454452689

> <Tr_1_Tst_0>
1

$$$$
Row362
  Mrv171c012261910192D          

 43 49  0  0  0  0            999 V2000
    1.6650   -3.2300    0.0000 C   0  0  0  0  0  0  0  0  0  0  0  0
    0.9505   -3.6425    0.0000 C   0  0  0  0  0  0  0  0  0  0  0  0
    0.2360   -3.2300    0.0000 C   0  0  0  0  0  0  0  0  0  0  0  0
   -0.5486   -3.4849    0.0000 C   0  0  0  0  0  0  0  0  0  0  0  0
   -0.7201   -4.2919    0.0000 C   0  0  0  0  0  0  0  0  0  0  0  0
   -0.1070   -4.8439    0.0000 C   0  0  0  0  0  0  0  0  0  0  0  0
    0.6776   -4.5890    0.0000 C   0  0  0  0  0  0  0  0  0  0  0  0
   -1.0335   -2.8175    0.0000 N   0  0  0  0  0  0  0  0  0  0  0  0
   -0.5486   -2.1500    0.0000 C   0  0  0  0  0  0  0  0  0  0  0  0
   -0.8035   -1.3654    0.0000 Br  0  0  0  0  0  0  0  0  0  0  0  0
    0.2360   -2.4050    0.0000 C   0  0  0  0  0  0  0  0  0  0  0  0
    0.9505   -1.9925    0.0000 C   0  0  0  0  0  0  0  0  0  0  0  0
    1.6650   -2.4050    0.0000 C   0  0  0  0  0  0  0  0  0  0  0  0
    2.3794   -1.9925    0.0000 N   0  0  0  0  0  0  0  0  0  0  0  0
    2.3794   -1.1675    0.0000 C   0  0  0  0  0  0  0  0  0  0  0  0
    3.0939   -2.4050    0.0000 C   0  0  0  0  0  0  0  0  0  0  0  0
    3.0939   -3.2300    0.0000 C   0  0  0  0  0  0  0  0  0  0  0  0
    3.8084   -3.6425    0.0000 C   0  0  0  0  0  0  0  0  0  0  0  0
    3.8084   -4.4675    0.0000 O   0  0  0  0  0  0  0  0  0  0  0  0
    4.5228   -3.2300    0.0000 N   0  0  0  0  0  0  0  0  0  0  0  0
    5.2373   -3.6425    0.0000 C   0  0  0  0  0  0  0  0  0  0  0  0
    5.8504   -4.1945    0.0000 O   0  0  0  0  0  0  0  0  0  0  0  0
    6.5649   -3.7820    0.0000 C   0  0  0  0  0  0  0  0  0  0  0  0
    6.6511   -4.6025    0.0000 O   0  0  0  0  0  0  0  0  0  0  0  0
    7.3495   -4.0369    0.0000 C   0  0  0  0  0  0  0  0  0  0  0  0
    7.6851   -4.7906    0.0000 C   0  0  0  0  0  0  0  0  0  0  0  0
    8.5055   -4.7044    0.0000 C   0  0  0  0  0  0  0  0  0  0  0  0
    8.6771   -3.8974    0.0000 C   0  0  0  0  0  0  0  0  0  0  0  0
    7.9626   -3.4849    0.0000 N   0  0  0  0  0  0  0  0  0  0  0  0
    7.7911   -2.6779    0.0000 C   0  0  0  0  0  0  0  0  0  0  0  0
    8.4042   -2.1259    0.0000 O   0  0  0  0  0  0  0  0  0  0  0  0
    7.0065   -2.4230    0.0000 C   0  0  0  0  0  0  0  0  0  0  0  0
    6.8349   -1.6160    0.0000 C   0  0  0  0  0  0  0  0  0  0  0  0
    7.4480   -1.0640    0.0000 C   0  0  0  0  0  0  0  0  0  0  0  0
    7.2765   -0.2570    0.0000 C   0  0  0  0  0  0  0  0  0  0  0  0
    8.2326   -1.3189    0.0000 C   0  0  0  0  0  0  0  0  0  0  0  0
    6.3934   -2.9750    0.0000 N   0  0  0  0  0  0  0  0  0  0  0  0
    5.5729   -2.8888    0.0000 C   0  0  0  0  0  0  0  0  0  0  0  0
    5.1604   -2.1743    0.0000 O   0  0  0  0  0  0  0  0  0  0  0  0
    4.7524   -4.3099    0.0000 C   0  0  0  0  0  0  0  0  0  0  0  0
    4.0379   -4.7224    0.0000 C   0  0  0  0  0  0  0  0  0  0  0  0
    5.0880   -5.0636    0.0000 C   0  0  0  0  0  0  0  0  0  0  0  0
    2.3794   -3.6425    0.0000 C   0  0  0  0  0  0  0  0  0  0  0  0
  2  1  1  0  0  0  0
  2  3  2  0  0  0  0
  3  4  1  0  0  0  0
  4  5  2  0  0  0  0
  5  6  1  0  0  0  0
  6  7  2  0  0  0  0
  7  2  1  0  0  0  0
  4  8  1  0  0  0  0
  8  9  1  0  0  0  0
  9 10  1  0  0  0  0
  9 11  2  0  0  0  0
 11  3  1  0  0  0  0
 12 11  1  0  0  0  0
 13 12  1  0  0  0  0
 13  1  1  0  0  0  0
 14 13  1  0  0  0  0
 14 15  1  0  0  0  0
 16 14  1  0  0  0  0
 17 16  1  0  0  0  0
 17 18  1  0  0  0  0
 18 19  2  0  0  0  0
 18 20  1  0  0  0  0
 20 21  1  0  0  0  0
 22 21  1  0  0  0  0
 23 22  1  0  0  0  0
 23 24  1  0  0  0  0
 23 25  1  0  0  0  0
 26 25  1  0  0  0  0
 27 26  1  0  0  0  0
 28 27  1  0  0  0  0
 29 28  1  0  0  0  0
 25 29  1  0  0  0  0
 29 30  1  0  0  0  0
 30 31  2  0  0  0  0
 30 32  1  0  0  0  0
 32 33  1  0  0  0  0
 33 34  1  0  0  0  0
 34 35  1  0  0  0  0
 34 36  1  0  0  0  0
 32 37  1  0  0  0  0
 37 23  1  0  0  0  0
 38 37  1  0  0  0  0
 21 38  1  0  0  0  0
 38 39  2  0  0  0  0
 21 40  1  0  0  0  0
 40 41  1  0  0  0  0
 40 42  1  0  0  0  0
 43 17  1  0  0  0  0
  1 43  2  0  0  0  0
M  END
> <ChemID>
10070

> <CAS>
25614-03-3

> <Original_SMILES>
CN1C[C@@H](C=C2[C@H]1Cc1c(Br)[nH]c3cccc2c13)C(=O)N[C@@]1(O[C@@]2(O)[C@@H]3CCCN3C(=O)[C@H](CC(C)C)N2C1=O)C(C)C

> <preferred_name>
Bromocriptine

> <dsstox_substance_id>
DTXSID1022687

> <dsstox_compound_id>
DTXCID602687

> <Canonical_QSARr>
CN1CC(C=C2C1CC1=C(Br)NC3=CC=CC2=C13)C(=O)NC1(OC2(O)C3CCCN3C(=O)C(CC(C)C)N2C1=O)C(C)C

> <InChI_Code_QSARr>
InChI=1S/C32H40BrN5O5/c1-16(2)12-24-29(40)37-11-7-10-25(37)32(42)38(24)30(41)31(43-32,17(3)4)35-28(39)18-13-20-19-8-6-9-22-26(19)21(27(33)34-22)14-23(20)36(5)15-18/h6,8-9,13,16-18,23-25,34,42H,7,10-12,14-15H2,1-5H3,(H,35,39)

> <InChI Key_QSARr>
OZVBMTJYIDMWIL-UHFFFAOYSA-N

> <Salt_Solvent>


> <Salt_Solvent_ID>
0

> <Clint>
1.5682017240669948

> <Tr_1_Tst_0>
1

$$$$
Row271
  Mrv171c012261910192D          

 22 24  0  0  0  0            999 V2000
    3.9453   -2.7368    0.0000 N   0  0  0  0  0  0  0  0  0  0  0  0
    4.3032   -1.9935    0.0000 C   0  0  0  0  0  0  0  0  0  0  0  0
    3.9453   -1.2502    0.0000 C   0  0  0  0  0  0  0  0  0  0  0  0
    4.4597   -0.6052    0.0000 O   0  0  0  0  0  0  0  0  0  0  0  0
    3.1410   -1.0666    0.0000 N   0  0  0  0  0  0  0  0  0  0  0  0
    2.4960   -1.5810    0.0000 C   0  0  0  0  0  0  0  0  0  0  0  0
    1.7815   -1.1685    0.0000 C   0  0  0  0  0  0  0  0  0  0  0  0
    1.0670   -1.5810    0.0000 C   0  0  0  0  0  0  0  0  0  0  0  0
    1.0670   -2.4060    0.0000 C   0  0  0  0  0  0  0  0  0  0  0  0
    1.7815   -2.8185    0.0000 C   0  0  0  0  0  0  0  0  0  0  0  0
    2.4960   -2.4060    0.0000 C   0  0  0  0  0  0  0  0  0  0  0  0
    3.1410   -2.9204    0.0000 C   0  0  0  0  0  0  0  0  0  0  0  0
    2.9574   -3.7247    0.0000 C   0  0  0  0  0  0  0  0  0  0  0  0
    2.1690   -3.9678    0.0000 C   0  0  0  0  0  0  0  0  0  0  0  0
    1.5643   -3.4067    0.0000 Cl  0  0  0  0  0  0  0  0  0  0  0  0
    1.9855   -4.7722    0.0000 C   0  0  0  0  0  0  0  0  0  0  0  0
    2.5902   -5.3333    0.0000 C   0  0  0  0  0  0  0  0  0  0  0  0
    3.3786   -5.0901    0.0000 C   0  0  0  0  0  0  0  0  0  0  0  0
    3.5622   -4.2858    0.0000 C   0  0  0  0  0  0  0  0  0  0  0  0
    0.3526   -2.8185    0.0000 N   0  3  0  0  0  0  0  0  0  0  0  0
    0.3526   -3.6435    0.0000 O   0  0  0  0  0  0  0  0  0  0  0  0
   -0.3619   -2.4060    0.0000 O   0  5  0  0  0  0  0  0  0  0  0  0
  2  1  1  0  0  0  0
  3  2  1  0  0  0  0
  3  4  2  0  0  0  0
  5  3  1  0  0  0  0
  6  5  1  0  0  0  0
  6  7  1  0  0  0  0
  7  8  2  0  0  0  0
  8  9  1  0  0  0  0
  9 10  2  0  0  0  0
 10 11  1  0  0  0  0
 11  6  2  0  0  0  0
 12 11  1  0  0  0  0
  1 12  2  0  0  0  0
 12 13  1  0  0  0  0
 14 13  1  0  0  0  0
 14 15  1  0  0  0  0
 16 14  2  0  0  0  0
 17 16  1  0  0  0  0
 18 17  2  0  0  0  0
 19 18  1  0  0  0  0
 13 19  2  0  0  0  0
  9 20  1  0  0  0  0
 20 21  2  0  0  0  0
 20 22  1  0  0  0  0
M  CHG  2  20   1  22  -1
M  END
> <ChemID>
10071

> <CAS>
1622-61-3

> <Original_SMILES>
[O-][N+](=O)c1cc2C(=NCC(=O)Nc2cc1)c1ccccc1Cl

> <preferred_name>
Clonazepam

> <dsstox_substance_id>
DTXSID1022845

> <dsstox_compound_id>
DTXCID002845

> <Canonical_QSARr>
[O-][N+](=O)C1=CC2C(=NCC(=O)NC=2C=C1)C1=CC=CC=C1Cl

> <InChI_Code_QSARr>
InChI=1S/C15H10ClN3O3/c16-12-4-2-1-3-10(12)15-11-7-9(19(21)22)5-6-13(11)18-14(20)8-17-15/h1-7H,8H2,(H,18,20)

> <InChI Key_QSARr>
DGBIGWXXNGSACT-UHFFFAOYSA-N

> <Salt_Solvent>


> <Salt_Solvent_ID>
0

> <Clint>
1.1760912590556811

> <Tr_1_Tst_0>
1

$$$$
Row239
  Mrv171c012261910192D          

 25 26  0  0  0  0            999 V2000
    3.1568   -2.6637    0.0000 C   0  0  0  0  0  0  0  0  0  0  0  0
    3.1568   -3.4887    0.0000 C   0  0  0  0  0  0  0  0  0  0  0  0
    2.4424   -3.9012    0.0000 C   0  0  0  0  0  0  0  0  0  0  0  0
    2.4424   -4.7262    0.0000 C   0  0  0  0  0  0  0  0  0  0  0  0
    3.1568   -5.1387    0.0000 C   0  0  0  0  0  0  0  0  0  0  0  0
    3.8713   -4.7262    0.0000 C   0  0  0  0  0  0  0  0  0  0  0  0
    3.8713   -3.9012    0.0000 C   0  0  0  0  0  0  0  0  0  0  0  0
    3.9818   -2.6637    0.0000 C   0  0  0  0  0  0  0  0  0  0  0  0
    4.3943   -1.9492    0.0000 C   0  0  0  0  0  0  0  0  0  0  0  0
    5.2193   -1.9492    0.0000 C   0  0  0  0  0  0  0  0  0  0  0  0
    5.6318   -1.2347    0.0000 C   0  0  0  0  0  0  0  0  0  0  0  0
    5.2193   -0.5203    0.0000 C   0  0  0  0  0  0  0  0  0  0  0  0
    4.3943   -0.5203    0.0000 C   0  0  0  0  0  0  0  0  0  0  0  0
    3.9818   -1.2347    0.0000 C   0  0  0  0  0  0  0  0  0  0  0  0
    3.1568   -1.8387    0.0000 O   0  0  0  0  0  0  0  0  0  0  0  0
    2.4424   -1.4262    0.0000 C   0  0  0  0  0  0  0  0  0  0  0  0
    2.4424   -0.6012    0.0000 C   0  0  0  0  0  0  0  0  0  0  0  0
    1.7279   -0.1887    0.0000 C   0  0  0  0  0  0  0  0  0  0  0  0
    1.6354   -1.5977    0.0000 O   0  0  0  0  0  0  0  0  0  0  0  0
    2.3318   -2.6637    0.0000 C   0  0  0  0  0  0  0  0  0  0  0  0
    1.9193   -3.3782    0.0000 C   0  0  0  0  0  0  0  0  0  0  0  0
    1.9193   -1.9492    0.0000 C   0  0  0  0  0  0  0  0  0  0  0  0
    1.0943   -1.9492    0.0000 N   0  0  0  0  0  0  0  0  0  0  0  0
    0.6818   -1.2347    0.0000 C   0  0  0  0  0  0  0  0  0  0  0  0
    0.6818   -2.6637    0.0000 C   0  0  0  0  0  0  0  0  0  0  0  0
  1  2  1  0  0  0  0
  3  2  1  0  0  0  0
  4  3  2  0  0  0  0
  5  4  1  0  0  0  0
  6  5  2  0  0  0  0
  7  6  1  0  0  0  0
  2  7  2  0  0  0  0
  1  8  1  0  0  0  0
  8  9  1  0  0  0  0
 10  9  2  0  0  0  0
 11 10  1  0  0  0  0
 12 11  2  0  0  0  0
 13 12  1  0  0  0  0
 14 13  2  0  0  0  0
  9 14  1  0  0  0  0
  1 15  1  0  0  0  0
 15 16  1  0  0  0  0
 16 17  1  0  0  0  0
 17 18  1  0  0  0  0
 16 19  2  0  0  0  0
  1 20  1  0  0  0  0
 20 21  1  0  0  0  0
 20 22  1  0  0  0  0
 22 23  1  0  0  0  0
 23 24  1  0  0  0  0
 23 25  1  0  0  0  0
M  END
> <ChemID>
10072

> <CAS>
469-62-5

> <Original_SMILES>
CCC(=O)O[C@@](Cc1ccccc1)([C@H](C)CN(C)C)c1ccccc1

> <preferred_name>
Propoxyphene

> <dsstox_substance_id>
DTXSID1023524

> <dsstox_compound_id>
DTXCID503524

> <Canonical_QSARr>
CCC(=O)OC(CC1C=CC=CC=1)(C(C)CN(C)C)C1C=CC=CC=1

> <InChI_Code_QSARr>
InChI=1S/C22H29NO2/c1-5-21(24)25-22(18(2)17-23(3)4,20-14-10-7-11-15-20)16-19-12-8-6-9-13-19/h6-15,18H,5,16-17H2,1-4H3

> <InChI Key_QSARr>
XLMALTXPSGQGBX-UHFFFAOYSA-N

> <Salt_Solvent>


> <Salt_Solvent_ID>
0

> <Clint>
1.041392685158225

> <Tr_1_Tst_0>
1

$$$$
Row348
  Mrv171c012261910192D          

 15 15  0  0  0  0            999 V2000
    5.4413   -2.8859    0.0000 C   0  0  0  0  0  0  0  0  0  0  0  0
    4.7269   -2.4734    0.0000 C   0  0  0  0  0  0  0  0  0  0  0  0
    4.0124   -2.8859    0.0000 N   0  0  0  0  0  0  0  0  0  0  0  0
    3.2979   -2.4734    0.0000 C   0  0  0  0  0  0  0  0  0  0  0  0
    3.2979   -1.6484    0.0000 N   0  0  0  0  0  0  0  0  0  0  0  0
    2.5834   -1.2359    0.0000 C   0  0  0  0  0  0  0  0  0  0  0  0
    2.5834   -0.4109    0.0000 S   0  0  0  0  0  0  0  0  0  0  0  0
    1.8690    0.0016    0.0000 C   0  0  0  0  0  0  0  0  0  0  0  0
    1.8690   -1.6484    0.0000 N   0  0  0  0  0  0  0  0  0  0  0  0
    1.8690   -2.4734    0.0000 C   0  0  0  0  0  0  0  0  0  0  0  0
    1.1545   -2.8859    0.0000 N   0  0  0  0  0  0  0  0  0  0  0  0
    0.4400   -2.4734    0.0000 C   0  0  0  0  0  0  0  0  0  0  0  0
   -0.2744   -2.8859    0.0000 C   0  0  0  0  0  0  0  0  0  0  0  0
    2.5834   -2.8859    0.0000 N   0  0  0  0  0  0  0  0  0  0  0  0
    4.7269   -1.6484    0.0000 C   0  0  0  0  0  0  0  0  0  0  0  0
  1  2  1  0  0  0  0
  2  3  1  0  0  0  0
  3  4  1  0  0  0  0
  5  4  1  0  0  0  0
  6  5  2  0  0  0  0
  6  7  1  0  0  0  0
  7  8  1  0  0  0  0
  9  6  1  0  0  0  0
 10  9  2  0  0  0  0
 10 11  1  0  0  0  0
 11 12  1  0  0  0  0
 12 13  1  0  0  0  0
 14 10  1  0  0  0  0
  4 14  2  0  0  0  0
  2 15  1  0  0  0  0
M  END
> <ChemID>
10073

> <CAS>
834-12-8

> <Original_SMILES>
CCNc1[n]c(NC(C)C)[n]c([n]1)SC

> <preferred_name>
Ametryn

> <dsstox_substance_id>
DTXSID1023869

> <dsstox_compound_id>
DTXCID303869

> <Canonical_QSARr>
CCNC1N=C(NC(C)C)N=C(N=1)SC

> <InChI_Code_QSARr>
InChI=1S/C9H17N5S/c1-5-10-7-12-8(11-6(2)3)14-9(13-7)15-4/h6H,5H2,1-4H3,(H2,10,11,12,13,14)

> <InChI Key_QSARr>
RQVYBGPQFYCBGX-UHFFFAOYSA-N

> <Salt_Solvent>


> <Salt_Solvent_ID>
0

> <Clint>
1.4984484031739995

> <Tr_1_Tst_0>
1

$$$$
Row151
  Mrv171c012261910192D          

 16 16  0  0  0  0            999 V2000
    3.5819   -1.2985    0.0000 C   0  0  0  0  0  0  0  0  0  0  0  0
    4.2964   -1.7110    0.0000 N   0  0  0  0  0  0  0  0  0  0  0  0
    5.0108   -1.2985    0.0000 C   0  0  0  0  0  0  0  0  0  0  0  0
    4.5983   -0.5840    0.0000 C   0  0  0  0  0  0  0  0  0  0  0  0
    5.4233   -2.0130    0.0000 C   0  0  0  0  0  0  0  0  0  0  0  0
    5.7253   -0.8860    0.0000 C   0  0  0  0  0  0  0  0  0  0  0  0
    6.4398   -0.4735    0.0000 N   0  0  0  0  0  0  0  0  0  0  0  0
    3.5819   -0.4735    0.0000 N   0  0  0  0  0  0  0  0  0  0  0  0
    2.8674   -0.0610    0.0000 C   0  0  0  0  0  0  0  0  0  0  0  0
    2.8674    0.7640    0.0000 Cl  0  0  0  0  0  0  0  0  0  0  0  0
    2.1529   -0.4735    0.0000 N   0  0  0  0  0  0  0  0  0  0  0  0
    2.1529   -1.2985    0.0000 C   0  0  0  0  0  0  0  0  0  0  0  0
    1.4385   -1.7110    0.0000 N   0  0  0  0  0  0  0  0  0  0  0  0
    0.7240   -1.2985    0.0000 C   0  0  0  0  0  0  0  0  0  0  0  0
    0.0095   -1.7110    0.0000 C   0  0  0  0  0  0  0  0  0  0  0  0
    2.8674   -1.7110    0.0000 N   0  0  0  0  0  0  0  0  0  0  0  0
  1  2  1  0  0  0  0
  2  3  1  0  0  0  0
  3  4  1  0  0  0  0
  3  5  1  0  0  0  0
  3  6  1  0  0  0  0
  6  7  3  0  0  0  0
  8  1  2  0  0  0  0
  9  8  1  0  0  0  0
  9 10  1  0  0  0  0
 11  9  2  0  0  0  0
 12 11  1  0  0  0  0
 12 13  1  0  0  0  0
 13 14  1  0  0  0  0
 14 15  1  0  0  0  0
 16 12  2  0  0  0  0
  1 16  1  0  0  0  0
M  END
> <ChemID>
10074

> <CAS>
21725-46-2

> <Original_SMILES>
CCNc1[n]c(Cl)[n]c(NC(C)(C)C#N)[n]1

> <preferred_name>
Cyanazine

> <dsstox_substance_id>
DTXSID1023990

> <dsstox_compound_id>
DTXCID803990

> <Canonical_QSARr>
CCNC1N=C(Cl)N=C(NC(C)(C)C#N)N=1

> <InChI_Code_QSARr>
InChI=1S/C9H13ClN6/c1-4-12-7-13-6(10)14-8(15-7)16-9(2,3)5-11/h4H2,1-3H3,(H2,12,13,14,15,16)

> <InChI Key_QSARr>
MZZBPDKVEFVLFF-UHFFFAOYSA-N

> <Salt_Solvent>


> <Salt_Solvent_ID>
0

> <Clint>
0.4996870826184038

> <Tr_1_Tst_0>
1

$$$$
Row543
  Mrv171c012261910192D          

 12 11  0  0  0  0            999 V2000
    1.0218   -1.3728    0.0000 C   0  0  0  0  0  0  0  0  0  0  0  0
    0.6093   -2.0873    0.0000 S   0  0  0  0  0  0  0  0  0  0  0  0
   -0.2157   -2.0873    0.0000 C   0  0  0  0  0  0  0  0  0  0  0  0
   -0.6282   -2.8017    0.0000 C   0  0  0  0  0  0  0  0  0  0  0  0
    0.6093   -0.6583    0.0000 O   0  0  0  0  0  0  0  0  0  0  0  0
    1.8468   -1.3728    0.0000 N   0  0  0  0  0  0  0  0  0  0  0  0
    2.2593   -0.6583    0.0000 C   0  0  0  0  0  0  0  0  0  0  0  0
    3.0843   -0.6583    0.0000 C   0  0  0  0  0  0  0  0  0  0  0  0
    3.4968    0.0561    0.0000 C   0  0  0  0  0  0  0  0  0  0  0  0
    2.2593   -2.0873    0.0000 C   0  0  0  0  0  0  0  0  0  0  0  0
    3.0843   -2.0873    0.0000 C   0  0  0  0  0  0  0  0  0  0  0  0
    3.4968   -2.8017    0.0000 C   0  0  0  0  0  0  0  0  0  0  0  0
  1  2  1  0  0  0  0
  2  3  1  0  0  0  0
  3  4  1  0  0  0  0
  1  5  2  0  0  0  0
  1  6  1  0  0  0  0
  6  7  1  0  0  0  0
  7  8  1  0  0  0  0
  8  9  1  0  0  0  0
  6 10  1  0  0  0  0
 10 11  1  0  0  0  0
 11 12  1  0  0  0  0
M  END
> <ChemID>
10075

> <CAS>
759-94-4

> <Original_SMILES>
CCSC(=O)N(CCC)CCC

> <preferred_name>
EPTC

> <dsstox_substance_id>
DTXSID1024091

> <dsstox_compound_id>
DTXCID504091

> <Canonical_QSARr>
CCSC(=O)N(CCC)CCC

> <InChI_Code_QSARr>
InChI=1S/C9H19NOS/c1-4-7-10(8-5-2)9(11)12-6-3/h4-8H2,1-3H3

> <InChI Key_QSARr>
GUVLYNGULCJVDO-UHFFFAOYSA-N

> <Salt_Solvent>


> <Salt_Solvent_ID>
0

> <Clint>
1.9050399280762114

> <Tr_1_Tst_0>
0

$$$$
Row403
  Mrv171c012261910192D          

 17 16  0  0  0  0            999 V2000
    2.2004   -3.4566    0.0000 P   0  0  0  0  0  0  0  0  0  0  0  0
    2.2004   -4.2816    0.0000 O   0  0  0  0  0  0  0  0  0  0  0  0
    3.0254   -3.4566    0.0000 S   0  0  0  0  0  0  0  0  0  0  0  0
    3.4379   -4.1711    0.0000 C   0  0  0  0  0  0  0  0  0  0  0  0
    4.2629   -4.1711    0.0000 C   0  0  0  0  0  0  0  0  0  0  0  0
    4.6754   -4.8855    0.0000 C   0  0  0  0  0  0  0  0  0  0  0  0
    5.5004   -4.8855    0.0000 C   0  0  0  0  0  0  0  0  0  0  0  0
    1.3754   -3.4566    0.0000 S   0  0  0  0  0  0  0  0  0  0  0  0
    0.9629   -2.7421    0.0000 C   0  0  0  0  0  0  0  0  0  0  0  0
    0.1379   -2.7421    0.0000 C   0  0  0  0  0  0  0  0  0  0  0  0
   -0.2746   -2.0276    0.0000 C   0  0  0  0  0  0  0  0  0  0  0  0
   -1.0996   -2.0276    0.0000 C   0  0  0  0  0  0  0  0  0  0  0  0
    2.2004   -2.6316    0.0000 S   0  0  0  0  0  0  0  0  0  0  0  0
    2.9149   -2.2191    0.0000 C   0  0  0  0  0  0  0  0  0  0  0  0
    3.6294   -2.6316    0.0000 C   0  0  0  0  0  0  0  0  0  0  0  0
    4.3438   -2.2191    0.0000 C   0  0  0  0  0  0  0  0  0  0  0  0
    5.0583   -2.6316    0.0000 C   0  0  0  0  0  0  0  0  0  0  0  0
  1  2  2  0  0  0  0
  1  3  1  0  0  0  0
  3  4  1  0  0  0  0
  4  5  1  0  0  0  0
  5  6  1  0  0  0  0
  6  7  1  0  0  0  0
  1  8  1  0  0  0  0
  8  9  1  0  0  0  0
  9 10  1  0  0  0  0
 10 11  1  0  0  0  0
 11 12  1  0  0  0  0
  1 13  1  0  0  0  0
 13 14  1  0  0  0  0
 14 15  1  0  0  0  0
 15 16  1  0  0  0  0
 16 17  1  0  0  0  0
M  END
> <ChemID>
10076

> <CAS>
78-48-8

> <Original_SMILES>
CCCCSP(=O)(SCCCC)SCCCC

> <preferred_name>
Tribufos

> <dsstox_substance_id>
DTXSID1024174

> <dsstox_compound_id>
DTXCID304174

> <Canonical_QSARr>
CCCCSP(=O)(SCCCC)SCCCC

> <InChI_Code_QSARr>
InChI=1S/C12H27OPS3/c1-4-7-10-15-14(13,16-11-8-5-2)17-12-9-6-3/h4-12H2,1-3H3

> <InChI Key_QSARr>
ZOKXUAHZSKEQSS-UHFFFAOYSA-N

> <Salt_Solvent>


> <Salt_Solvent_ID>
0

> <Clint>
2.097222592519901

> <Tr_1_Tst_0>
1

$$$$
Row540
  Mrv171c012261910192D          

 21 22  0  0  0  0            999 V2000
    2.2905   -2.6123    0.0000 N   0  0  0  0  0  0  0  0  0  0  0  0
    2.0355   -1.8277    0.0000 C   0  0  0  0  0  0  0  0  0  0  0  0
    1.2286   -1.6562    0.0000 S   0  0  0  0  0  0  0  0  0  0  0  0
    0.9736   -0.8715    0.0000 P   0  0  0  0  0  0  0  0  0  0  0  0
    0.7187   -0.0869    0.0000 O   0  0  0  0  0  0  0  0  0  0  0  0
    1.2707    0.5262    0.0000 C   0  0  0  0  0  0  0  0  0  0  0  0
    2.0777    0.3546    0.0000 C   0  0  0  0  0  0  0  0  0  0  0  0
    0.1890   -1.1265    0.0000 O   0  0  0  0  0  0  0  0  0  0  0  0
   -0.4241   -0.5744    0.0000 C   0  0  0  0  0  0  0  0  0  0  0  0
   -0.2526    0.2325    0.0000 C   0  0  0  0  0  0  0  0  0  0  0  0
    1.7582   -0.6166    0.0000 S   0  0  0  0  0  0  0  0  0  0  0  0
    3.0751   -2.8672    0.0000 C   0  0  0  0  0  0  0  0  0  0  0  0
    3.7896   -2.4547    0.0000 C   0  0  0  0  0  0  0  0  0  0  0  0
    4.5040   -2.8672    0.0000 C   0  0  0  0  0  0  0  0  0  0  0  0
    4.5040   -3.6922    0.0000 C   0  0  0  0  0  0  0  0  0  0  0  0
    5.2185   -4.1047    0.0000 Cl  0  0  0  0  0  0  0  0  0  0  0  0
    3.7896   -4.1047    0.0000 C   0  0  0  0  0  0  0  0  0  0  0  0
    3.0751   -3.6922    0.0000 C   0  0  0  0  0  0  0  0  0  0  0  0
    2.2905   -3.9472    0.0000 O   0  0  0  0  0  0  0  0  0  0  0  0
    1.8055   -3.2797    0.0000 C   0  0  0  0  0  0  0  0  0  0  0  0
    0.9805   -3.2797    0.0000 O   0  0  0  0  0  0  0  0  0  0  0  0
  1  2  1  0  0  0  0
  2  3  1  0  0  0  0
  3  4  1  0  0  0  0
  4  5  1  0  0  0  0
  5  6  1  0  0  0  0
  6  7  1  0  0  0  0
  4  8  1  0  0  0  0
  8  9  1  0  0  0  0
  9 10  1  0  0  0  0
  4 11  2  0  0  0  0
 12  1  1  0  0  0  0
 12 13  2  0  0  0  0
 13 14  1  0  0  0  0
 14 15  2  0  0  0  0
 15 16  1  0  0  0  0
 15 17  1  0  0  0  0
 17 18  2  0  0  0  0
 18 12  1  0  0  0  0
 19 18  1  0  0  0  0
 20 19  1  0  0  0  0
  1 20  1  0  0  0  0
 20 21  2  0  0  0  0
M  END
> <ChemID>
10077

> <CAS>
2310-17-0

> <Original_SMILES>
CCOP(=S)(OCC)SCN1C(=O)Oc2cc(Cl)ccc12

> <preferred_name>
Phosalone

> <dsstox_substance_id>
DTXSID1024259

> <dsstox_compound_id>
DTXCID904259

> <Canonical_QSARr>
CCOP(=S)(OCC)SCN1C(=O)OC2=CC(Cl)=CC=C12

> <InChI_Code_QSARr>
InChI=1S/C12H15ClNO4PS2/c1-3-16-19(20,17-4-2)21-8-14-10-6-5-9(13)7-11(10)18-12(14)15/h5-7H,3-4,8H2,1-2H3

> <InChI Key_QSARr>
IOUNQDKNJZEDEP-UHFFFAOYSA-N

> <Salt_Solvent>


> <Salt_Solvent_ID>
0

> <Clint>
1.7483431044875493

> <Tr_1_Tst_0>
0

$$$$
Row134
  Mrv171c012261910192D          

 22 22  0  0  0  0            999 V2000
    4.2149   -0.8335    0.0000 C   0  0  0  0  0  0  0  0  0  0  0  0
    4.2149   -0.0085    0.0000 S   0  0  0  0  0  0  0  0  0  0  0  0
    3.5005   -1.2460    0.0000 N   0  0  0  0  0  0  0  0  0  0  0  0
    2.7860   -0.8335    0.0000 C   0  0  0  0  0  0  0  0  0  0  0  0
    2.7860   -0.0085    0.0000 C   0  0  0  0  0  0  0  0  0  0  0  0
    2.0715    0.4040    0.0000 C   0  0  0  0  0  0  0  0  0  0  0  0
    1.3571   -0.0085    0.0000 C   0  0  0  0  0  0  0  0  0  0  0  0
    1.3571   -0.8335    0.0000 C   0  0  0  0  0  0  0  0  0  0  0  0
    2.0715   -1.2460    0.0000 C   0  0  0  0  0  0  0  0  0  0  0  0
    2.0715   -2.0710    0.0000 N   0  0  0  0  0  0  0  0  0  0  0  0
    1.3571   -2.4835    0.0000 C   0  0  0  0  0  0  0  0  0  0  0  0
    0.6426   -2.0710    0.0000 S   0  0  0  0  0  0  0  0  0  0  0  0
    1.3571   -3.3085    0.0000 N   0  0  0  0  0  0  0  0  0  0  0  0
    0.6426   -3.7210    0.0000 C   0  0  0  0  0  0  0  0  0  0  0  0
    0.6426   -4.5460    0.0000 O   0  0  0  0  0  0  0  0  0  0  0  0
   -0.0719   -4.9585    0.0000 C   0  0  0  0  0  0  0  0  0  0  0  0
   -0.0719   -3.3085    0.0000 O   0  0  0  0  0  0  0  0  0  0  0  0
    4.9294   -1.2460    0.0000 N   0  0  0  0  0  0  0  0  0  0  0  0
    5.6439   -0.8335    0.0000 C   0  0  0  0  0  0  0  0  0  0  0  0
    6.3584   -1.2460    0.0000 O   0  0  0  0  0  0  0  0  0  0  0  0
    7.0728   -0.8335    0.0000 C   0  0  0  0  0  0  0  0  0  0  0  0
    5.6439   -0.0085    0.0000 O   0  0  0  0  0  0  0  0  0  0  0  0
  1  2  2  0  0  0  0
  1  3  1  0  0  0  0
  3  4  1  0  0  0  0
  5  4  1  0  0  0  0
  6  5  2  0  0  0  0
  7  6  1  0  0  0  0
  8  7  2  0  0  0  0
  9  8  1  0  0  0  0
  4  9  2  0  0  0  0
  9 10  1  0  0  0  0
 10 11  1  0  0  0  0
 11 12  2  0  0  0  0
 11 13  1  0  0  0  0
 13 14  1  0  0  0  0
 14 15  1  0  0  0  0
 15 16  1  0  0  0  0
 14 17  2  0  0  0  0
  1 18  1  0  0  0  0
 18 19  1  0  0  0  0
 19 20  1  0  0  0  0
 20 21  1  0  0  0  0
 19 22  2  0  0  0  0
M  END
> <ChemID>
10078

> <CAS>
23564-05-8

> <Original_SMILES>
COC(=O)NC(=S)Nc1ccccc1NC(=S)NC(=O)OC

> <preferred_name>
Thiophanate-methyl

> <dsstox_substance_id>
DTXSID1024338

> <dsstox_compound_id>
DTXCID104338

> <Canonical_QSARr>
COC(=O)NC(=S)NC1C=CC=CC=1NC(=S)NC(=O)OC

> <InChI_Code_QSARr>
InChI=1S/C12H14N4O4S2/c1-19-11(17)15-9(21)13-7-5-3-4-6-8(7)14-10(22)16-12(18)20-2/h3-6H,1-2H3,(H2,13,15,17,21)(H2,14,16,18,22)

> <InChI Key_QSARr>
QGHREAKMXXNCOA-UHFFFAOYSA-N

> <Salt_Solvent>


> <Salt_Solvent_ID>
0

> <Clint>
0.3926969532596657

> <Tr_1_Tst_0>
1

$$$$
Row496
  Mrv171c012261910192D          

 14 14  0  0  0  0            999 V2000
    1.6708   -2.1347    0.0000 O   0  0  0  0  0  0  0  0  0  0  0  0
    1.8424   -1.3277    0.0000 C   0  0  0  0  0  0  0  0  0  0  0  0
    2.5960   -0.9921    0.0000 N   0  0  0  0  0  0  0  0  0  0  0  0
    3.3105   -1.4046    0.0000 C   0  0  0  0  0  0  0  0  0  0  0  0
    4.0250   -0.9921    0.0000 C   0  0  0  0  0  0  0  0  0  0  0  0
    4.7395   -1.4046    0.0000 C   0  0  0  0  0  0  0  0  0  0  0  0
    5.4539   -0.9921    0.0000 C   0  0  0  0  0  0  0  0  0  0  0  0
    6.1684   -1.4046    0.0000 C   0  0  0  0  0  0  0  0  0  0  0  0
    6.8829   -0.9921    0.0000 C   0  0  0  0  0  0  0  0  0  0  0  0
    7.5973   -1.4046    0.0000 C   0  0  0  0  0  0  0  0  0  0  0  0
    8.3118   -0.9921    0.0000 C   0  0  0  0  0  0  0  0  0  0  0  0
    2.5098   -0.1717    0.0000 S   0  0  0  0  0  0  0  0  0  0  0  0
    1.7028   -0.0001    0.0000 C   0  0  0  0  0  0  0  0  0  0  0  0
    1.2903   -0.7146    0.0000 C   0  0  0  0  0  0  0  0  0  0  0  0
  1  2  2  0  0  0  0
  3  2  1  0  0  0  0
  3  4  1  0  0  0  0
  4  5  1  0  0  0  0
  5  6  1  0  0  0  0
  6  7  1  0  0  0  0
  7  8  1  0  0  0  0
  8  9  1  0  0  0  0
  9 10  1  0  0  0  0
 10 11  1  0  0  0  0
 12  3  1  0  0  0  0
 13 12  1  0  0  0  0
 14 13  2  0  0  0  0
  2 14  1  0  0  0  0
M  END
> <ChemID>
10079

> <CAS>
26530-20-1

> <Original_SMILES>
CCCCCCCCN1SC=CC1=O

> <preferred_name>
Octhilinone

> <dsstox_substance_id>
DTXSID1025805

> <dsstox_compound_id>
DTXCID105805

> <Canonical_QSARr>
CCCCCCCCN1SC=CC1=O

> <InChI_Code_QSARr>
InChI=1S/C11H19NOS/c1-2-3-4-5-6-7-9-12-11(13)8-10-14-12/h8,10H,2-7,9H2,1H3

> <InChI Key_QSARr>
JPMIIZHYYWMHDT-UHFFFAOYSA-N

> <Salt_Solvent>


> <Salt_Solvent_ID>
0

> <Clint>
1.1045553912405135

> <Tr_1_Tst_0>
0

$$$$
Row147
  Mrv171c012261910192D          

 16 17  0  0  0  0            999 V2000
    1.9133   -1.2674    0.0000 N   0  0  0  0  0  0  0  0  0  0  0  0
    1.4284   -1.9349    0.0000 C   0  0  0  0  0  0  0  0  0  0  0  0
    1.7639   -2.6885    0.0000 C   0  0  0  0  0  0  0  0  0  0  0  0
    1.2790   -3.3560    0.0000 C   0  0  0  0  0  0  0  0  0  0  0  0
    1.6145   -4.1097    0.0000 C   0  0  0  0  0  0  0  0  0  0  0  0
    2.4350   -4.1959    0.0000 C   0  0  0  0  0  0  0  0  0  0  0  0
    2.9200   -3.5284    0.0000 C   0  0  0  0  0  0  0  0  0  0  0  0
    2.5844   -2.7748    0.0000 C   0  0  0  0  0  0  0  0  0  0  0  0
    3.0693   -2.1073    0.0000 Cl  0  0  0  0  0  0  0  0  0  0  0  0
    2.7383   -1.2674    0.0000 O   0  0  0  0  0  0  0  0  0  0  0  0
    2.9932   -0.4828    0.0000 C   0  0  0  0  0  0  0  0  0  0  0  0
    2.3258    0.0021    0.0000 C   0  0  0  0  0  0  0  0  0  0  0  0
    2.8778    0.6152    0.0000 C   0  0  0  0  0  0  0  0  0  0  0  0
    1.7737    0.6152    0.0000 C   0  0  0  0  0  0  0  0  0  0  0  0
    1.6583   -0.4828    0.0000 C   0  0  0  0  0  0  0  0  0  0  0  0
    0.8737   -0.2279    0.0000 O   0  0  0  0  0  0  0  0  0  0  0  0
  1  2  1  0  0  0  0
  2  3  1  0  0  0  0
  4  3  1  0  0  0  0
  5  4  2  0  0  0  0
  6  5  1  0  0  0  0
  7  6  2  0  0  0  0
  8  7  1  0  0  0  0
  3  8  2  0  0  0  0
  8  9  1  0  0  0  0
 10  1  1  0  0  0  0
 11 10  1  0  0  0  0
 12 11  1  0  0  0  0
 12 13  1  0  0  0  0
 12 14  1  0  0  0  0
 15 12  1  0  0  0  0
  1 15  1  0  0  0  0
 15 16  2  0  0  0  0
M  END
> <ChemID>
10080

> <CAS>
81777-89-1

> <Original_SMILES>
CC1(C)CON(Cc2ccccc2Cl)C1=O

> <preferred_name>
Clomazone

> <dsstox_substance_id>
DTXSID1032355

> <dsstox_compound_id>
DTXCID9012355

> <Canonical_QSARr>
CC1(C)CON(CC2C=CC=CC=2Cl)C1=O

> <InChI_Code_QSARr>
InChI=1S/C12H14ClNO2/c1-12(2)8-16-14(11(12)15)7-9-5-3-4-6-10(9)13/h3-6H,7-8H2,1-2H3

> <InChI Key_QSARr>
KIEDNEWSYUYDSN-UHFFFAOYSA-N

> <Salt_Solvent>


> <Salt_Solvent_ID>
0

> <Clint>
0.48287358360875365

> <Tr_1_Tst_0>
1

$$$$
Row364
  Mrv171c012261910192D          

 17 19  0  0  0  0            999 V2000
    3.3309   -2.8282    0.0000 C   0  0  0  0  0  0  0  0  0  0  0  0
    4.0453   -2.4157    0.0000 C   0  0  0  0  0  0  0  0  0  0  0  0
    4.0453   -1.5907    0.0000 C   0  0  0  0  0  0  0  0  0  0  0  0
    4.7598   -1.1782    0.0000 C   0  0  0  0  0  0  0  0  0  0  0  0
    3.3309   -1.1782    0.0000 N   0  0  0  0  0  0  0  0  0  0  0  0
    2.6164   -1.5907    0.0000 C   0  0  0  0  0  0  0  0  0  0  0  0
    1.9019   -1.1782    0.0000 N   0  0  0  0  0  0  0  0  0  0  0  0
    1.9019   -0.3532    0.0000 C   0  0  0  0  0  0  0  0  0  0  0  0
    2.6164    0.0593    0.0000 C   0  0  0  0  0  0  0  0  0  0  0  0
    2.6164    0.8843    0.0000 C   0  0  0  0  0  0  0  0  0  0  0  0
    1.9019    1.2968    0.0000 C   0  0  0  0  0  0  0  0  0  0  0  0
    1.1874    0.8843    0.0000 C   0  0  0  0  0  0  0  0  0  0  0  0
    1.1874    0.0593    0.0000 C   0  0  0  0  0  0  0  0  0  0  0  0
    2.6164   -2.4157    0.0000 N   0  0  0  0  0  0  0  0  0  0  0  0
    3.3309   -3.6532    0.0000 C   0  0  0  0  0  0  0  0  0  0  0  0
    2.9184   -4.3677    0.0000 C   0  0  0  0  0  0  0  0  0  0  0  0
    3.7434   -4.3677    0.0000 C   0  0  0  0  0  0  0  0  0  0  0  0
  2  1  2  0  0  0  0
  3  2  1  0  0  0  0
  3  4  1  0  0  0  0
  5  3  2  0  0  0  0
  6  5  1  0  0  0  0
  6  7  1  0  0  0  0
  7  8  1  0  0  0  0
  9  8  2  0  0  0  0
 10  9  1  0  0  0  0
 11 10  2  0  0  0  0
 12 11  1  0  0  0  0
 13 12  2  0  0  0  0
  8 13  1  0  0  0  0
 14  6  2  0  0  0  0
  1 14  1  0  0  0  0
  1 15  1  0  0  0  0
 16 15  1  0  0  0  0
 17 16  1  0  0  0  0
 15 17  1  0  0  0  0
M  END
> <ChemID>
10081

> <CAS>
121552-61-2

> <Original_SMILES>
Cc1cc([n]c(Nc2ccccc2)[n]1)C1CC1

> <preferred_name>
Cyprodinil

> <dsstox_substance_id>
DTXSID1032359

> <dsstox_compound_id>
DTXCID9012359

> <Canonical_QSARr>
CC1C=C(N=C(NC2C=CC=CC=2)N=1)C1CC1

> <InChI_Code_QSARr>
InChI=1S/C14H15N3/c1-10-9-13(11-7-8-11)17-14(15-10)16-12-5-3-2-4-6-12/h2-6,9,11H,7-8H2,1H3,(H,15,16,17)

> <InChI Key_QSARr>
HAORKNGNJCEJBX-UHFFFAOYSA-N

> <Salt_Solvent>


> <Salt_Solvent_ID>
0

> <Clint>
1.5771469848275248

> <Tr_1_Tst_0>
1

$$$$
Row321
  Mrv171c012261910192D          

 20 20  0  0  0  0            999 V2000
    3.0683   -3.1552    0.0000 P   0  0  0  0  0  0  0  0  0  0  0  0
    2.3538   -2.7427    0.0000 O   0  0  0  0  0  0  0  0  0  0  0  0
    2.3538   -1.9177    0.0000 C   0  0  0  0  0  0  0  0  0  0  0  0
    3.0683   -1.5052    0.0000 C   0  0  0  0  0  0  0  0  0  0  0  0
    3.0683   -0.6802    0.0000 N   0  0  0  0  0  0  0  0  0  0  0  0
    2.3538   -0.2677    0.0000 C   0  0  0  0  0  0  0  0  0  0  0  0
    2.3538    0.5573    0.0000 C   0  0  0  0  0  0  0  0  0  0  0  0
    2.3538    1.3823    0.0000 C   0  0  0  0  0  0  0  0  0  0  0  0
    1.5288    0.5573    0.0000 C   0  0  0  0  0  0  0  0  0  0  0  0
    3.1788    0.5573    0.0000 C   0  0  0  0  0  0  0  0  0  0  0  0
    1.6393   -0.6802    0.0000 N   0  0  0  0  0  0  0  0  0  0  0  0
    1.6393   -1.5052    0.0000 C   0  0  0  0  0  0  0  0  0  0  0  0
    3.7827   -3.5677    0.0000 O   0  0  0  0  0  0  0  0  0  0  0  0
    3.7827   -4.3927    0.0000 C   0  0  0  0  0  0  0  0  0  0  0  0
    4.4972   -4.8052    0.0000 C   0  0  0  0  0  0  0  0  0  0  0  0
    2.6558   -3.8696    0.0000 S   0  0  0  0  0  0  0  0  0  0  0  0
    3.4808   -2.4407    0.0000 O   0  0  0  0  0  0  0  0  0  0  0  0
    4.3058   -2.4407    0.0000 C   0  0  0  0  0  0  0  0  0  0  0  0
    4.7183   -3.1552    0.0000 C   0  0  0  0  0  0  0  0  0  0  0  0
    4.7183   -1.7262    0.0000 C   0  0  0  0  0  0  0  0  0  0  0  0
  1  2  1  0  0  0  0
  2  3  1  0  0  0  0
  4  3  2  0  0  0  0
  5  4  1  0  0  0  0
  6  5  2  0  0  0  0
  6  7  1  0  0  0  0
  7  8  1  0  0  0  0
  7  9  1  0  0  0  0
  7 10  1  0  0  0  0
 11  6  1  0  0  0  0
 12 11  2  0  0  0  0
  3 12  1  0  0  0  0
  1 13  1  0  0  0  0
 13 14  1  0  0  0  0
 14 15  1  0  0  0  0
  1 16  2  0  0  0  0
  1 17  1  0  0  0  0
 17 18  1  0  0  0  0
 18 19  1  0  0  0  0
 18 20  1  0  0  0  0
M  END
> <ChemID>
10082

> <CAS>
96182-53-5

> <Original_SMILES>
CCOP(=S)(Oc1c[n]c([n]c1)C(C)(C)C)OC(C)C

> <preferred_name>
Tebupirimfos

> <dsstox_substance_id>
DTXSID1032482

> <dsstox_compound_id>
DTXCID9012482

> <Canonical_QSARr>
CCOP(=S)(OC(C)C)OC1=CN=C(N=C1)C(C)(C)C

> <InChI_Code_QSARr>
InChI=1S/C13H23N2O3PS/c1-7-16-19(20,17-10(2)3)18-11-8-14-12(15-9-11)13(4,5)6/h8-10H,7H2,1-6H3

> <InChI Key_QSARr>
AWYOMXWDGWUJHS-UHFFFAOYSA-N

> <Salt_Solvent>


> <Salt_Solvent_ID>
0

> <Clint>
1.3548764225162337

> <Tr_1_Tst_0>
1

$$$$
Row371
  Mrv171c012261910192D          

 26 27  0  0  0  0            999 V2000
    3.2786   -1.9390    0.0000 N   0  0  0  0  0  0  0  0  0  0  0  0
    2.5641   -1.5265    0.0000 C   0  0  0  0  0  0  0  0  0  0  0  0
    2.5641   -0.7015    0.0000 C   0  0  0  0  0  0  0  0  0  0  0  0
    1.8496   -0.2890    0.0000 F   0  0  0  0  0  0  0  0  0  0  0  0
    3.2786   -0.2890    0.0000 F   0  0  0  0  0  0  0  0  0  0  0  0
    1.8496   -1.9390    0.0000 C   0  0  0  0  0  0  0  0  0  0  0  0
    1.1351   -1.5265    0.0000 C   0  0  0  0  0  0  0  0  0  0  0  0
    1.1351   -0.7015    0.0000 O   0  0  0  0  0  0  0  0  0  0  0  0
    0.4207   -0.2890    0.0000 C   0  0  0  0  0  0  0  0  0  0  0  0
    0.4207   -1.9390    0.0000 O   0  0  0  0  0  0  0  0  0  0  0  0
    1.8496   -2.7640    0.0000 C   0  0  0  0  0  0  0  0  0  0  0  0
    1.1351   -3.1765    0.0000 C   0  0  0  0  0  0  0  0  0  0  0  0
    0.4207   -2.7640    0.0000 C   0  0  0  0  0  0  0  0  0  0  0  0
   -0.2938   -3.1765    0.0000 C   0  0  0  0  0  0  0  0  0  0  0  0
   -0.0642   -2.0966    0.0000 C   0  0  0  0  0  0  0  0  0  0  0  0
    2.5641   -3.1765    0.0000 C   0  0  0  0  0  0  0  0  0  0  0  0
    2.5641   -4.0015    0.0000 C   0  0  0  0  0  0  0  0  0  0  0  0
    3.2315   -4.4864    0.0000 S   0  0  0  0  0  0  0  0  0  0  0  0
    2.9766   -5.2710    0.0000 C   0  0  0  0  0  0  0  0  0  0  0  0
    2.1516   -5.2710    0.0000 C   0  0  0  0  0  0  0  0  0  0  0  0
    1.8967   -4.4864    0.0000 N   0  0  0  0  0  0  0  0  0  0  0  0
    3.2786   -2.7640    0.0000 C   0  0  0  0  0  0  0  0  0  0  0  0
    3.9930   -3.1765    0.0000 C   0  0  0  0  0  0  0  0  0  0  0  0
    4.7075   -3.5890    0.0000 F   0  0  0  0  0  0  0  0  0  0  0  0
    4.4055   -2.4620    0.0000 F   0  0  0  0  0  0  0  0  0  0  0  0
    3.5805   -3.8910    0.0000 F   0  0  0  0  0  0  0  0  0  0  0  0
  2  1  2  0  0  0  0
  2  3  1  0  0  0  0
  3  4  1  0  0  0  0
  3  5  1  0  0  0  0
  6  2  1  0  0  0  0
  6  7  1  0  0  0  0
  7  8  1  0  0  0  0
  8  9  1  0  0  0  0
  7 10  2  0  0  0  0
 11  6  2  0  0  0  0
 11 12  1  0  0  0  0
 12 13  1  0  0  0  0
 13 14  1  0  0  0  0
 13 15  1  0  0  0  0
 16 11  1  0  0  0  0
 16 17  1  0  0  0  0
 18 17  1  0  0  0  0
 19 18  1  0  0  0  0
 20 19  1  0  0  0  0
 21 20  1  0  0  0  0
 17 21  2  0  0  0  0
 22 16  2  0  0  0  0
  1 22  1  0  0  0  0
 22 23  1  0  0  0  0
 23 24  1  0  0  0  0
 23 25  1  0  0  0  0
 23 26  1  0  0  0  0
M  END
> <ChemID>
10083

> <CAS>
117718-60-2

> <Original_SMILES>
CC(C)Cc1c(C2=NCCS2)c([n]c(C(F)F)c1C(=O)OC)C(F)(F)F

> <preferred_name>
Thiazopyr

> <dsstox_substance_id>
DTXSID1032488

> <dsstox_compound_id>
DTXCID9012488

> <Canonical_QSARr>
CC(C)CC1=C(C(=O)OC)C(=NC(=C1C1=NCCS1)C(F)(F)F)C(F)F

> <InChI_Code_QSARr>
InChI=1S/C16H17F5N2O2S/c1-7(2)6-8-9(15(24)25-3)11(13(17)18)23-12(16(19,20)21)10(8)14-22-4-5-26-14/h7,13H,4-6H2,1-3H3

> <InChI Key_QSARr>
YIJZJEYQBAAWRJ-UHFFFAOYSA-N

> <Salt_Solvent>


> <Salt_Solvent_ID>
0

> <Clint>
1.6180480967120925

> <Tr_1_Tst_0>
1

$$$$
Row320
  Mrv171c012261910192D          

 17 17  0  0  0  0            999 V2000
    2.8228   -1.4640    0.0000 N   0  0  0  0  0  0  0  0  0  0  0  0
    2.1083   -1.0515    0.0000 C   0  0  0  0  0  0  0  0  0  0  0  0
    2.1083   -0.2265    0.0000 N   0  0  0  0  0  0  0  0  0  0  0  0
    1.3938    0.1860    0.0000 C   0  0  0  0  0  0  0  0  0  0  0  0
    2.8228    0.1860    0.0000 C   0  0  0  0  0  0  0  0  0  0  0  0
    1.3938   -1.4640    0.0000 N   0  0  0  0  0  0  0  0  0  0  0  0
    1.3938   -2.2890    0.0000 C   0  0  0  0  0  0  0  0  0  0  0  0
    0.6793   -2.7015    0.0000 C   0  0  0  0  0  0  0  0  0  0  0  0
    2.1083   -2.7015    0.0000 C   0  0  0  0  0  0  0  0  0  0  0  0
    2.1083   -3.5265    0.0000 C   0  0  0  0  0  0  0  0  0  0  0  0
    2.8228   -2.2890    0.0000 C   0  0  0  0  0  0  0  0  0  0  0  0
    3.5372   -2.7015    0.0000 O   0  0  0  0  0  0  0  0  0  0  0  0
    4.2517   -2.2890    0.0000 C   0  0  0  0  0  0  0  0  0  0  0  0
    4.2517   -1.4640    0.0000 O   0  0  0  0  0  0  0  0  0  0  0  0
    4.9662   -2.7015    0.0000 N   0  0  0  0  0  0  0  0  0  0  0  0
    5.6806   -2.2890    0.0000 C   0  0  0  0  0  0  0  0  0  0  0  0
    4.9662   -3.5265    0.0000 C   0  0  0  0  0  0  0  0  0  0  0  0
  2  1  2  0  0  0  0
  2  3  1  0  0  0  0
  3  4  1  0  0  0  0
  3  5  1  0  0  0  0
  6  2  1  0  0  0  0
  7  6  2  0  0  0  0
  7  8  1  0  0  0  0
  9  7  1  0  0  0  0
  9 10  1  0  0  0  0
 11  9  2  0  0  0  0
  1 11  1  0  0  0  0
 11 12  1  0  0  0  0
 12 13  1  0  0  0  0
 13 14  2  0  0  0  0
 13 15  1  0  0  0  0
 15 16  1  0  0  0  0
 15 17  1  0  0  0  0
M  END
> <ChemID>
10084

> <CAS>
23103-98-2

> <Original_SMILES>
Cc1[n]c([n]c(OC(=O)N(C)C)c1C)N(C)C

> <preferred_name>
Pirimicarb

> <dsstox_substance_id>
DTXSID1032569

> <dsstox_compound_id>
DTXCID9012569

> <Canonical_QSARr>
CC1=NC(=NC(OC(=O)N(C)C)=C1C)N(C)C

> <InChI_Code_QSARr>
InChI=1S/C11H18N4O2/c1-7-8(2)12-10(14(3)4)13-9(7)17-11(16)15(5)6/h1-6H3

> <InChI Key_QSARr>
YFGYUFNIOHWBOB-UHFFFAOYSA-N

> <Salt_Solvent>


> <Salt_Solvent_ID>
0

> <Clint>
1.3527611917238307

> <Tr_1_Tst_0>
1

$$$$
Row284
  Mrv171c012261910192D          

 24 26  0  0  0  0            999 V2000
    2.9700   -0.7497    0.0000 C   0  0  0  0  0  0  0  0  0  0  0  0
    2.9700   -1.5747    0.0000 C   0  0  0  0  0  0  0  0  0  0  0  0
    3.6845   -1.9872    0.0000 C   0  0  0  0  0  0  0  0  0  0  0  0
    4.3990   -1.5747    0.0000 C   0  0  0  0  0  0  0  0  0  0  0  0
    5.1134   -1.9872    0.0000 O   0  0  0  0  0  0  0  0  0  0  0  0
    5.8279   -1.5747    0.0000 C   0  0  0  0  0  0  0  0  0  0  0  0
    6.5424   -1.9872    0.0000 C   0  0  0  0  0  0  0  0  0  0  0  0
    6.5424   -2.8122    0.0000 C   0  0  0  0  0  0  0  0  0  0  0  0
    7.2569   -1.5747    0.0000 O   0  0  0  0  0  0  0  0  0  0  0  0
    7.9713   -1.9872    0.0000 C   0  0  0  0  0  0  0  0  0  0  0  0
    7.9713   -2.8122    0.0000 N   0  0  0  0  0  0  0  0  0  0  0  0
    8.6858   -3.2247    0.0000 C   0  0  0  0  0  0  0  0  0  0  0  0
    9.4003   -2.8122    0.0000 C   0  0  0  0  0  0  0  0  0  0  0  0
    9.4003   -1.9872    0.0000 C   0  0  0  0  0  0  0  0  0  0  0  0
    8.6858   -1.5747    0.0000 C   0  0  0  0  0  0  0  0  0  0  0  0
    4.3990   -0.7497    0.0000 C   0  0  0  0  0  0  0  0  0  0  0  0
    3.6845   -0.3372    0.0000 C   0  0  0  0  0  0  0  0  0  0  0  0
    2.2556   -0.3372    0.0000 O   0  0  0  0  0  0  0  0  0  0  0  0
    1.5411   -0.7497    0.0000 C   0  0  0  0  0  0  0  0  0  0  0  0
    0.8266   -0.3372    0.0000 C   0  0  0  0  0  0  0  0  0  0  0  0
    0.1121   -0.7497    0.0000 C   0  0  0  0  0  0  0  0  0  0  0  0
    0.1121   -1.5747    0.0000 C   0  0  0  0  0  0  0  0  0  0  0  0
    0.8266   -1.9872    0.0000 C   0  0  0  0  0  0  0  0  0  0  0  0
    1.5411   -1.5747    0.0000 C   0  0  0  0  0  0  0  0  0  0  0  0
  2  1  2  0  0  0  0
  3  2  1  0  0  0  0
  4  3  2  0  0  0  0
  4  5  1  0  0  0  0
  5  6  1  0  0  0  0
  6  7  1  0  0  0  0
  7  8  1  0  0  0  0
  7  9  1  0  0  0  0
  9 10  1  0  0  0  0
 11 10  2  0  0  0  0
 12 11  1  0  0  0  0
 13 12  2  0  0  0  0
 14 13  1  0  0  0  0
 15 14  2  0  0  0  0
 10 15  1  0  0  0  0
 16  4  1  0  0  0  0
 17 16  2  0  0  0  0
  1 17  1  0  0  0  0
  1 18  1  0  0  0  0
 18 19  1  0  0  0  0
 20 19  1  0  0  0  0
 21 20  2  0  0  0  0
 22 21  1  0  0  0  0
 23 22  2  0  0  0  0
 24 23  1  0  0  0  0
 19 24  2  0  0  0  0
M  END
> <ChemID>
10085

> <CAS>
95737-68-1

> <Original_SMILES>
CC(COc1ccc(cc1)Oc1ccccc1)Oc1cccc[n]1

> <preferred_name>
Pyriproxyfen

> <dsstox_substance_id>
DTXSID1032640

> <dsstox_compound_id>
DTXCID9012640

> <Canonical_QSARr>
CC(COC1C=CC(=CC=1)OC1C=CC=CC=1)OC1C=CC=CN=1

> <InChI_Code_QSARr>
InChI=1S/C20H19NO3/c1-16(23-20-9-5-6-14-21-20)15-22-17-10-12-19(13-11-17)24-18-7-3-2-4-8-18/h2-14,16H,15H2,1H3

> <InChI Key_QSARr>
NHDHVHZZCFYRSB-UHFFFAOYSA-N

> <Salt_Solvent>


> <Salt_Solvent_ID>
0

> <Clint>
1.2268575702887234

> <Tr_1_Tst_0>
1

$$$$
Row19
  Mrv171c012261910192D          

 28 29  0  0  0  0            999 V2000
    5.3276   -2.9629    0.0000 C   0  0  0  0  0  0  0  0  0  0  0  0
    6.0420   -2.5504    0.0000 C   0  0  0  0  0  0  0  0  0  0  0  0
    6.0420   -1.7254    0.0000 S   0  0  0  0  0  0  0  0  0  0  0  0
    5.2170   -1.7254    0.0000 O   0  0  0  0  0  0  0  0  0  0  0  0
    6.8670   -1.7254    0.0000 O   0  0  0  0  0  0  0  0  0  0  0  0
    6.0420   -0.9004    0.0000 C   0  0  0  0  0  0  0  0  0  0  0  0
    5.3276   -0.4879    0.0000 C   0  0  0  0  0  0  0  0  0  0  0  0
    6.7565   -2.9629    0.0000 C   0  0  0  0  0  0  0  0  0  0  0  0
    6.7565   -3.7879    0.0000 C   0  0  0  0  0  0  0  0  0  0  0  0
    6.0420   -4.2004    0.0000 C   0  0  0  0  0  0  0  0  0  0  0  0
    5.3276   -3.7879    0.0000 N   0  0  0  0  0  0  0  0  0  0  0  0
    4.6131   -2.5504    0.0000 S   0  0  0  0  0  0  0  0  0  0  0  0
    4.7846   -1.7434    0.0000 O   0  0  0  0  0  0  0  0  0  0  0  0
    4.2006   -3.2649    0.0000 O   0  0  0  0  0  0  0  0  0  0  0  0
    3.8986   -2.1379    0.0000 N   0  0  0  0  0  0  0  0  0  0  0  0
    3.1841   -2.5504    0.0000 C   0  0  0  0  0  0  0  0  0  0  0  0
    3.1841   -3.3754    0.0000 O   0  0  0  0  0  0  0  0  0  0  0  0
    2.4697   -2.1379    0.0000 N   0  0  0  0  0  0  0  0  0  0  0  0
    1.7552   -2.5504    0.0000 C   0  0  0  0  0  0  0  0  0  0  0  0
    1.0407   -2.1379    0.0000 N   0  0  0  0  0  0  0  0  0  0  0  0
    0.3263   -2.5504    0.0000 C   0  0  0  0  0  0  0  0  0  0  0  0
   -0.3882   -2.1379    0.0000 O   0  0  0  0  0  0  0  0  0  0  0  0
   -1.1027   -2.5504    0.0000 C   0  0  0  0  0  0  0  0  0  0  0  0
    0.3263   -3.3754    0.0000 C   0  0  0  0  0  0  0  0  0  0  0  0
    1.0407   -3.7879    0.0000 C   0  0  0  0  0  0  0  0  0  0  0  0
    1.0407   -4.6129    0.0000 O   0  0  0  0  0  0  0  0  0  0  0  0
    0.3263   -5.0254    0.0000 C   0  0  0  0  0  0  0  0  0  0  0  0
    1.7552   -3.3754    0.0000 N   0  0  0  0  0  0  0  0  0  0  0  0
  2  1  1  0  0  0  0
  2  3  1  0  0  0  0
  3  4  2  0  0  0  0
  3  5  2  0  0  0  0
  3  6  1  0  0  0  0
  6  7  1  0  0  0  0
  8  2  2  0  0  0  0
  9  8  1  0  0  0  0
 10  9  2  0  0  0  0
 11 10  1  0  0  0  0
  1 11  2  0  0  0  0
  1 12  1  0  0  0  0
 12 13  2  0  0  0  0
 12 14  2  0  0  0  0
 12 15  1  0  0  0  0
 15 16  1  0  0  0  0
 16 17  2  0  0  0  0
 16 18  1  0  0  0  0
 18 19  1  0  0  0  0
 20 19  2  0  0  0  0
 21 20  1  0  0  0  0
 21 22  1  0  0  0  0
 22 23  1  0  0  0  0
 24 21  2  0  0  0  0
 25 24  1  0  0  0  0
 25 26  1  0  0  0  0
 26 27  1  0  0  0  0
 28 25  2  0  0  0  0
 19 28  1  0  0  0  0
M  END
> <ChemID>
10086

> <CAS>
122931-48-0

> <Original_SMILES>
CCS(=O)(=O)c1ccc[n]c1S(=O)(=O)NC(=O)Nc1[n]c(cc([n]1)OC)OC

> <preferred_name>
Rimsulfuron

> <dsstox_substance_id>
DTXSID1032642

> <dsstox_compound_id>
DTXCID9012642

> <Canonical_QSARr>
CCS(=O)(=O)C1=CC=CN=C1S(=O)(=O)NC(=O)NC1=NC(=CC(=N1)OC)OC

> <InChI_Code_QSARr>
InChI=1S/C14H17N5O7S2/c1-4-27(21,22)9-6-5-7-15-12(9)28(23,24)19-14(20)18-13-16-10(25-2)8-11(17-13)26-3/h5-8H,4H2,1-3H3,(H2,16,17,18,19,20)

> <InChI Key_QSARr>
MEFOUWRMVYJCQC-UHFFFAOYSA-N

> <Salt_Solvent>


> <Salt_Solvent_ID>
0

> <Clint>
-7.0

> <Tr_1_Tst_0>
1

$$$$
Row528
  Mrv171c012261910192D          

 36 39  0  0  0  0            999 V2000
    6.6258   -4.5081    0.0000 C   0  0  0  0  0  0  0  0  0  0  0  0
    6.4542   -5.3150    0.0000 C   0  0  0  0  0  0  0  0  0  0  0  0
    7.0673   -5.8671    0.0000 O   0  0  0  0  0  0  0  0  0  0  0  0
    6.8958   -6.6741    0.0000 C   0  0  0  0  0  0  0  0  0  0  0  0
    5.6696   -5.5700    0.0000 O   0  0  0  0  0  0  0  0  0  0  0  0
    7.2932   -4.9930    0.0000 C   0  0  0  0  0  0  0  0  0  0  0  0
    7.9607   -4.5081    0.0000 C   0  0  0  0  0  0  0  0  0  0  0  0
    8.7676   -4.6796    0.0000 C   0  0  0  0  0  0  0  0  0  0  0  0
    9.3197   -4.0665    0.0000 C   0  0  0  0  0  0  0  0  0  0  0  0
    9.0647   -3.2819    0.0000 C   0  0  0  0  0  0  0  0  0  0  0  0
    8.2577   -3.1104    0.0000 C   0  0  0  0  0  0  0  0  0  0  0  0
    7.7057   -3.7235    0.0000 C   0  0  0  0  0  0  0  0  0  0  0  0
    6.8807   -3.7235    0.0000 C   0  0  0  0  0  0  0  0  0  0  0  0
    6.3287   -3.1104    0.0000 N   0  0  0  0  0  0  0  0  0  0  0  0
    5.5217   -3.2819    0.0000 N   0  0  0  0  0  0  0  0  0  0  0  0
    4.9697   -2.6688    0.0000 C   0  0  0  0  0  0  0  0  0  0  0  0
    5.2246   -1.8842    0.0000 O   0  0  0  0  0  0  0  0  0  0  0  0
    4.1627   -2.8403    0.0000 N   0  0  0  0  0  0  0  0  0  0  0  0
    3.6107   -2.2272    0.0000 C   0  0  0  0  0  0  0  0  0  0  0  0
    3.8656   -1.4426    0.0000 C   0  0  0  0  0  0  0  0  0  0  0  0
    3.3136   -0.8295    0.0000 C   0  0  0  0  0  0  0  0  0  0  0  0
    2.5066   -1.0010    0.0000 C   0  0  0  0  0  0  0  0  0  0  0  0
    1.9546   -0.3879    0.0000 O   0  0  0  0  0  0  0  0  0  0  0  0
    1.1476   -0.5595    0.0000 C   0  0  0  0  0  0  0  0  0  0  0  0
    0.3406   -0.7310    0.0000 F   0  0  0  0  0  0  0  0  0  0  0  0
    1.3191   -1.3664    0.0000 F   0  0  0  0  0  0  0  0  0  0  0  0
    0.9761    0.2475    0.0000 F   0  0  0  0  0  0  0  0  0  0  0  0
    2.2517   -1.7857    0.0000 C   0  0  0  0  0  0  0  0  0  0  0  0
    2.8037   -2.3988    0.0000 C   0  0  0  0  0  0  0  0  0  0  0  0
    3.9078   -3.6249    0.0000 C   0  0  0  0  0  0  0  0  0  0  0  0
    4.4598   -4.2380    0.0000 O   0  0  0  0  0  0  0  0  0  0  0  0
    4.2049   -5.0227    0.0000 C   0  0  0  0  0  0  0  0  0  0  0  0
    3.1008   -3.7965    0.0000 O   0  0  0  0  0  0  0  0  0  0  0  0
    5.2668   -4.0665    0.0000 C   0  0  0  0  0  0  0  0  0  0  0  0
    5.8188   -4.6796    0.0000 O   0  0  0  0  0  0  0  0  0  0  0  0
   10.1266   -4.2380    0.0000 Cl  0  0  0  0  0  0  0  0  0  0  0  0
  1  2  1  0  0  0  0
  2  3  1  0  0  0  0
  3  4  1  0  0  0  0
  2  5  2  0  0  0  0
  6  1  1  0  0  0  0
  7  6  1  0  0  0  0
  7  8  1  0  0  0  0
  8  9  2  0  0  0  0
  9 10  1  0  0  0  0
 10 11  2  0  0  0  0
 11 12  1  0  0  0  0
 12  7  2  0  0  0  0
 13 12  1  0  0  0  0
 13  1  1  0  0  0  0
 14 13  2  0  0  0  0
 15 14  1  0  0  0  0
 15 16  1  0  0  0  0
 16 17  2  0  0  0  0
 16 18  1  0  0  0  0
 18 19  1  0  0  0  0
 20 19  1  0  0  0  0
 21 20  2  0  0  0  0
 22 21  1  0  0  0  0
 22 23  1  0  0  0  0
 23 24  1  0  0  0  0
 24 25  1  0  0  0  0
 24 26  1  0  0  0  0
 24 27  1  0  0  0  0
 28 22  2  0  0  0  0
 29 28  1  0  0  0  0
 19 29  2  0  0  0  0
 18 30  1  0  0  0  0
 30 31  1  0  0  0  0
 31 32  1  0  0  0  0
 30 33  2  0  0  0  0
 34 15  1  0  0  0  0
 35 34  1  0  0  0  0
  1 35  1  0  0  0  0
  9 36  1  0  0  0  0
M  END
> <ChemID>
10087

> <CAS>
173584-44-6

> <Original_SMILES>
COC(=O)N(c1ccc(cc1)OC(F)(F)F)C(=O)N1CO[C@]2(Cc3cc(Cl)ccc3C2=N1)C(=O)OC

> <preferred_name>
Indoxacarb

> <dsstox_substance_id>
DTXSID1032690

> <dsstox_compound_id>
DTXCID9012690

> <Canonical_QSARr>
COC(=O)N(C1C=CC(=CC=1)OC(F)(F)F)C(=O)N1COC2(CC3C=C(Cl)C=CC=3C2=N1)C(=O)OC

> <InChI_Code_QSARr>
InChI=1S/C22H17ClF3N3O7/c1-33-18(30)21-10-12-9-13(23)3-8-16(12)17(21)27-28(11-35-21)19(31)29(20(32)34-2)14-4-6-15(7-5-14)36-22(24,25)26/h3-9H,10-11H2,1-2H3

> <InChI Key_QSARr>
VBCVPMMZEGZULK-UHFFFAOYSA-N

> <Salt_Solvent>


> <Salt_Solvent_ID>
0

> <Clint>
1.4963760540124007

> <Tr_1_Tst_0>
0

$$$$
Row485
  Mrv171c012261910192D          

 28 30  0  0  0  0            999 V2000
   -5.7158   -4.9500    0.0000 C   0  0  0  0  0  0  0  0  0  0  0  0
   -5.0013   -5.3625    0.0000 C   0  0  0  0  0  0  0  0  0  0  0  0
   -5.0013   -6.1875    0.0000 C   0  0  0  0  0  0  0  0  0  0  0  0
   -4.2868   -6.6000    0.0000 C   0  0  0  0  0  0  0  0  0  0  0  0
   -4.2868   -7.4250    0.0000 C   0  0  0  0  0  0  0  0  0  0  0  0
   -3.5724   -7.8375    0.0000 C   0  0  0  0  0  0  0  0  0  0  0  0
   -3.5724   -8.6625    0.0000 C   0  0  0  0  0  0  0  0  0  0  0  0
   -4.2868   -9.0750    0.0000 C   0  0  0  0  0  0  0  0  0  0  0  0
   -5.0013   -8.6625    0.0000 C   0  0  0  0  0  0  0  0  0  0  0  0
   -5.0013   -7.8375    0.0000 C   0  0  0  0  0  0  0  0  0  0  0  0
   -3.5724   -6.1875    0.0000 C   0  0  0  0  0  0  0  0  0  0  0  0
   -3.5724   -5.3625    0.0000 C   0  0  0  0  0  0  0  0  0  0  0  0
   -2.8579   -4.9500    0.0000 C   0  0  0  0  0  0  0  0  0  0  0  0
   -2.1434   -5.3625    0.0000 C   0  0  0  0  0  0  0  0  0  0  0  0
   -2.1434   -6.1875    0.0000 C   0  0  0  0  0  0  0  0  0  0  0  0
   -2.8579   -6.6000    0.0000 C   0  0  0  0  0  0  0  0  0  0  0  0
   -1.4289   -4.9500    0.0000 O   0  0  0  0  0  0  0  0  0  0  0  0
   -0.7145   -5.3625    0.0000 C   0  0  0  0  0  0  0  0  0  0  0  0
    0.0000   -4.9500    0.0000 C   0  0  0  0  0  0  0  0  0  0  0  0
    0.7145   -5.3625    0.0000 N   0  0  0  0  0  0  0  0  0  0  0  0
    1.4289   -4.9500    0.0000 C   0  0  0  0  0  0  0  0  0  0  0  0
    0.7145   -6.1875    0.0000 C   0  0  0  0  0  0  0  0  0  0  0  0
   -5.7158   -6.6000    0.0000 C   0  0  0  0  0  0  0  0  0  0  0  0
   -5.7158   -7.4250    0.0000 C   0  0  0  0  0  0  0  0  0  0  0  0
   -6.4302   -7.8375    0.0000 C   0  0  0  0  0  0  0  0  0  0  0  0
   -7.1447   -7.4250    0.0000 C   0  0  0  0  0  0  0  0  0  0  0  0
   -7.1447   -6.6000    0.0000 C   0  0  0  0  0  0  0  0  0  0  0  0
   -6.4302   -6.1875    0.0000 C   0  0  0  0  0  0  0  0  0  0  0  0
  1  2  1  0  0  0  0
  3  2  1  4  0  0  0
  3  4  2  0  0  0  0
  4  5  1  0  0  0  0
  5  6  1  0  0  0  0
  6  7  2  0  0  0  0
  7  8  1  0  0  0  0
  8  9  2  0  0  0  0
  9 10  1  0  0  0  0
  5 10  2  0  0  0  0
  4 11  1  0  0  0  0
 11 12  1  0  0  0  0
 12 13  2  0  0  0  0
 13 14  1  0  0  0  0
 14 15  2  0  0  0  0
 15 16  1  0  0  0  0
 11 16  2  0  0  0  0
 14 17  1  0  0  0  0
 17 18  1  0  0  0  0
 18 19  1  0  0  0  0
 19 20  1  0  0  0  0
 20 21  1  0  0  0  0
 20 22  1  0  0  0  0
  3 23  1  0  0  0  0
 23 24  1  0  0  0  0
 24 25  2  0  0  0  0
 25 26  1  0  0  0  0
 26 27  2  0  0  0  0
 27 28  1  0  0  0  0
 23 28  2  0  0  0  0
M  END
> <ChemID>
10088

> <CAS>
10540-29-1

> <Original_SMILES>
CC/C(=C(/c1ccc(cc1)OCCN(C)C)\c1ccccc1)/c1ccccc1

> <preferred_name>
Tamoxifen

> <dsstox_substance_id>
DTXSID1034187

> <dsstox_compound_id>
DTXCID9014187

> <Canonical_QSARr>
CCC(=C(C1C=CC=CC=1)C1C=CC(=CC=1)OCCN(C)C)C1C=CC=CC=1

> <InChI_Code_QSARr>
InChI=1S/C26H29NO/c1-4-25(21-11-7-5-8-12-21)26(22-13-9-6-10-14-22)23-15-17-24(18-16-23)28-20-19-27(2)3/h5-18H,4,19-20H2,1-3H3

> <InChI Key_QSARr>
NKANXQFJJICGDU-UHFFFAOYSA-N

> <Salt_Solvent>


> <Salt_Solvent_ID>
0

> <Clint>
0.9304395947667

> <Tr_1_Tst_0>
0

$$$$
Row480
  Mrv171c012261910192D          

 24 24  0  0  0  0            999 V2000
    2.8609   -2.8832    0.0000 C   0  0  0  0  0  0  0  0  0  0  0  0
    3.5754   -2.4707    0.0000 N   0  3  0  0  0  0  0  0  0  0  0  0
    4.2898   -2.8832    0.0000 O   0  0  0  0  0  0  0  0  0  0  0  0
    3.5754   -1.6457    0.0000 O   0  5  0  0  0  0  0  0  0  0  0  0
    2.1464   -2.4707    0.0000 C   0  0  0  0  0  0  0  0  0  0  0  0
    2.1464   -1.6457    0.0000 N   0  0  0  0  0  0  0  0  0  0  0  0
    1.4319   -1.2332    0.0000 C   0  0  0  0  0  0  0  0  0  0  0  0
    1.4319   -0.4082    0.0000 C   0  0  0  0  0  0  0  0  0  0  0  0
    0.7175    0.0043    0.0000 C   0  0  0  0  0  0  0  0  0  0  0  0
    2.8609   -1.2332    0.0000 C   0  0  0  0  0  0  0  0  0  0  0  0
    2.8609   -0.4082    0.0000 C   0  0  0  0  0  0  0  0  0  0  0  0
    3.5754    0.0043    0.0000 C   0  0  0  0  0  0  0  0  0  0  0  0
    1.4319   -2.8832    0.0000 C   0  0  0  0  0  0  0  0  0  0  0  0
    0.7175   -2.4707    0.0000 N   0  3  0  0  0  0  0  0  0  0  0  0
    0.0030   -2.8832    0.0000 O   0  0  0  0  0  0  0  0  0  0  0  0
    0.7175   -1.6457    0.0000 O   0  5  0  0  0  0  0  0  0  0  0  0
    1.4319   -3.7082    0.0000 C   0  0  0  0  0  0  0  0  0  0  0  0
    2.1464   -4.1207    0.0000 C   0  0  0  0  0  0  0  0  0  0  0  0
    2.1464   -4.9457    0.0000 C   0  0  0  0  0  0  0  0  0  0  0  0
    2.1464   -5.7707    0.0000 F   0  0  0  0  0  0  0  0  0  0  0  0
    1.3214   -4.9457    0.0000 F   0  0  0  0  0  0  0  0  0  0  0  0
    2.9714   -4.9457    0.0000 F   0  0  0  0  0  0  0  0  0  0  0  0
    2.8609   -3.7082    0.0000 C   0  0  0  0  0  0  0  0  0  0  0  0
    3.5754   -4.1207    0.0000 N   0  0  0  0  0  0  0  0  0  0  0  0
  1  2  1  0  0  0  0
  2  3  2  0  0  0  0
  2  4  1  0  0  0  0
  5  1  2  0  0  0  0
  5  6  1  0  0  0  0
  6  7  1  0  0  0  0
  7  8  1  0  0  0  0
  8  9  1  0  0  0  0
  6 10  1  0  0  0  0
 10 11  1  0  0  0  0
 11 12  1  0  0  0  0
 13  5  1  0  0  0  0
 13 14  1  0  0  0  0
 14 15  2  0  0  0  0
 14 16  1  0  0  0  0
 17 13  2  0  0  0  0
 18 17  1  0  0  0  0
 18 19  1  0  0  0  0
 19 20  1  0  0  0  0
 19 21  1  0  0  0  0
 19 22  1  0  0  0  0
 23 18  2  0  0  0  0
  1 23  1  0  0  0  0
 23 24  1  0  0  0  0
M  CHG  4   2   1   4  -1  14   1  16  -1
M  END
> <ChemID>
10089

> <CAS>
29091-21-2

> <Original_SMILES>
CCCN(CCC)c1c(cc(c(N)c1[N+]([O-])=O)C(F)(F)F)[N+]([O-])=O

> <preferred_name>
Prodiamine

> <dsstox_substance_id>
DTXSID1034210

> <dsstox_compound_id>
DTXCID9014210

> <Canonical_QSARr>
CCCN(CCC)C1C(=CC(=C(N)C=1[N+]([O-])=O)C(F)(F)F)[N+]([O-])=O

> <InChI_Code_QSARr>
InChI=1S/C13H17F3N4O4/c1-3-5-18(6-4-2)11-9(19(21)22)7-8(13(14,15)16)10(17)12(11)20(23)24/h7H,3-6,17H2,1-2H3

> <InChI Key_QSARr>
RSVPPPHXAASNOL-UHFFFAOYSA-N

> <Salt_Solvent>


> <Salt_Solvent_ID>
0

> <Clint>
0.858537197569639

> <Tr_1_Tst_0>
0

$$$$
Row154
  Mrv171c012261910192D          

 21 22  0  0  0  0            999 V2000
    1.4295   -0.8704    0.0000 N   0  0  0  0  0  0  0  0  0  0  0  0
    0.7150   -0.4579    0.0000 C   0  0  0  0  0  0  0  0  0  0  0  0
    0.0006   -0.8704    0.0000 C   0  0  0  0  0  0  0  0  0  0  0  0
   -0.7139   -0.4579    0.0000 C   0  0  0  0  0  0  0  0  0  0  0  0
    1.4295   -1.6954    0.0000 C   0  0  0  0  0  0  0  0  0  0  0  0
    2.1440   -2.1079    0.0000 C   0  0  0  0  0  0  0  0  0  0  0  0
    2.1440   -0.4579    0.0000 C   0  0  0  0  0  0  0  0  0  0  0  0
    2.8585   -0.8704    0.0000 C   0  0  0  0  0  0  0  0  0  0  0  0
    2.9447   -1.6909    0.0000 C   0  0  0  0  0  0  0  0  0  0  0  0
    3.7517   -1.8624    0.0000 O   0  0  0  0  0  0  0  0  0  0  0  0
    4.1642   -1.1479    0.0000 C   0  0  0  0  0  0  0  0  0  0  0  0
    4.6491   -1.8154    0.0000 C   0  0  0  0  0  0  0  0  0  0  0  0
    5.4696   -1.7291    0.0000 C   0  0  0  0  0  0  0  0  0  0  0  0
    5.8051   -0.9754    0.0000 C   0  0  0  0  0  0  0  0  0  0  0  0
    6.6256   -0.8892    0.0000 C   0  0  0  0  0  0  0  0  0  0  0  0
    7.4461   -0.8030    0.0000 C   0  0  0  0  0  0  0  0  0  0  0  0
    6.7118   -1.7097    0.0000 C   0  0  0  0  0  0  0  0  0  0  0  0
    6.5394   -0.0687    0.0000 C   0  0  0  0  0  0  0  0  0  0  0  0
    5.3202   -0.3080    0.0000 C   0  0  0  0  0  0  0  0  0  0  0  0
    4.4997   -0.3942    0.0000 C   0  0  0  0  0  0  0  0  0  0  0  0
    3.6121   -0.5348    0.0000 O   0  0  0  0  0  0  0  0  0  0  0  0
  1  2  1  0  0  0  0
  2  3  1  0  0  0  0
  3  4  1  0  0  0  0
  1  5  1  0  0  0  0
  5  6  1  0  0  0  0
  1  7  1  0  0  0  0
  7  8  1  0  0  0  0
  9  8  1  0  0  0  0
 10  9  1  0  0  0  0
 11 10  1  0  0  0  0
 12 11  1  0  0  0  0
 13 12  1  0  0  0  0
 14 13  1  0  0  0  0
 14 15  1  0  0  0  0
 15 16  1  0  0  0  0
 15 17  1  0  0  0  0
 15 18  1  0  0  0  0
 19 14  1  0  0  0  0
 20 19  1  0  0  0  0
 11 20  1  0  0  0  0
 21 11  1  0  0  0  0
  8 21  1  0  0  0  0
M  END
> <ChemID>
10090

> <CAS>
118134-30-8

> <Original_SMILES>
CC(C)(C)C1CCC2(CC1)OC(CO2)CN(CCC)CC

> <preferred_name>
Spiroxamine

> <dsstox_substance_id>
DTXSID1034212

> <dsstox_compound_id>
DTXCID9014212

> <Canonical_QSARr>
CC(C)(C)C1CCC2(CC1)OC(CO2)CN(CCC)CC

> <InChI_Code_QSARr>
InChI=1S/C18H35NO2/c1-6-12-19(7-2)13-16-14-20-18(21-16)10-8-15(9-11-18)17(3,4)5/h15-16H,6-14H2,1-5H3

> <InChI Key_QSARr>
PUYXTUJWRLOUCW-UHFFFAOYSA-N

> <Salt_Solvent>


> <Salt_Solvent_ID>
0

> <Clint>
0.5250448070368452

> <Tr_1_Tst_0>
1

$$$$
Row338
  Mrv171c012261910192D          

 17 18  0  0  0  0            999 V2000
    3.4042   -1.5515    0.0000 C   0  0  0  0  0  0  0  0  0  0  0  0
    4.1186   -1.9640    0.0000 N   0  0  0  0  0  0  0  0  0  0  0  0
    4.1186   -2.7890    0.0000 C   0  0  0  0  0  0  0  0  0  0  0  0
    3.4042   -3.2015    0.0000 C   0  0  0  0  0  0  0  0  0  0  0  0
    3.4042   -4.0265    0.0000 C   0  0  0  0  0  0  0  0  0  0  0  0
    4.1186   -4.4390    0.0000 C   0  0  0  0  0  0  0  0  0  0  0  0
    4.8331   -4.0265    0.0000 C   0  0  0  0  0  0  0  0  0  0  0  0
    4.8331   -3.2015    0.0000 C   0  0  0  0  0  0  0  0  0  0  0  0
    3.4042   -0.7265    0.0000 N   0  0  0  0  0  0  0  0  0  0  0  0
    2.6897   -0.3140    0.0000 C   0  0  0  0  0  0  0  0  0  0  0  0
    2.6897    0.5110    0.0000 C   0  0  0  0  0  0  0  0  0  0  0  0
    1.9752    0.9235    0.0000 C   0  0  0  0  0  0  0  0  0  0  0  0
    1.2608    0.5110    0.0000 N   0  0  0  0  0  0  0  0  0  0  0  0
    1.2608   -0.3140    0.0000 C   0  0  0  0  0  0  0  0  0  0  0  0
    0.5463   -0.7265    0.0000 Cl  0  0  0  0  0  0  0  0  0  0  0  0
    1.9752   -0.7265    0.0000 C   0  0  0  0  0  0  0  0  0  0  0  0
    2.6897   -1.9640    0.0000 O   0  0  0  0  0  0  0  0  0  0  0  0
  1  2  1  0  0  0  0
  2  3  1  0  0  0  0
  4  3  1  0  0  0  0
  5  4  2  0  0  0  0
  6  5  1  0  0  0  0
  7  6  2  0  0  0  0
  8  7  1  0  0  0  0
  3  8  2  0  0  0  0
  1  9  1  0  0  0  0
  9 10  1  0  0  0  0
 11 10  1  0  0  0  0
 12 11  2  0  0  0  0
 13 12  1  0  0  0  0
 14 13  2  0  0  0  0
 14 15  1  0  0  0  0
 16 14  1  0  0  0  0
 10 16  2  0  0  0  0
  1 17  2  0  0  0  0
M  END
> <ChemID>
10091

> <CAS>
68157-60-8

> <Original_SMILES>
O=C(Nc1ccccc1)Nc1cc(Cl)[n]cc1

> <preferred_name>
Forchlorfenuron

> <dsstox_substance_id>
DTXSID1034634

> <dsstox_compound_id>
DTXCID9014634

> <Canonical_QSARr>
O=C(NC1=CC(Cl)=NC=C1)NC1C=CC=CC=1

> <InChI_Code_QSARr>
InChI=1S/C12H10ClN3O/c13-11-8-10(6-7-14-11)16-12(17)15-9-4-2-1-3-5-9/h1-8H,(H2,14,15,16,17)

> <InChI Key_QSARr>
GPXLRLUVLMHHIK-UHFFFAOYSA-N

> <Salt_Solvent>


> <Salt_Solvent_ID>
0

> <Clint>
1.4292676664331683

> <Tr_1_Tst_0>
1

$$$$
Row550
  Mrv171c012261910192D          

 15 17  0  0  0  0            999 V2000
    2.1456   -0.8230    0.0000 C   0  0  0  0  0  0  0  0  0  0  0  0
    2.1456    0.0020    0.0000 N   0  0  0  0  0  0  0  0  0  0  0  0
    2.8601   -1.2355    0.0000 C   0  0  0  0  0  0  0  0  0  0  0  0
    3.5746   -0.8230    0.0000 C   0  0  0  0  0  0  0  0  0  0  0  0
    4.2890   -1.2355    0.0000 C   0  0  0  0  0  0  0  0  0  0  0  0
    4.2890   -2.0605    0.0000 C   0  0  0  0  0  0  0  0  0  0  0  0
    3.5746   -2.4730    0.0000 C   0  0  0  0  0  0  0  0  0  0  0  0
    2.8601   -2.0605    0.0000 C   0  0  0  0  0  0  0  0  0  0  0  0
    2.1456   -2.4730    0.0000 N   0  0  0  0  0  0  0  0  0  0  0  0
    1.4312   -2.0605    0.0000 C   0  0  0  0  0  0  0  0  0  0  0  0
    0.7167   -2.4730    0.0000 C   0  0  0  0  0  0  0  0  0  0  0  0
    0.0022   -2.0605    0.0000 C   0  0  0  0  0  0  0  0  0  0  0  0
    0.0022   -1.2355    0.0000 C   0  0  0  0  0  0  0  0  0  0  0  0
    0.7167   -0.8230    0.0000 C   0  0  0  0  0  0  0  0  0  0  0  0
    1.4312   -1.2355    0.0000 C   0  0  0  0  0  0  0  0  0  0  0  0
  1  2  1  0  0  0  0
  3  1  1  0  0  0  0
  3  4  1  0  0  0  0
  4  5  2  0  0  0  0
  5  6  1  0  0  0  0
  6  7  2  0  0  0  0
  7  8  1  0  0  0  0
  8  3  2  0  0  0  0
  9  8  1  0  0  0  0
 10  9  2  0  0  0  0
 10 11  1  0  0  0  0
 11 12  1  0  0  0  0
 12 13  1  0  0  0  0
 13 14  1  0  0  0  0
 14 15  1  0  0  0  0
  1 15  2  0  0  0  0
 15 10  1  0  0  0  0
M  END
> <ChemID>
10092

> <CAS>
321-64-2

> <Original_SMILES>
Nc1c2ccccc2[n]c2CCCCc21

> <preferred_name>
Tacrine

> <dsstox_substance_id>
DTXSID1037272

> <dsstox_compound_id>
DTXCID9017272

> <Canonical_QSARr>
NC1C2C=CC=CC=2N=C2CCCCC2=1

> <InChI_Code_QSARr>
InChI=1S/C13H14N2/c14-13-9-5-1-3-7-11(9)15-12-8-4-2-6-10(12)13/h1,3,5,7H,2,4,6,8H2,(H2,14,15)

> <InChI Key_QSARr>
YLJREFDVOIBQDA-UHFFFAOYSA-N

> <Salt_Solvent>


> <Salt_Solvent_ID>
0

> <Clint>
2.9999999999999996

> <Tr_1_Tst_0>
0

$$$$
Row43
  Mrv171c012261910192D          

 22 21  0  0  0  0            999 V2000
    3.9614    0.9948    0.0000 C   0  0  0  0  0  0  0  0  0  0  0  0
    4.3739    1.7092    0.0000 F   0  0  0  0  0  0  0  0  0  0  0  0
    3.2469    1.4073    0.0000 F   0  0  0  0  0  0  0  0  0  0  0  0
    4.6759    0.5823    0.0000 F   0  0  0  0  0  0  0  0  0  0  0  0
    3.5489    0.2803    0.0000 C   0  0  0  0  0  0  0  0  0  0  0  0
    2.8344    0.6928    0.0000 F   0  0  0  0  0  0  0  0  0  0  0  0
    4.2634   -0.1322    0.0000 F   0  0  0  0  0  0  0  0  0  0  0  0
    3.1364   -0.4342    0.0000 C   0  0  0  0  0  0  0  0  0  0  0  0
    2.4219   -0.0217    0.0000 F   0  0  0  0  0  0  0  0  0  0  0  0
    3.8509   -0.8467    0.0000 F   0  0  0  0  0  0  0  0  0  0  0  0
    2.7239   -1.1487    0.0000 C   0  0  0  0  0  0  0  0  0  0  0  0
    2.0094   -0.7362    0.0000 F   0  0  0  0  0  0  0  0  0  0  0  0
    3.4384   -1.5612    0.0000 F   0  0  0  0  0  0  0  0  0  0  0  0
    2.3114   -1.8631    0.0000 C   0  0  0  0  0  0  0  0  0  0  0  0
    1.5969   -1.4506    0.0000 F   0  0  0  0  0  0  0  0  0  0  0  0
    3.0259   -2.2756    0.0000 F   0  0  0  0  0  0  0  0  0  0  0  0
    1.8989   -2.5776    0.0000 C   0  0  0  0  0  0  0  0  0  0  0  0
    1.1844   -2.1651    0.0000 F   0  0  0  0  0  0  0  0  0  0  0  0
    2.6134   -2.9901    0.0000 F   0  0  0  0  0  0  0  0  0  0  0  0
    1.4864   -3.2921    0.0000 C   0  0  0  0  0  0  0  0  0  0  0  0
    1.8989   -4.0065    0.0000 O   0  0  0  0  0  0  0  0  0  0  0  0
    0.6614   -3.2921    0.0000 O   0  0  0  0  0  0  0  0  0  0  0  0
  1  2  1  0  0  0  0
  1  3  1  0  0  0  0
  1  4  1  0  0  0  0
  1  5  1  0  0  0  0
  5  6  1  0  0  0  0
  5  7  1  0  0  0  0
  5  8  1  0  0  0  0
  8  9  1  0  0  0  0
  8 10  1  0  0  0  0
  8 11  1  0  0  0  0
 11 12  1  0  0  0  0
 11 13  1  0  0  0  0
 11 14  1  0  0  0  0
 14 15  1  0  0  0  0
 14 16  1  0  0  0  0
 14 17  1  0  0  0  0
 17 18  1  0  0  0  0
 17 19  1  0  0  0  0
 17 20  1  0  0  0  0
 20 21  2  0  0  0  0
 20 22  1  0  0  0  0
M  END
> <ChemID>
10093

> <CAS>
375-85-9

> <Original_SMILES>
OC(=O)C(F)(F)C(F)(F)C(F)(F)C(F)(F)C(F)(F)C(F)(F)F

> <preferred_name>
Perfluoroheptanoic acid

> <dsstox_substance_id>
DTXSID1037303

> <dsstox_compound_id>
DTXCID9017303

> <Canonical_QSARr>
OC(=O)C(F)(F)C(F)(F)C(F)(F)C(F)(F)C(F)(F)C(F)(F)F

> <InChI_Code_QSARr>
InChI=1S/C7HF13O2/c8-2(9,1(21)22)3(10,11)4(12,13)5(14,15)6(16,17)7(18,19)20/h(H,21,22)

> <InChI Key_QSARr>
ZWBAMYVPMDSJGQ-UHFFFAOYSA-N

> <Salt_Solvent>


> <Salt_Solvent_ID>
0

> <Clint>
-7.0

> <Tr_1_Tst_0>
1

$$$$
Row42
  Mrv171c012261910192D          

 16 17  0  0  0  0            999 V2000
    2.1744   -3.2487    0.0000 C   0  0  0  0  0  0  0  0  0  0  0  0
    2.1744   -4.0737    0.0000 O   0  0  0  0  0  0  0  0  0  0  0  0
    1.4599   -2.8362    0.0000 O   0  0  0  0  0  0  0  0  0  0  0  0
    2.8889   -2.8362    0.0000 C   0  0  0  0  0  0  0  0  0  0  0  0
    3.6033   -3.2487    0.0000 C   0  0  0  0  0  0  0  0  0  0  0  0
    4.3178   -2.8362    0.0000 C   0  0  0  0  0  0  0  0  0  0  0  0
    4.3178   -2.0112    0.0000 C   0  0  0  0  0  0  0  0  0  0  0  0
    3.6033   -1.5987    0.0000 C   0  0  0  0  0  0  0  0  0  0  0  0
    3.6033   -0.7737    0.0000 O   0  0  0  0  0  0  0  0  0  0  0  0
    2.8889   -0.3612    0.0000 C   0  0  0  0  0  0  0  0  0  0  0  0
    2.8889    0.4638    0.0000 C   0  0  0  0  0  0  0  0  0  0  0  0
    2.1744    0.8763    0.0000 C   0  0  0  0  0  0  0  0  0  0  0  0
    1.4599    0.4638    0.0000 C   0  0  0  0  0  0  0  0  0  0  0  0
    1.4599   -0.3612    0.0000 C   0  0  0  0  0  0  0  0  0  0  0  0
    2.1744   -0.7737    0.0000 C   0  0  0  0  0  0  0  0  0  0  0  0
    2.8889   -2.0112    0.0000 C   0  0  0  0  0  0  0  0  0  0  0  0
  1  2  1  0  0  0  0
  1  3  2  0  0  0  0
  1  4  1  0  0  0  0
  5  4  1  0  0  0  0
  6  5  2  0  0  0  0
  7  6  1  0  0  0  0
  8  7  2  0  0  0  0
  8  9  1  0  0  0  0
  9 10  1  0  0  0  0
 11 10  1  0  0  0  0
 12 11  2  0  0  0  0
 13 12  1  0  0  0  0
 14 13  2  0  0  0  0
 15 14  1  0  0  0  0
 10 15  2  0  0  0  0
 16  8  1  0  0  0  0
  4 16  2  0  0  0  0
M  END
> <ChemID>
10094

> <CAS>
3739-38-6

> <Original_SMILES>
OC(=O)c1cc(ccc1)Oc1ccccc1

> <preferred_name>
3-Phenoxybenzoic acid

> <dsstox_substance_id>
DTXSID1038321

> <dsstox_compound_id>
DTXCID9018321

> <Canonical_QSARr>
OC(=O)C1=CC(=CC=C1)OC1C=CC=CC=1

> <InChI_Code_QSARr>
InChI=1S/C13H10O3/c14-13(15)10-5-4-8-12(9-10)16-11-6-2-1-3-7-11/h1-9H,(H,14,15)

> <InChI Key_QSARr>
NXTDJHZGHOFSQG-UHFFFAOYSA-N

> <Salt_Solvent>


> <Salt_Solvent_ID>
0

> <Clint>
-7.0

> <Tr_1_Tst_0>
1

$$$$
Row457
  Mrv171c012261910192D          

 28 31  0  0  0  0            999 V2000
    2.5834   -1.8042    0.0000 C   0  0  0  0  0  0  0  0  0  0  0  0
    2.2235   -1.0618    0.0000 C   0  0  0  0  0  0  0  0  0  0  0  0
    3.1152   -1.1734    0.0000 C   0  0  0  0  0  0  0  0  0  0  0  0
    3.9274   -1.3187    0.0000 C   0  0  0  0  0  0  0  0  0  0  0  0
    4.4592   -0.6880    0.0000 O   0  0  0  0  0  0  0  0  0  0  0  0
    4.2077   -2.0946    0.0000 C   0  0  0  0  0  0  0  0  0  0  0  0
    4.7395   -1.4639    0.0000 F   0  0  0  0  0  0  0  0  0  0  0  0
    3.6758   -2.7253    0.0000 C   0  0  0  0  0  0  0  0  0  0  0  0
    3.9561   -3.5012    0.0000 C   0  0  0  0  0  0  0  0  0  0  0  0
    4.7682   -3.6464    0.0000 C   0  0  0  0  0  0  0  0  0  0  0  0
    5.3001   -3.0157    0.0000 C   0  0  0  0  0  0  0  0  0  0  0  0
    6.1122   -3.1609    0.0000 C   0  0  0  0  0  0  0  0  0  0  0  0
    6.6440   -2.5302    0.0000 C   0  0  0  0  0  0  0  0  0  0  0  0
    7.4561   -2.6754    0.0000 O   0  0  0  0  0  0  0  0  0  0  0  0
    6.3637   -1.7543    0.0000 C   0  0  0  0  0  0  0  0  0  0  0  0
    5.5516   -1.6091    0.0000 C   0  0  0  0  0  0  0  0  0  0  0  0
    5.0198   -2.2398    0.0000 C   0  0  0  0  0  0  0  0  0  0  0  0
    5.2491   -1.4473    0.0000 C   0  0  0  0  0  0  0  0  0  0  0  0
    2.8637   -2.5801    0.0000 C   0  0  0  0  0  0  0  0  0  0  0  0
    2.2124   -3.0864    0.0000 C   0  0  0  0  0  0  0  0  0  0  0  0
    1.5295   -2.6235    0.0000 C   0  0  0  0  0  0  0  0  0  0  0  0
    0.7536   -2.9038    0.0000 O   0  0  0  0  0  0  0  0  0  0  0  0
    1.7588   -1.8310    0.0000 C   0  0  0  0  0  0  0  0  0  0  0  0
    1.6374   -1.0149    0.0000 O   0  0  0  0  0  0  0  0  0  0  0  0
    0.9980   -1.5121    0.0000 C   0  0  0  0  0  0  0  0  0  0  0  0
    0.3414   -2.0116    0.0000 C   0  0  0  0  0  0  0  0  0  0  0  0
   -0.4195   -1.6927    0.0000 O   0  0  0  0  0  0  0  0  0  0  0  0
    0.8937   -0.6937    0.0000 O   0  0  0  0  0  0  0  0  0  0  0  0
  1  2  1  0  0  0  0
  3  1  1  0  0  0  0
  4  3  1  0  0  0  0
  4  5  1  0  0  0  0
  6  4  1  0  0  0  0
  6  7  1  0  0  0  0
  6  8  1  0  0  0  0
  8  9  1  0  0  0  0
  9 10  1  0  0  0  0
 10 11  1  0  0  0  0
 12 11  2  0  0  0  0
 13 12  1  0  0  0  0
 13 14  2  0  0  0  0
 15 13  1  0  0  0  0
 16 15  2  0  0  0  0
 17 16  1  0  0  0  0
 11 17  1  0  0  0  0
 17  6  1  0  0  0  0
 17 18  1  0  0  0  0
 19  8  1  0  0  0  0
 19  1  1  0  0  0  0
 20 19  1  0  0  0  0
 21 20  1  0  0  0  0
 21 22  1  0  0  0  0
 23 21  1  0  0  0  0
  1 23  1  0  0  0  0
 23 24  1  0  0  0  0
 23 25  1  0  0  0  0
 25 26  1  0  0  0  0
 26 27  1  0  0  0  0
 25 28  2  0  0  0  0
M  END
> <ChemID>
10095

> <CAS>
124-94-7

> <Original_SMILES>
C[C@]12C=CC(=O)C=C1CC[C@H]1[C@@H]3C[C@@H](O)[C@](O)(C(=O)CO)[C@@]3(C)C[C@H](O)[C@]21F

> <preferred_name>
Triamcinolone

> <dsstox_substance_id>
DTXSID1040742

> <dsstox_compound_id>
DTXCID9020742

> <Canonical_QSARr>
CC12C=CC(=O)C=C1CCC1C3CC(O)C(O)(C(=O)CO)C3(C)CC(O)C21F

> <InChI_Code_QSARr>
InChI=1S/C21H27FO6/c1-18-6-5-12(24)7-11(18)3-4-13-14-8-15(25)21(28,17(27)10-23)19(14,2)9-16(26)20(13,18)22/h5-7,13-16,23,25-26,28H,3-4,8-10H2,1-2H3

> <InChI Key_QSARr>
GFNANZIMVAIWHM-UHFFFAOYSA-N

> <Salt_Solvent>


> <Salt_Solvent_ID>
0

> <Clint>
0.396548037987132

> <Tr_1_Tst_0>
0

$$$$
Row55
  Mrv171c012261910192D          

 23 24  0  0  0  0            999 V2000
    4.3390   -4.4408    0.0000 C   0  0  0  0  0  0  0  0  0  0  0  0
    3.7260   -3.8887    0.0000 C   0  0  0  0  0  0  0  0  0  0  0  0
    2.9413   -4.1437    0.0000 N   0  0  0  0  0  0  0  0  0  0  0  0
    2.2739   -3.6588    0.0000 C   0  0  0  0  0  0  0  0  0  0  0  0
    2.2739   -2.8338    0.0000 C   0  0  0  0  0  0  0  0  0  0  0  0
    2.9884   -2.4213    0.0000 N   0  0  0  0  0  0  0  0  0  0  0  0
    2.9884   -1.5963    0.0000 C   0  0  0  0  0  0  0  0  0  0  0  0
    2.2739   -1.1838    0.0000 O   0  0  0  0  0  0  0  0  0  0  0  0
    3.7028   -1.1838    0.0000 C   0  0  0  0  0  0  0  0  0  0  0  0
    4.4173   -1.5963    0.0000 C   0  0  0  0  0  0  0  0  0  0  0  0
    4.4173   -2.4213    0.0000 O   0  0  0  0  0  0  0  0  0  0  0  0
    5.1318   -2.8338    0.0000 C   0  0  0  0  0  0  0  0  0  0  0  0
    5.1318   -1.1838    0.0000 C   0  0  0  0  0  0  0  0  0  0  0  0
    5.1318   -0.3588    0.0000 C   0  0  0  0  0  0  0  0  0  0  0  0
    4.4173    0.0537    0.0000 C   0  0  0  0  0  0  0  0  0  0  0  0
    4.4173    0.8787    0.0000 S   0  0  0  0  0  0  0  0  0  0  0  0
    4.4173    1.7037    0.0000 O   0  0  0  0  0  0  0  0  0  0  0  0
    5.2423    0.8787    0.0000 O   0  0  0  0  0  0  0  0  0  0  0  0
    3.5923    0.8787    0.0000 N   0  0  0  0  0  0  0  0  0  0  0  0
    3.7028   -0.3588    0.0000 C   0  0  0  0  0  0  0  0  0  0  0  0
    1.6065   -4.1437    0.0000 C   0  0  0  0  0  0  0  0  0  0  0  0
    1.8614   -4.9283    0.0000 C   0  0  0  0  0  0  0  0  0  0  0  0
    2.6864   -4.9283    0.0000 C   0  0  0  0  0  0  0  0  0  0  0  0
  1  2  1  0  0  0  0
  2  3  1  0  0  0  0
  4  3  1  0  0  0  0
  4  5  1  0  0  0  0
  5  6  1  0  0  0  0
  6  7  1  0  0  0  0
  7  8  2  0  0  0  0
  7  9  1  0  0  0  0
 10  9  2  0  0  0  0
 10 11  1  0  0  0  0
 11 12  1  0  0  0  0
 13 10  1  0  0  0  0
 14 13  2  0  0  0  0
 15 14  1  0  0  0  0
 15 16  1  0  0  0  0
 16 17  2  0  0  0  0
 16 18  2  0  0  0  0
 16 19  1  0  0  0  0
 20 15  2  0  0  0  0
  9 20  1  0  0  0  0
 21  4  1  0  0  0  0
 22 21  1  0  0  0  0
 23 22  1  0  0  0  0
  3 23  1  0  0  0  0
M  END
> <ChemID>
10096

> <CAS>
15676-16-1

> <Original_SMILES>
CCN1CCCC1CNC(=O)c1cc(ccc1OC)S(N)(=O)=O

> <preferred_name>
Sulpiride

> <dsstox_substance_id>
DTXSID1042574

> <dsstox_compound_id>
DTXCID9022574

> <Canonical_QSARr>
CCN1CCCC1CNC(=O)C1C=C(C=CC=1OC)S(N)(=O)=O

> <InChI_Code_QSARr>
InChI=1S/C15H23N3O4S/c1-3-18-8-4-5-11(18)10-17-15(19)13-9-12(23(16,20)21)6-7-14(13)22-2/h6-7,9,11H,3-5,8,10H2,1-2H3,(H,17,19)(H2,16,20,21)

> <InChI Key_QSARr>
BGRJTUBHPOOWDU-UHFFFAOYSA-N

> <Salt_Solvent>


> <Salt_Solvent_ID>
0

> <Clint>
-7.0

> <Tr_1_Tst_0>
1

$$$$
Row114
  Mrv171c012261910192D          

 21 23  0  0  0  0            999 V2000
    0.0612    0.7764    0.0000 N   0  0  0  0  0  0  0  0  0  0  0  0
    0.7757    1.1889    0.0000 C   0  0  0  0  0  0  0  0  0  0  0  0
    1.4902    0.7764    0.0000 C   0  0  0  0  0  0  0  0  0  0  0  0
    2.2046    1.1889    0.0000 C   0  0  0  0  0  0  0  0  0  0  0  0
    2.9191    0.7764    0.0000 N   0  0  0  0  0  0  0  0  0  0  0  0
    3.6336    1.1889    0.0000 C   0  0  0  0  0  0  0  0  0  0  0  0
    2.9191   -0.0486    0.0000 C   0  0  0  0  0  0  0  0  0  0  0  0
   -0.6204    1.2412    0.0000 C   0  0  0  0  0  0  0  0  0  0  0  0
   -0.4368    2.0455    0.0000 C   0  0  0  0  0  0  0  0  0  0  0  0
   -1.0416    2.6066    0.0000 C   0  0  0  0  0  0  0  0  0  0  0  0
   -1.8300    2.3634    0.0000 C   0  0  0  0  0  0  0  0  0  0  0  0
   -2.0135    1.5591    0.0000 C   0  0  0  0  0  0  0  0  0  0  0  0
   -1.4088    0.9980    0.0000 C   0  0  0  0  0  0  0  0  0  0  0  0
   -1.7102    0.2300    0.0000 C   0  0  0  0  0  0  0  0  0  0  0  0
   -1.2977   -0.4845    0.0000 C   0  0  0  0  0  0  0  0  0  0  0  0
   -0.4819   -0.6074    0.0000 C   0  0  0  0  0  0  0  0  0  0  0  0
   -0.2983   -1.4117    0.0000 C   0  0  0  0  0  0  0  0  0  0  0  0
    0.4900   -1.6549    0.0000 C   0  0  0  0  0  0  0  0  0  0  0  0
    1.0948   -1.0938    0.0000 C   0  0  0  0  0  0  0  0  0  0  0  0
    0.9112   -0.2894    0.0000 C   0  0  0  0  0  0  0  0  0  0  0  0
    0.1229   -0.0463    0.0000 C   0  0  0  0  0  0  0  0  0  0  0  0
  1  2  1  0  0  0  0
  2  3  1  0  0  0  0
  3  4  1  0  0  0  0
  4  5  1  0  0  0  0
  5  6  1  0  0  0  0
  5  7  1  0  0  0  0
  8  1  1  0  0  0  0
  8  9  2  0  0  0  0
  9 10  1  0  0  0  0
 10 11  2  0  0  0  0
 11 12  1  0  0  0  0
 12 13  2  0  0  0  0
 13  8  1  0  0  0  0
 14 13  1  0  0  0  0
 15 14  1  0  0  0  0
 16 15  1  0  0  0  0
 16 17  2  0  0  0  0
 17 18  1  0  0  0  0
 18 19  2  0  0  0  0
 19 20  1  0  0  0  0
 20 21  2  0  0  0  0
  1 21  1  0  0  0  0
 21 16  1  0  0  0  0
M  END
> <ChemID>
10097

> <CAS>
50-49-7

> <Original_SMILES>
CN(C)CCCN1c2ccccc2CCc2ccccc12

> <preferred_name>
Imipramine

> <dsstox_substance_id>
DTXSID1043881

> <dsstox_compound_id>
DTXCID9023881

> <Canonical_QSARr>
CN(C)CCCN1C2=CC=CC=C2CCC2=CC=CC=C12

> <InChI_Code_QSARr>
InChI=1S/C19H24N2/c1-20(2)14-7-15-21-18-10-5-3-8-16(18)12-13-17-9-4-6-11-19(17)21/h3-6,8-11H,7,12-15H2,1-2H3

> <InChI Key_QSARr>
BCGWQEUPMDMJNV-UHFFFAOYSA-N

> <Salt_Solvent>


> <Salt_Solvent_ID>
0

> <Clint>
0.25042000230889394

> <Tr_1_Tst_0>
1

$$$$
Row456
  Mrv171c012261910192D          

 17 17  0  0  0  0            999 V2000
    1.4558   -1.1550    0.0000 C   0  0  0  0  0  0  0  0  0  0  0  0
    1.8683   -0.4405    0.0000 C   0  0  0  0  0  0  0  0  0  0  0  0
    2.6933   -0.4405    0.0000 C   0  0  0  0  0  0  0  0  0  0  0  0
    1.4558    0.2739    0.0000 C   0  0  0  0  0  0  0  0  0  0  0  0
    0.6308    0.2739    0.0000 C   0  0  0  0  0  0  0  0  0  0  0  0
    0.2183   -0.4405    0.0000 C   0  0  0  0  0  0  0  0  0  0  0  0
    0.6308   -1.1550    0.0000 C   0  0  0  0  0  0  0  0  0  0  0  0
    0.2183   -1.8695    0.0000 C   0  0  0  0  0  0  0  0  0  0  0  0
    1.8683   -1.8695    0.0000 N   0  0  0  0  0  0  0  0  0  0  0  0
    2.6933   -1.8695    0.0000 C   0  0  0  0  0  0  0  0  0  0  0  0
    3.1058   -2.5840    0.0000 C   0  0  0  0  0  0  0  0  0  0  0  0
    3.9308   -2.5840    0.0000 N   0  0  0  0  0  0  0  0  0  0  0  0
    4.3433   -3.2984    0.0000 C   0  0  0  0  0  0  0  0  0  0  0  0
    5.1683   -3.2984    0.0000 C   0  0  0  0  0  0  0  0  0  0  0  0
    4.3433   -1.8695    0.0000 C   0  0  0  0  0  0  0  0  0  0  0  0
    5.1683   -1.8695    0.0000 C   0  0  0  0  0  0  0  0  0  0  0  0
    3.1058   -1.1550    0.0000 O   0  0  0  0  0  0  0  0  0  0  0  0
  2  1  1  0  0  0  0
  2  3  1  0  0  0  0
  4  2  2  0  0  0  0
  5  4  1  0  0  0  0
  6  5  2  0  0  0  0
  7  6  1  0  0  0  0
  1  7  2  0  0  0  0
  7  8  1  0  0  0  0
  1  9  1  0  0  0  0
  9 10  1  0  0  0  0
 10 11  1  0  0  0  0
 11 12  1  0  0  0  0
 12 13  1  0  0  0  0
 13 14  1  0  0  0  0
 12 15  1  0  0  0  0
 15 16  1  0  0  0  0
 10 17  2  0  0  0  0
M  END
> <ChemID>
10098

> <CAS>
137-58-6

> <Original_SMILES>
CCN(CC(=O)Nc1c(C)cccc1C)CC

> <preferred_name>
Lidocaine

> <dsstox_substance_id>
DTXSID1045166

> <dsstox_compound_id>
DTXCID9025166

> <Canonical_QSARr>
CC1C=CC=C(C)C=1NC(=O)CN(CC)CC

> <InChI_Code_QSARr>
InChI=1S/C14H22N2O/c1-5-16(6-2)10-13(17)15-14-11(3)8-7-9-12(14)4/h7-9H,5-6,10H2,1-4H3,(H,15,17)

> <InChI Key_QSARr>
NNJVILVZKWQKPM-UHFFFAOYSA-N

> <Salt_Solvent>


> <Salt_Solvent_ID>
0

> <Clint>
0.3856062735983122

> <Tr_1_Tst_0>
0

$$$$
Row470
  Mrv171c012261910192D          

 25 26  0  0  0  0            999 V2000
    2.3745   -2.1365    0.0000 C   0  0  0  0  0  0  0  0  0  0  0  0
    2.3745   -2.9615    0.0000 C   0  0  0  0  0  0  0  0  0  0  0  0
    1.6600   -3.3740    0.0000 C   0  0  0  0  0  0  0  0  0  0  0  0
    1.6600   -4.1990    0.0000 C   0  0  0  0  0  0  0  0  0  0  0  0
    2.3745   -4.6115    0.0000 C   0  0  0  0  0  0  0  0  0  0  0  0
    3.0890   -4.1990    0.0000 C   0  0  0  0  0  0  0  0  0  0  0  0
    3.0890   -3.3740    0.0000 C   0  0  0  0  0  0  0  0  0  0  0  0
    3.1995   -2.1365    0.0000 C   0  0  0  0  0  0  0  0  0  0  0  0
    3.6120   -2.8510    0.0000 C   0  0  0  0  0  0  0  0  0  0  0  0
    4.4370   -2.8510    0.0000 C   0  0  0  0  0  0  0  0  0  0  0  0
    4.8495   -2.1365    0.0000 C   0  0  0  0  0  0  0  0  0  0  0  0
    4.4370   -1.4220    0.0000 C   0  0  0  0  0  0  0  0  0  0  0  0
    3.6120   -1.4220    0.0000 N   0  0  0  0  0  0  0  0  0  0  0  0
    2.3745   -1.3115    0.0000 C   0  0  0  0  0  0  0  0  0  0  0  0
    3.0890   -0.8990    0.0000 C   0  0  0  0  0  0  0  0  0  0  0  0
    3.0890   -0.0740    0.0000 N   0  0  0  0  0  0  0  0  0  0  0  0
    3.8035    0.3385    0.0000 C   0  0  0  0  0  0  0  0  0  0  0  0
    3.8035    1.1635    0.0000 C   0  0  0  0  0  0  0  0  0  0  0  0
    4.5179   -0.0740    0.0000 C   0  0  0  0  0  0  0  0  0  0  0  0
    2.3745    0.3385    0.0000 C   0  0  0  0  0  0  0  0  0  0  0  0
    2.3745    1.1635    0.0000 C   0  0  0  0  0  0  0  0  0  0  0  0
    1.6600   -0.0740    0.0000 C   0  0  0  0  0  0  0  0  0  0  0  0
    1.5495   -2.1365    0.0000 C   0  0  0  0  0  0  0  0  0  0  0  0
    1.1370   -1.4220    0.0000 N   0  0  0  0  0  0  0  0  0  0  0  0
    1.1370   -2.8510    0.0000 O   0  0  0  0  0  0  0  0  0  0  0  0
  1  2  1  0  0  0  0
  3  2  1  0  0  0  0
  4  3  2  0  0  0  0
  5  4  1  0  0  0  0
  6  5  2  0  0  0  0
  7  6  1  0  0  0  0
  2  7  2  0  0  0  0
  1  8  1  0  0  0  0
  9  8  2  0  0  0  0
 10  9  1  0  0  0  0
 11 10  2  0  0  0  0
 12 11  1  0  0  0  0
 13 12  2  0  0  0  0
  8 13  1  0  0  0  0
  1 14  1  0  0  0  0
 14 15  1  0  0  0  0
 15 16  1  0  0  0  0
 16 17  1  0  0  0  0
 17 18  1  0  0  0  0
 17 19  1  0  0  0  0
 16 20  1  0  0  0  0
 20 21  1  0  0  0  0
 20 22  1  0  0  0  0
  1 23  1  0  0  0  0
 23 24  1  0  0  0  0
 23 25  2  0  0  0  0
M  END
> <ChemID>
10099

> <CAS>
3737-09-5

> <Original_SMILES>
CC(C)N(CCC(C(N)=O)(c1cccc[n]1)c1ccccc1)C(C)C

> <preferred_name>
Disopyramide

> <dsstox_substance_id>
DTXSID1045536

> <dsstox_compound_id>
DTXCID9025536

> <Canonical_QSARr>
CC(C)N(CCC(C(N)=O)(C1=CC=CC=N1)C1C=CC=CC=1)C(C)C

> <InChI_Code_QSARr>
InChI=1S/C21H29N3O/c1-16(2)24(17(3)4)15-13-21(20(22)25,18-10-6-5-7-11-18)19-12-8-9-14-23-19/h5-12,14,16-17H,13,15H2,1-4H3,(H2,22,25)

> <InChI Key_QSARr>
UVTNFZQICZKOEM-UHFFFAOYSA-N

> <Salt_Solvent>


> <Salt_Solvent_ID>
0

> <Clint>
0.6989700043360187

> <Tr_1_Tst_0>
0

$$$$
Row158
  Mrv171c012261910192D          

 21 24  0  0  0  0            999 V2000
    4.2901   -0.8251    0.0000 N   0  0  0  0  0  0  0  0  0  0  0  0
    3.5756   -1.2376    0.0000 C   0  0  0  0  0  0  0  0  0  0  0  0
    3.5756   -2.0626    0.0000 C   0  0  0  0  0  0  0  0  0  0  0  0
    2.8612   -2.4751    0.0000 N   0  0  0  0  0  0  0  0  0  0  0  0
    2.8612   -3.3001    0.0000 C   0  0  0  0  0  0  0  0  0  0  0  0
    2.1467   -3.7126    0.0000 C   0  0  0  0  0  0  0  0  0  0  0  0
    1.4322   -3.3001    0.0000 C   0  0  0  0  0  0  0  0  0  0  0  0
    0.7178   -3.7126    0.0000 C   0  0  0  0  0  0  0  0  0  0  0  0
    0.7178   -4.5376    0.0000 C   0  0  0  0  0  0  0  0  0  0  0  0
    0.0033   -4.9501    0.0000 O   0  0  0  0  0  0  0  0  0  0  0  0
   -0.7112   -4.5376    0.0000 C   0  0  0  0  0  0  0  0  0  0  0  0
   -0.7112   -3.7126    0.0000 C   0  0  0  0  0  0  0  0  0  0  0  0
    0.0033   -3.3001    0.0000 O   0  0  0  0  0  0  0  0  0  0  0  0
    1.4322   -4.9501    0.0000 C   0  0  0  0  0  0  0  0  0  0  0  0
    2.1467   -4.5376    0.0000 C   0  0  0  0  0  0  0  0  0  0  0  0
    3.5756   -3.7126    0.0000 O   0  0  0  0  0  0  0  0  0  0  0  0
    4.2901   -2.4751    0.0000 C   0  0  0  0  0  0  0  0  0  0  0  0
    5.0046   -2.0626    0.0000 C   0  0  0  0  0  0  0  0  0  0  0  0
    5.0046   -1.2376    0.0000 C   0  0  0  0  0  0  0  0  0  0  0  0
    4.4276   -1.9251    0.0000 C   0  0  0  0  0  0  0  0  0  0  0  0
    4.4276   -1.3751    0.0000 C   0  0  0  0  0  0  0  0  0  0  0  0
  2  1  1  0  0  0  0
  3  2  1  0  0  0  0
  3  4  1  0  0  0  0
  4  5  1  0  0  0  0
  5  6  1  0  0  0  0
  7  6  2  0  0  0  0
  8  7  1  0  0  0  0
  8  9  2  0  0  0  0
  9 10  1  0  0  0  0
 10 11  1  0  0  0  0
 11 12  1  0  0  0  0
 12 13  1  0  0  0  0
 13  8  1  0  0  0  0
 14  9  1  0  0  0  0
 15 14  2  0  0  0  0
  6 15  1  0  0  0  0
  5 16  2  0  0  0  0
 17  3  1  0  0  0  0
 17 18  1  0  0  0  0
 18 19  1  0  0  0  0
 19  1  1  0  0  0  0
 20 17  1  0  0  0  0
 21 20  1  0  0  0  0
  1 21  1  0  0  0  0
M  END
> <ChemID>
10100

> <CAS>
527680-56-4

> <Original_SMILES>
O=C(N[C@H]1CN2CCC1CC2)c1ccc2OCCOc2c1

> <preferred_name>
PHA-00568487

> <dsstox_substance_id>
DTXSID1047285

> <dsstox_compound_id>
DTXCID9027285

> <Canonical_QSARr>
O=C(NC1CN2CCC1CC2)C1C=CC2OCCOC=2C=1

> <InChI_Code_QSARr>
InChI=1S/C16H20N2O3/c19-16(17-13-10-18-5-3-11(13)4-6-18)12-1-2-14-15(9-12)21-8-7-20-14/h1-2,9,11,13H,3-8,10H2,(H,17,19)

> <InChI Key_QSARr>
LUVXHMJTVXZFPD-UHFFFAOYSA-N

> <Salt_Solvent>


> <Salt_Solvent_ID>
0

> <Clint>
0.5667909123815917

> <Tr_1_Tst_0>
1

$$$$
Row123
  Mrv171c012261910192D          

 50 53  0  0  0  0            999 V2000
    9.0507   -2.6128    0.0000 C   0  0  0  0  0  0  0  0  0  0  0  0
    8.7229   -1.8557    0.0000 O   0  0  0  0  0  0  0  0  0  0  0  0
    8.5590   -3.2752    0.0000 N   0  0  0  0  0  0  0  0  0  0  0  0
    7.7394   -3.1806    0.0000 C   0  0  0  0  0  0  0  0  0  0  0  0
    7.2477   -3.8430    0.0000 C   0  0  0  0  0  0  0  0  0  0  0  0
    7.5755   -4.6001    0.0000 O   0  0  0  0  0  0  0  0  0  0  0  0
    6.4282   -3.7484    0.0000 N   0  0  0  0  0  0  0  0  0  0  0  0
    5.9364   -4.4108    0.0000 C   0  0  0  0  0  0  0  0  0  0  0  0
    6.2642   -5.1679    0.0000 C   0  0  0  0  0  0  0  0  0  0  0  0
    5.7725   -5.8303    0.0000 C   0  0  0  0  0  0  0  0  0  0  0  0
    4.9530   -5.7357    0.0000 C   0  0  0  0  0  0  0  0  0  0  0  0
    4.4612   -6.3981    0.0000 C   0  0  0  0  0  0  0  0  0  0  0  0
    4.7890   -7.1552    0.0000 C   0  0  0  0  0  0  0  0  0  0  0  0
    5.6086   -7.2498    0.0000 C   0  0  0  0  0  0  0  0  0  0  0  0
    6.1003   -6.5874    0.0000 C   0  0  0  0  0  0  0  0  0  0  0  0
    5.1169   -4.3162    0.0000 C   0  0  0  0  0  0  0  0  0  0  0  0
    4.6251   -4.9786    0.0000 C   0  0  0  0  0  0  0  0  0  0  0  0
    4.4454   -5.7838    0.0000 O   0  0  0  0  0  0  0  0  0  0  0  0
    3.8056   -4.8840    0.0000 C   0  0  0  0  0  0  0  0  0  0  0  0
    3.4778   -4.1269    0.0000 N   0  0  0  0  0  0  0  0  0  0  0  0
    3.9695   -3.4645    0.0000 C   0  0  0  0  0  0  0  0  0  0  0  0
    4.7890   -3.5591    0.0000 O   0  0  0  0  0  0  0  0  0  0  0  0
    3.6417   -2.7074    0.0000 O   0  0  0  0  0  0  0  0  0  0  0  0
    4.1334   -2.0450    0.0000 C   0  0  0  0  0  0  0  0  0  0  0  0
    3.8056   -1.2879    0.0000 C   0  0  0  0  0  0  0  0  0  0  0  0
    4.2254   -0.5777    0.0000 S   0  0  0  0  0  0  0  0  0  0  0  0
    3.6796    0.0410    0.0000 C   0  0  0  0  0  0  0  0  0  0  0  0
    2.9226   -0.2868    0.0000 N   0  0  0  0  0  0  0  0  0  0  0  0
    3.0004   -1.1081    0.0000 C   0  0  0  0  0  0  0  0  0  0  0  0
    3.3138   -5.5464    0.0000 C   0  0  0  0  0  0  0  0  0  0  0  0
    2.4943   -5.4518    0.0000 C   0  0  0  0  0  0  0  0  0  0  0  0
    2.1665   -4.6947    0.0000 C   0  0  0  0  0  0  0  0  0  0  0  0
    1.3469   -4.6001    0.0000 C   0  0  0  0  0  0  0  0  0  0  0  0
    0.8552   -5.2625    0.0000 C   0  0  0  0  0  0  0  0  0  0  0  0
    1.1830   -6.0196    0.0000 C   0  0  0  0  0  0  0  0  0  0  0  0
    2.0026   -6.1142    0.0000 C   0  0  0  0  0  0  0  0  0  0  0  0
    7.4116   -2.4235    0.0000 C   0  0  0  0  0  0  0  0  0  0  0  0
    6.5921   -2.3289    0.0000 C   0  0  0  0  0  0  0  0  0  0  0  0
    7.9034   -1.7611    0.0000 C   0  0  0  0  0  0  0  0  0  0  0  0
    9.8703   -2.7074    0.0000 N   0  0  0  0  0  0  0  0  0  0  0  0
   10.1981   -3.4645    0.0000 C   0  0  0  0  0  0  0  0  0  0  0  0
   10.3620   -2.0450    0.0000 C   0  0  0  0  0  0  0  0  0  0  0  0
   11.1816   -2.1396    0.0000 C   0  0  0  0  0  0  0  0  0  0  0  0
   11.5867   -2.8582    0.0000 C   0  0  0  0  0  0  0  0  0  0  0  0
   12.3954   -2.6950    0.0000 S   0  0  0  0  0  0  0  0  0  0  0  0
   12.4900   -1.8754    0.0000 C   0  0  0  0  0  0  0  0  0  0  0  0
   13.2087   -1.4703    0.0000 C   0  0  0  0  0  0  0  0  0  0  0  0
   13.2172   -0.6453    0.0000 C   0  0  0  0  0  0  0  0  0  0  0  0
   13.9189   -1.8901    0.0000 C   0  0  0  0  0  0  0  0  0  0  0  0
   11.7399   -1.5322    0.0000 N   0  0  0  0  0  0  0  0  0  0  0  0
  1  2  2  0  0  0  0
  1  3  1  0  0  0  0
  3  4  1  0  0  0  0
  4  5  1  0  0  0  0
  5  6  2  0  0  0  0
  5  7  1  0  0  0  0
  7  8  1  0  0  0  0
  8  9  1  0  0  0  0
  9 10  1  0  0  0  0
 11 10  2  0  0  0  0
 12 11  1  0  0  0  0
 13 12  2  0  0  0  0
 14 13  1  0  0  0  0
 15 14  2  0  0  0  0
 10 15  1  0  0  0  0
  8 16  1  0  0  0  0
 16 17  1  0  0  0  0
 17 18  1  0  0  0  0
 17 19  1  0  0  0  0
 19 20  1  0  0  0  0
 20 21  1  0  0  0  0
 21 22  2  0  0  0  0
 21 23  1  0  0  0  0
 23 24  1  0  0  0  0
 24 25  1  0  0  0  0
 26 25  1  0  0  0  0
 27 26  1  0  0  0  0
 28 27  2  0  0  0  0
 29 28  1  0  0  0  0
 25 29  2  0  0  0  0
 19 30  1  0  0  0  0
 30 31  1  0  0  0  0
 32 31  2  0  0  0  0
 33 32  1  0  0  0  0
 34 33  2  0  0  0  0
 35 34  1  0  0  0  0
 36 35  2  0  0  0  0
 31 36  1  0  0  0  0
  4 37  1  0  0  0  0
 37 38  1  0  0  0  0
 37 39  1  0  0  0  0
  1 40  1  0  0  0  0
 40 41  1  0  0  0  0
 40 42  1  0  0  0  0
 42 43  1  0  0  0  0
 44 43  2  0  0  0  0
 45 44  1  0  0  0  0
 46 45  1  0  0  0  0
 46 47  1  0  0  0  0
 47 48  1  0  0  0  0
 47 49  1  0  0  0  0
 50 46  2  0  0  0  0
 43 50  1  0  0  0  0
M  END
> <ChemID>
10101

> <CAS>
155213-67-5

> <Original_SMILES>
CN(Cc1c[s]c([n]1)C(C)C)C(=O)N[C@@H](C(C)C)C(=O)N[C@H](C[C@H](O)[C@H](Cc1ccccc1)NC(=O)OCc1c[n]c[s]1)Cc1ccccc1

> <preferred_name>
Ritonavir

> <dsstox_substance_id>
DTXSID1048627

> <dsstox_compound_id>
DTXCID8028553

> <Canonical_QSARr>
CN(CC1=CSC(=N1)C(C)C)C(=O)NC(C(C)C)C(=O)NC(CC(O)C(CC1=CC=CC=C1)NC(=O)OCC1=CN=CS1)CC1=CC=CC=C1

> <InChI_Code_QSARr>
InChI=1S/C37H48N6O5S2/c1-24(2)33(42-36(46)43(5)20-29-22-49-35(40-29)25(3)4)34(45)39-28(16-26-12-8-6-9-13-26)18-32(44)31(17-27-14-10-7-11-15-27)41-37(47)48-21-30-19-38-23-50-30/h6-15,19,22-25,28,31-33,44H,16-18,20-21H2,1-5H3,(H,39,45)(H,41,47)(H,42,46)

> <InChI Key_QSARr>
NCDNCNXCDXHOMX-UHFFFAOYSA-N

> <Salt_Solvent>


> <Salt_Solvent_ID>
0

> <Clint>
0.32221929473391925

> <Tr_1_Tst_0>
1

$$$$
Row132
  Mrv171c012261910192D          

 11 11  0  0  0  0            999 V2000
    1.6185   -2.2199    0.0000 C   0  0  0  0  0  0  0  0  0  0  0  0
    1.6185   -3.0449    0.0000 C   0  0  0  0  0  0  0  0  0  0  0  0
    0.9041   -1.8074    0.0000 O   0  0  0  0  0  0  0  0  0  0  0  0
    2.3330   -1.8074    0.0000 N   0  0  0  0  0  0  0  0  0  0  0  0
    2.3330   -0.9824    0.0000 C   0  0  0  0  0  0  0  0  0  0  0  0
    3.0475   -0.5699    0.0000 C   0  0  0  0  0  0  0  0  0  0  0  0
    3.0475    0.2551    0.0000 C   0  0  0  0  0  0  0  0  0  0  0  0
    2.3330    0.6676    0.0000 C   0  0  0  0  0  0  0  0  0  0  0  0
    2.3330    1.4926    0.0000 O   0  0  0  0  0  0  0  0  0  0  0  0
    1.6185    0.2551    0.0000 C   0  0  0  0  0  0  0  0  0  0  0  0
    1.6185   -0.5699    0.0000 C   0  0  0  0  0  0  0  0  0  0  0  0
  1  2  1  0  0  0  0
  1  3  2  0  0  0  0
  1  4  1  0  0  0  0
  4  5  1  0  0  0  0
  6  5  1  0  0  0  0
  7  6  2  0  0  0  0
  8  7  1  0  0  0  0
  8  9  1  0  0  0  0
 10  8  2  0  0  0  0
 11 10  1  0  0  0  0
  5 11  2  0  0  0  0
M  END
> <ChemID>
10102

> <CAS>
103-90-2

> <Original_SMILES>
CC(=O)Nc1ccc(O)cc1

> <preferred_name>
Acetaminophen

> <dsstox_substance_id>
DTXSID2020006

> <dsstox_compound_id>
DTXCID606

> <Canonical_QSARr>
CC(=O)NC1C=CC(O)=CC=1

> <InChI_Code_QSARr>
InChI=1S/C8H9NO2/c1-6(10)9-7-2-4-8(11)5-3-7/h2-5,11H,1H3,(H,9,10)

> <InChI Key_QSARr>
RZVAJINKPMORJF-UHFFFAOYSA-N

> <Salt_Solvent>


> <Salt_Solvent_ID>
0

> <Clint>
0.3877456596088637

> <Tr_1_Tst_0>
1

$$$$
Row197
  Mrv171c012261910192D          

 14 15  0  0  0  0            999 V2000
    2.8871   -3.5994    0.0000 N   0  0  0  0  0  0  0  0  0  0  0  0
    2.8871   -2.7744    0.0000 C   0  0  0  0  0  0  0  0  0  0  0  0
    3.6016   -2.3619    0.0000 C   0  0  0  0  0  0  0  0  0  0  0  0
    3.6016   -1.5369    0.0000 C   0  0  0  0  0  0  0  0  0  0  0  0
    2.8871   -1.1244    0.0000 C   0  0  0  0  0  0  0  0  0  0  0  0
    2.8871   -0.2994    0.0000 C   0  0  0  0  0  0  0  0  0  0  0  0
    3.6016    0.1131    0.0000 C   0  0  0  0  0  0  0  0  0  0  0  0
    3.6016    0.9381    0.0000 C   0  0  0  0  0  0  0  0  0  0  0  0
    2.8871    1.3506    0.0000 C   0  0  0  0  0  0  0  0  0  0  0  0
    2.8871    2.1756    0.0000 N   0  0  0  0  0  0  0  0  0  0  0  0
    2.1726    0.9381    0.0000 C   0  0  0  0  0  0  0  0  0  0  0  0
    2.1726    0.1131    0.0000 C   0  0  0  0  0  0  0  0  0  0  0  0
    2.1726   -1.5369    0.0000 C   0  0  0  0  0  0  0  0  0  0  0  0
    2.1726   -2.3619    0.0000 C   0  0  0  0  0  0  0  0  0  0  0  0
  1  2  1  0  0  0  0
  3  2  1  0  0  0  0
  4  3  2  0  0  0  0
  5  4  1  0  0  0  0
  5  6  1  0  0  0  0
  7  6  1  0  0  0  0
  8  7  2  0  0  0  0
  9  8  1  0  0  0  0
  9 10  1  0  0  0  0
 11  9  2  0  0  0  0
 12 11  1  0  0  0  0
  6 12  2  0  0  0  0
 13  5  2  0  0  0  0
 14 13  1  0  0  0  0
  2 14  2  0  0  0  0
M  END
> <ChemID>
10103

> <CAS>
92-87-5

> <Original_SMILES>
Nc1ccc(cc1)-c1ccc(N)cc1

> <preferred_name>
Benzidine

> <dsstox_substance_id>
DTXSID2020137

> <dsstox_compound_id>
DTXCID80137

> <Canonical_QSARr>
NC1C=CC(=CC=1)C1C=CC(N)=CC=1

> <InChI_Code_QSARr>
InChI=1S/C12H12N2/c13-11-5-1-9(2-6-11)10-3-7-12(14)8-4-10/h1-8H,13-14H2

> <InChI Key_QSARr>
HFACYLZERDEVSX-UHFFFAOYSA-N

> <Salt_Solvent>


> <Salt_Solvent_ID>
0

> <Clint>
0.8394780473741984

> <Tr_1_Tst_0>
1

$$$$
Row322
  Mrv171c012261910192D          

 22 26  0  0  0  0            999 V2000
    1.4114   -2.8383    0.0000 C   0  0  0  0  0  0  0  0  0  0  0  0
    0.5476   -2.6159    0.0000 C   0  0  0  0  0  0  0  0  0  0  0  0
   -0.2612   -3.1464    0.0000 C   0  0  0  0  0  0  0  0  0  0  0  0
   -0.0192   -3.9823    0.0000 N   0  0  0  0  0  0  0  0  0  0  0  0
   -0.5921   -4.5760    0.0000 C   0  0  0  0  0  0  0  0  0  0  0  0
    0.8283   -4.1952    0.0000 C   0  0  0  0  0  0  0  0  0  0  0  0
    1.6241   -4.5153    0.0000 C   0  0  0  0  0  0  0  0  0  0  0  0
    2.3241   -4.0005    0.0000 C   0  0  0  0  0  0  0  0  0  0  0  0
    3.1396   -4.1702    0.0000 C   0  0  0  0  0  0  0  0  0  0  0  0
    3.7221   -3.5722    0.0000 C   0  0  0  0  0  0  0  0  0  0  0  0
    3.4922   -2.7697    0.0000 C   0  0  0  0  0  0  0  0  0  0  0  0
    4.0769   -2.1877    0.0000 O   0  0  0  0  0  0  0  0  0  0  0  0
    3.8652   -1.3903    0.0000 C   0  0  0  0  0  0  0  0  0  0  0  0
    2.6941   -2.5369    0.0000 C   0  0  0  0  0  0  0  0  0  0  0  0
    2.2467   -1.8149    0.0000 O   0  0  0  0  0  0  0  0  0  0  0  0
    1.4164   -1.9969    0.0000 C   0  0  0  0  0  0  0  0  0  0  0  0
    0.5948   -1.7503    0.0000 C   0  0  0  0  0  0  0  0  0  0  0  0
    0.4158   -0.9450    0.0000 O   0  0  0  0  0  0  0  0  0  0  0  0
   -0.0422   -2.3193    0.0000 C   0  0  0  0  0  0  0  0  0  0  0  0
    0.2802   -3.1769    0.0000 C   0  0  0  0  0  0  0  0  0  0  0  0
    1.0666   -3.4350    0.0000 C   0  0  0  0  0  0  0  0  0  0  0  0
    2.1608   -3.1638    0.0000 C   0  0  0  0  0  0  0  0  0  0  0  0
  2  1  1  0  0  0  0
  3  2  1  0  0  0  0
  4  3  1  0  0  0  0
  4  5  1  0  0  0  0
  6  4  1  0  0  0  0
  6  7  1  0  0  0  0
  7  8  1  0  0  0  0
  8  9  1  0  0  0  0
  9 10  2  0  0  0  0
 10 11  1  0  0  0  0
 11 12  1  0  0  0  0
 12 13  1  0  0  0  0
 11 14  2  0  0  0  0
 14 15  1  0  0  0  0
 15 16  1  0  0  0  0
 16  1  1  0  0  0  0
 16 17  1  0  0  0  0
 17 18  1  0  0  0  0
 17 19  1  0  0  0  0
 19 20  2  0  0  0  0
 20 21  1  0  0  0  0
 21  1  1  0  0  0  0
 21  6  1  0  0  0  0
 14 22  1  0  0  0  0
  1 22  1  0  0  0  0
 22  8  2  0  0  0  0
M  END
> <ChemID>
10104

> <CAS>
76-57-3

> <Original_SMILES>
COc1ccc2C[C@@H]3[C@@H]4C=C[C@H](O)[C@@H]5Oc1c2[C@]45CCN3C

> <preferred_name>
Codeine

> <dsstox_substance_id>
DTXSID2020341

> <dsstox_compound_id>
DTXCID40341

> <Canonical_QSARr>
COC1C=CC2CC3C4C=CC(O)C5OC=1C=2C45CCN3C

> <InChI_Code_QSARr>
InChI=1S/C18H21NO3/c1-19-8-7-18-11-4-5-13(20)17(18)22-16-14(21-2)6-3-10(15(16)18)9-12(11)19/h3-6,11-13,17,20H,7-9H2,1-2H3

> <InChI Key_QSARr>
OROGSEYTTFOCAN-UHFFFAOYSA-N

> <Salt_Solvent>


> <Salt_Solvent_ID>
0

> <Clint>
1.3617278360175928

> <Tr_1_Tst_0>
1

$$$$
Row526
  Mrv171c012261910192D          

 22 23  0  0  0  0            999 V2000
    1.6463    0.8225    0.0000 C   0  0  0  0  0  0  0  0  0  0  0  0
    1.6463   -0.0025    0.0000 C   0  0  0  0  0  0  0  0  0  0  0  0
    2.3608   -0.4150    0.0000 C   0  0  0  0  0  0  0  0  0  0  0  0
    3.0752   -0.0025    0.0000 C   0  0  0  0  0  0  0  0  0  0  0  0
    3.7897   -0.4150    0.0000 C   0  0  0  0  0  0  0  0  0  0  0  0
    3.7897   -1.2400    0.0000 C   0  0  0  0  0  0  0  0  0  0  0  0
    4.5042   -1.6525    0.0000 O   0  0  0  0  0  0  0  0  0  0  0  0
    4.5042   -2.4775    0.0000 P   0  0  0  0  0  0  0  0  0  0  0  0
    4.5042   -3.3025    0.0000 O   0  0  0  0  0  0  0  0  0  0  0  0
    5.2187   -3.7150    0.0000 C   0  0  0  0  0  0  0  0  0  0  0  0
    5.2187   -4.5400    0.0000 C   0  0  0  0  0  0  0  0  0  0  0  0
    5.3292   -2.4775    0.0000 O   0  0  0  0  0  0  0  0  0  0  0  0
    5.7417   -3.1920    0.0000 C   0  0  0  0  0  0  0  0  0  0  0  0
    6.5667   -3.1920    0.0000 C   0  0  0  0  0  0  0  0  0  0  0  0
    3.6792   -2.4775    0.0000 S   0  0  0  0  0  0  0  0  0  0  0  0
    3.0752   -1.6525    0.0000 C   0  0  0  0  0  0  0  0  0  0  0  0
    2.3608   -1.2400    0.0000 C   0  0  0  0  0  0  0  0  0  0  0  0
    1.6463   -1.6525    0.0000 O   0  0  0  0  0  0  0  0  0  0  0  0
    0.9318   -1.2400    0.0000 C   0  0  0  0  0  0  0  0  0  0  0  0
    0.2174   -1.6525    0.0000 O   0  0  0  0  0  0  0  0  0  0  0  0
    0.9318   -0.4150    0.0000 C   0  0  0  0  0  0  0  0  0  0  0  0
    0.2174   -0.0025    0.0000 Cl  0  0  0  0  0  0  0  0  0  0  0  0
  1  2  1  0  0  0  0
  3  2  1  0  0  0  0
  3  4  1  0  0  0  0
  4  5  2  0  0  0  0
  5  6  1  0  0  0  0
  6  7  1  0  0  0  0
  7  8  1  0  0  0  0
  8  9  1  0  0  0  0
  9 10  1  0  0  0  0
 10 11  1  0  0  0  0
  8 12  1  0  0  0  0
 12 13  1  0  0  0  0
 13 14  1  0  0  0  0
  8 15  2  0  0  0  0
  6 16  2  0  0  0  0
 16 17  1  0  0  0  0
 17  3  2  0  0  0  0
 18 17  1  0  0  0  0
 19 18  1  0  0  0  0
 19 20  2  0  0  0  0
 21 19  1  0  0  0  0
  2 21  2  0  0  0  0
 21 22  1  0  0  0  0
M  END
> <ChemID>
10105

> <CAS>
56-72-4

> <Original_SMILES>
CC1c2ccc(cc2OC(=O)C=1Cl)OP(=S)(OCC)OCC

> <preferred_name>
Coumaphos

> <dsstox_substance_id>
DTXSID2020347

> <dsstox_compound_id>
DTXCID20347

> <Canonical_QSARr>
CC1C2C=CC(=CC=2OC(=O)C=1Cl)OP(=S)(OCC)OCC

> <InChI_Code_QSARr>
InChI=1S/C14H16ClO5PS/c1-4-17-21(22,18-5-2)20-10-6-7-11-9(3)13(15)14(16)19-12(11)8-10/h6-8H,4-5H2,1-3H3

> <InChI Key_QSARr>
BXNANOICGRISHX-UHFFFAOYSA-N

> <Salt_Solvent>


> <Salt_Solvent_ID>
0

> <Clint>
1.4452927694259716

> <Tr_1_Tst_0>
0

$$$$
Row180
  Mrv171c012261910192D          

 16 16  0  0  0  0            999 V2000
    4.1771   -2.4780    0.0000 C   0  0  0  0  0  0  0  0  0  0  0  0
    3.7646   -3.1925    0.0000 C   0  0  0  0  0  0  0  0  0  0  0  0
    3.3521   -3.9070    0.0000 C   0  0  0  0  0  0  0  0  0  0  0  0
    4.4791   -3.6050    0.0000 C   0  0  0  0  0  0  0  0  0  0  0  0
    5.1935   -4.0175    0.0000 C   0  0  0  0  0  0  0  0  0  0  0  0
    3.0501   -2.7800    0.0000 N   0  0  0  0  0  0  0  0  0  0  0  0
    3.0501   -1.9550    0.0000 C   0  0  0  0  0  0  0  0  0  0  0  0
    2.3357   -1.5425    0.0000 C   0  0  0  0  0  0  0  0  0  0  0  0
    2.3357   -0.7175    0.0000 C   0  0  0  0  0  0  0  0  0  0  0  0
    1.6212   -0.3050    0.0000 C   0  0  0  0  0  0  0  0  0  0  0  0
    1.6212    0.5200    0.0000 Cl  0  0  0  0  0  0  0  0  0  0  0  0
    0.9067   -0.7175    0.0000 C   0  0  0  0  0  0  0  0  0  0  0  0
    0.9067   -1.5425    0.0000 C   0  0  0  0  0  0  0  0  0  0  0  0
    0.1923   -1.9550    0.0000 Cl  0  0  0  0  0  0  0  0  0  0  0  0
    1.6212   -1.9550    0.0000 C   0  0  0  0  0  0  0  0  0  0  0  0
    3.7646   -1.5425    0.0000 O   0  0  0  0  0  0  0  0  0  0  0  0
  1  2  1  0  0  0  0
  2  3  1  0  0  0  0
  2  4  1  0  0  0  0
  4  5  3  0  0  0  0
  2  6  1  0  0  0  0
  6  7  1  0  0  0  0
  7  8  1  0  0  0  0
  9  8  1  0  0  0  0
 10  9  2  0  0  0  0
 10 11  1  0  0  0  0
 12 10  1  0  0  0  0
 13 12  2  0  0  0  0
 13 14  1  0  0  0  0
 15 13  1  0  0  0  0
  8 15  2  0  0  0  0
  7 16  2  0  0  0  0
M  END
> <ChemID>
10106

> <CAS>
23950-58-5

> <Original_SMILES>
CC(C)(C#C)NC(=O)c1cc(Cl)cc(Cl)c1

> <preferred_name>
Propyzamide

> <dsstox_substance_id>
DTXSID2020420

> <dsstox_compound_id>
DTXCID80420

> <Canonical_QSARr>
CC(C)(C#C)NC(=O)C1C=C(Cl)C=C(Cl)C=1

> <InChI_Code_QSARr>
InChI=1S/C12H11Cl2NO/c1-4-12(2,3)15-11(16)8-5-9(13)7-10(14)6-8/h1,5-7H,2-3H3,(H,15,16)

> <InChI Key_QSARr>
PHNUZKMIPFFYSO-UHFFFAOYSA-N

> <Salt_Solvent>


> <Salt_Solvent_ID>
0

> <Clint>
0.7323937598229685

> <Tr_1_Tst_0>
1

$$$$
Row168
  Mrv171c012261910192D          

 12 12  0  0  0  0            999 V2000
    3.1031   -2.9744    0.0000 O   0  0  0  0  0  0  0  0  0  0  0  0
    3.1031   -2.1494    0.0000 N   0  3  0  0  0  0  0  0  0  0  0  0
    3.8175   -1.7369    0.0000 O   0  5  0  0  0  0  0  0  0  0  0  0
    2.3886   -1.7369    0.0000 C   0  0  0  0  0  0  0  0  0  0  0  0
    2.3886   -0.9119    0.0000 C   0  0  0  0  0  0  0  0  0  0  0  0
    1.6741   -0.4994    0.0000 C   0  0  0  0  0  0  0  0  0  0  0  0
    1.6741    0.3256    0.0000 Cl  0  0  0  0  0  0  0  0  0  0  0  0
    0.9597   -0.9119    0.0000 C   0  0  0  0  0  0  0  0  0  0  0  0
    0.2452   -0.4994    0.0000 N   0  0  0  0  0  0  0  0  0  0  0  0
    0.9597   -1.7369    0.0000 C   0  0  0  0  0  0  0  0  0  0  0  0
    0.2452   -2.1494    0.0000 Cl  0  0  0  0  0  0  0  0  0  0  0  0
    1.6741   -2.1494    0.0000 C   0  0  0  0  0  0  0  0  0  0  0  0
  1  2  2  0  0  0  0
  2  3  1  0  0  0  0
  2  4  1  0  0  0  0
  5  4  1  0  0  0  0
  6  5  2  0  0  0  0
  6  7  1  0  0  0  0
  8  6  1  0  0  0  0
  8  9  1  0  0  0  0
 10  8  2  0  0  0  0
 10 11  1  0  0  0  0
 12 10  1  0  0  0  0
  4 12  2  0  0  0  0
M  CHG  2   2   1   3  -1
M  END
> <ChemID>
10107

> <CAS>
99-30-9

> <Original_SMILES>
Nc1c(Cl)cc(cc1Cl)[N+]([O-])=O

> <preferred_name>
Dicloran

> <dsstox_substance_id>
DTXSID2020426

> <dsstox_compound_id>
DTXCID60426

> <Canonical_QSARr>
NC1C(Cl)=CC(=CC=1Cl)[N+]([O-])=O

> <InChI_Code_QSARr>
InChI=1S/C6H4Cl2N2O2/c7-4-1-3(10(11)12)2-5(8)6(4)9/h1-2H,9H2

> <InChI Key_QSARr>
BIXZHMJUSMUDOQ-UHFFFAOYSA-N

> <Salt_Solvent>


> <Salt_Solvent_ID>
0

> <Clint>
0.6464037262230695

> <Tr_1_Tst_0>
1

$$$$
Row255
  Mrv171c012261910192D          

 12 12  0  0  0  0            999 V2000
    2.1693   -1.2482    0.0000 C   0  0  0  0  0  0  0  0  0  0  0  0
    2.8837   -0.8357    0.0000 Cl  0  0  0  0  0  0  0  0  0  0  0  0
    1.4548   -0.8357    0.0000 C   0  0  0  0  0  0  0  0  0  0  0  0
    1.4548   -0.0107    0.0000 Cl  0  0  0  0  0  0  0  0  0  0  0  0
    0.7403   -1.2482    0.0000 C   0  0  0  0  0  0  0  0  0  0  0  0
    0.0258   -0.8357    0.0000 Cl  0  0  0  0  0  0  0  0  0  0  0  0
    0.7403   -2.0732    0.0000 C   0  0  0  0  0  0  0  0  0  0  0  0
    0.0258   -2.4857    0.0000 Cl  0  0  0  0  0  0  0  0  0  0  0  0
    1.4548   -2.4857    0.0000 C   0  0  0  0  0  0  0  0  0  0  0  0
    1.4548   -3.3107    0.0000 Cl  0  0  0  0  0  0  0  0  0  0  0  0
    2.1693   -2.0732    0.0000 C   0  0  0  0  0  0  0  0  0  0  0  0
    2.8837   -2.4857    0.0000 Cl  0  0  0  0  0  0  0  0  0  0  0  0
  1  2  1  0  0  0  0
  3  1  1  0  0  0  0
  3  4  1  0  0  0  0
  5  3  1  0  0  0  0
  5  6  1  0  0  0  0
  7  5  1  0  0  0  0
  7  8  1  0  0  0  0
  9  7  1  0  0  0  0
  9 10  1  0  0  0  0
 11  9  1  0  0  0  0
  1 11  1  0  0  0  0
 11 12  1  0  0  0  0
M  END
> <ChemID>
10108

> <CAS>
58-89-9

> <Original_SMILES>
Cl[C@@H]1[C@@H](Cl)[C@H](Cl)[C@H](Cl)[C@@H](Cl)[C@@H]1Cl

> <preferred_name>
Lindane

> <dsstox_substance_id>
DTXSID2020686

> <dsstox_compound_id>
DTXCID40196532

> <Canonical_QSARr>
ClC1C(Cl)C(Cl)C(Cl)C(Cl)C1Cl

> <InChI_Code_QSARr>
InChI=1S/C6H6Cl6/c7-1-2(8)4(10)6(12)5(11)3(1)9/h1-6H

> <InChI Key_QSARr>
JLYXXMFPNIAWKQ-UHFFFAOYSA-N

> <Salt_Solvent>


> <Salt_Solvent_ID>
0

> <Clint>
1.1218879851036812

> <Tr_1_Tst_0>
1

$$$$
Row511
  Mrv171c012261910192D          

 11 12  0  0  0  0            999 V2000
    1.7532   -0.5635    0.0000 C   0  0  0  0  0  0  0  0  0  0  0  0
    1.0387   -0.1510    0.0000 C   0  0  0  0  0  0  0  0  0  0  0  0
    0.3243   -0.5635    0.0000 C   0  0  0  0  0  0  0  0  0  0  0  0
    0.3243   -1.3885    0.0000 C   0  0  0  0  0  0  0  0  0  0  0  0
    1.0387   -1.8010    0.0000 C   0  0  0  0  0  0  0  0  0  0  0  0
    1.7532   -1.3885    0.0000 C   0  0  0  0  0  0  0  0  0  0  0  0
    2.4677   -1.8010    0.0000 C   0  0  0  0  0  0  0  0  0  0  0  0
    3.1822   -1.3885    0.0000 C   0  0  0  0  0  0  0  0  0  0  0  0
    3.1822   -0.5635    0.0000 C   0  0  0  0  0  0  0  0  0  0  0  0
    3.8966   -0.1510    0.0000 N   0  0  0  0  0  0  0  0  0  0  0  0
    2.4677   -0.1510    0.0000 C   0  0  0  0  0  0  0  0  0  0  0  0
  2  1  1  0  0  0  0
  3  2  2  0  0  0  0
  4  3  1  0  0  0  0
  5  4  2  0  0  0  0
  6  5  1  0  0  0  0
  6  1  2  0  0  0  0
  7  6  1  0  0  0  0
  8  7  2  0  0  0  0
  9  8  1  0  0  0  0
  9 10  1  0  0  0  0
 11  9  2  0  0  0  0
  1 11  1  0  0  0  0
M  END
> <ChemID>
10109

> <CAS>
91-59-8

> <Original_SMILES>
Nc1cc2ccccc2cc1

> <preferred_name>
2-Naphthylamine

> <dsstox_substance_id>
DTXSID2020921

> <dsstox_compound_id>
DTXCID60921

> <Canonical_QSARr>
NC1=CC2C=CC=CC=2C=C1

> <InChI_Code_QSARr>
InChI=1S/C10H9N/c11-10-6-5-8-3-1-2-4-9(8)7-10/h1-7H,11H2

> <InChI Key_QSARr>
JBIJLHTVPXGSAM-UHFFFAOYSA-N

> <Salt_Solvent>


> <Salt_Solvent_ID>
0

> <Clint>
1.2671247751101518

> <Tr_1_Tst_0>
0

$$$$
Row240
  Mrv171c012261910192D          

 11 10  0  0  0  0            999 V2000
    2.9272    0.2253    0.0000 O   0  0  0  0  0  0  0  0  0  0  0  0
    2.2127   -0.1872    0.0000 N   0  0  0  0  0  0  0  0  0  0  0  0
    2.2127   -1.0122    0.0000 N   0  0  0  0  0  0  0  0  0  0  0  0
    1.4982   -1.4247    0.0000 C   0  0  0  0  0  0  0  0  0  0  0  0
    0.7838   -1.0122    0.0000 C   0  0  0  0  0  0  0  0  0  0  0  0
    0.0693   -1.4247    0.0000 C   0  0  0  0  0  0  0  0  0  0  0  0
   -0.6452   -1.0122    0.0000 C   0  0  0  0  0  0  0  0  0  0  0  0
    2.9272   -1.4247    0.0000 C   0  0  0  0  0  0  0  0  0  0  0  0
    3.6417   -1.0122    0.0000 C   0  0  0  0  0  0  0  0  0  0  0  0
    4.3561   -1.4247    0.0000 C   0  0  0  0  0  0  0  0  0  0  0  0
    5.0706   -1.0122    0.0000 C   0  0  0  0  0  0  0  0  0  0  0  0
  1  2  2  0  0  0  0
  2  3  1  0  0  0  0
  3  4  1  0  0  0  0
  4  5  1  0  0  0  0
  5  6  1  0  0  0  0
  6  7  1  0  0  0  0
  3  8  1  0  0  0  0
  8  9  1  0  0  0  0
  9 10  1  0  0  0  0
 10 11  1  0  0  0  0
M  END
> <ChemID>
10110

> <CAS>
924-16-3

> <Original_SMILES>
CCCCN(CCCC)N=O

> <preferred_name>
N-Nitrosodibutylamine

> <dsstox_substance_id>
DTXSID2021026

> <dsstox_compound_id>
DTXCID101026

> <Canonical_QSARr>
CCCCN(CCCC)N=O

> <InChI_Code_QSARr>
InChI=1S/C8H18N2O/c1-3-5-7-10(9-11)8-6-4-2/h3-8H2,1-2H3

> <InChI Key_QSARr>
YGJHZCLPZAZIHH-UHFFFAOYSA-N

> <Salt_Solvent>


> <Salt_Solvent_ID>
0

> <Clint>
1.046026669702541

> <Tr_1_Tst_0>
1

$$$$
Row315
  Mrv171c012261910192D          

 14 14  0  0  0  0            999 V2000
    2.9381   -0.4551    0.0000 Cl  0  0  0  0  0  0  0  0  0  0  0  0
    2.2237   -0.8676    0.0000 C   0  0  0  0  0  0  0  0  0  0  0  0
    1.5092   -0.4551    0.0000 C   0  0  0  0  0  0  0  0  0  0  0  0
    1.5092    0.3699    0.0000 Cl  0  0  0  0  0  0  0  0  0  0  0  0
    0.7947   -0.8676    0.0000 C   0  0  0  0  0  0  0  0  0  0  0  0
    0.0802   -0.4551    0.0000 Cl  0  0  0  0  0  0  0  0  0  0  0  0
    0.7947   -1.6926    0.0000 C   0  0  0  0  0  0  0  0  0  0  0  0
    0.0802   -2.1051    0.0000 Cl  0  0  0  0  0  0  0  0  0  0  0  0
    1.5092   -2.1051    0.0000 C   0  0  0  0  0  0  0  0  0  0  0  0
    1.5092   -2.9301    0.0000 Cl  0  0  0  0  0  0  0  0  0  0  0  0
    2.2237   -1.6926    0.0000 C   0  0  0  0  0  0  0  0  0  0  0  0
    2.9381   -2.1051    0.0000 N   0  3  0  0  0  0  0  0  0  0  0  0
    3.6526   -1.6926    0.0000 O   0  5  0  0  0  0  0  0  0  0  0  0
    2.9381   -2.9301    0.0000 O   0  0  0  0  0  0  0  0  0  0  0  0
  1  2  1  0  0  0  0
  3  2  1  0  0  0  0
  3  4  1  0  0  0  0
  5  3  2  0  0  0  0
  5  6  1  0  0  0  0
  7  5  1  0  0  0  0
  7  8  1  0  0  0  0
  9  7  2  0  0  0  0
  9 10  1  0  0  0  0
 11  9  1  0  0  0  0
  2 11  2  0  0  0  0
 11 12  1  0  0  0  0
 12 13  1  0  0  0  0
 12 14  2  0  0  0  0
M  CHG  2  12   1  13  -1
M  END
> <ChemID>
10111

> <CAS>
82-68-8

> <Original_SMILES>
[O-][N+](=O)c1c(Cl)c(Cl)c(Cl)c(Cl)c1Cl

> <preferred_name>
Pentachloronitrobenzene

> <dsstox_substance_id>
DTXSID2021105

> <dsstox_compound_id>
DTXCID301105

> <Canonical_QSARr>
[O-][N+](=O)C1C(Cl)=C(Cl)C(Cl)=C(Cl)C=1Cl

> <InChI_Code_QSARr>
InChI=1S/C6Cl5NO2/c7-1-2(8)4(10)6(12(13)14)5(11)3(1)9

> <InChI Key_QSARr>
LKPLKUMXSAEKID-UHFFFAOYSA-N

> <Salt_Solvent>


> <Salt_Solvent_ID>
0

> <Clint>
1.3388547462523228

> <Tr_1_Tst_0>
1

$$$$
Row453
  Mrv171c012261910192D          

 13 14  0  0  0  0            999 V2000
    0.7134   -1.7031    0.0000 O   0  0  0  0  0  0  0  0  0  0  0  0
    1.4279   -2.1156    0.0000 C   0  0  0  0  0  0  0  0  0  0  0  0
    1.4279   -2.9406    0.0000 C   0  0  0  0  0  0  0  0  0  0  0  0
    2.1424   -3.3531    0.0000 C   0  0  0  0  0  0  0  0  0  0  0  0
    2.8568   -2.9406    0.0000 C   0  0  0  0  0  0  0  0  0  0  0  0
    2.8568   -2.1156    0.0000 C   0  0  0  0  0  0  0  0  0  0  0  0
    2.1424   -1.7031    0.0000 C   0  0  0  0  0  0  0  0  0  0  0  0
    2.1424   -0.8781    0.0000 C   0  0  0  0  0  0  0  0  0  0  0  0
    2.8568   -0.4656    0.0000 C   0  0  0  0  0  0  0  0  0  0  0  0
    2.8568    0.3594    0.0000 C   0  0  0  0  0  0  0  0  0  0  0  0
    2.1424    0.7719    0.0000 C   0  0  0  0  0  0  0  0  0  0  0  0
    1.4279    0.3594    0.0000 C   0  0  0  0  0  0  0  0  0  0  0  0
    1.4279   -0.4656    0.0000 C   0  0  0  0  0  0  0  0  0  0  0  0
  1  2  1  0  0  0  0
  3  2  1  0  0  0  0
  4  3  2  0  0  0  0
  5  4  1  0  0  0  0
  6  5  2  0  0  0  0
  7  6  1  0  0  0  0
  2  7  2  0  0  0  0
  7  8  1  0  0  0  0
  9  8  1  0  0  0  0
 10  9  2  0  0  0  0
 11 10  1  0  0  0  0
 12 11  2  0  0  0  0
 13 12  1  0  0  0  0
  8 13  2  0  0  0  0
M  END
> <ChemID>
10112

> <CAS>
90-43-7

> <Original_SMILES>
Oc1ccccc1-c1ccccc1

> <preferred_name>
2-Phenylphenol

> <dsstox_substance_id>
DTXSID2021151

> <dsstox_compound_id>
DTXCID201151

> <Canonical_QSARr>
OC1C=CC=CC=1C1C=CC=CC=1

> <InChI_Code_QSARr>
InChI=1S/C12H10O/c13-12-9-5-4-8-11(12)10-6-2-1-3-7-10/h1-9,13H

> <InChI Key_QSARr>
LLEMOWNGBBNAJR-UHFFFAOYSA-N

> <Salt_Solvent>


> <Salt_Solvent_ID>
0

> <Clint>
0.3180633349627615

> <Tr_1_Tst_0>
0

$$$$
Row267
  Mrv171c012261910192D          

  8  8  0  0  0  0            999 V2000
    0.1795   -1.9594    0.0000 O   0  0  0  0  0  0  0  0  0  0  0  0
    0.8940   -1.5469    0.0000 C   0  0  0  0  0  0  0  0  0  0  0  0
    1.6084   -1.9594    0.0000 C   0  0  0  0  0  0  0  0  0  0  0  0
    2.3229   -1.5469    0.0000 C   0  0  0  0  0  0  0  0  0  0  0  0
    2.3229   -0.7219    0.0000 C   0  0  0  0  0  0  0  0  0  0  0  0
    1.6084   -0.3094    0.0000 C   0  0  0  0  0  0  0  0  0  0  0  0
    1.6084    0.5156    0.0000 O   0  0  0  0  0  0  0  0  0  0  0  0
    0.8940   -0.7219    0.0000 C   0  0  0  0  0  0  0  0  0  0  0  0
  1  2  1  0  0  0  0
  3  2  1  0  0  0  0
  4  3  2  0  0  0  0
  5  4  1  0  0  0  0
  6  5  2  0  0  0  0
  6  7  1  0  0  0  0
  8  6  1  0  0  0  0
  2  8  2  0  0  0  0
M  END
> <ChemID>
10113

> <CAS>
108-46-3

> <Original_SMILES>
Oc1cc(O)ccc1

> <preferred_name>
Resorcinol

> <dsstox_substance_id>
DTXSID2021238

> <dsstox_compound_id>
DTXCID601238

> <Canonical_QSARr>
OC1=CC(O)=CC=C1

> <InChI_Code_QSARr>
InChI=1S/C6H6O2/c7-5-2-1-3-6(8)4-5/h1-4,7-8H

> <InChI Key_QSARr>
GHMLBKRAJCXXBS-UHFFFAOYSA-N

> <Salt_Solvent>


> <Salt_Solvent_ID>
0

> <Clint>
1.160768561861128

> <Tr_1_Tst_0>
1

$$$$
Row373
  Mrv171c012261910192D          

 20 20  0  0  0  0            999 V2000
    1.5288   -1.6880    0.0000 C   0  0  0  0  0  0  0  0  0  0  0  0
    1.5288   -2.5130    0.0000 C   0  0  0  0  0  0  0  0  0  0  0  0
    2.2433   -2.9255    0.0000 C   0  0  0  0  0  0  0  0  0  0  0  0
    2.2433   -3.7505    0.0000 C   0  0  0  0  0  0  0  0  0  0  0  0
    1.5288   -4.1630    0.0000 O   0  0  0  0  0  0  0  0  0  0  0  0
    1.5288   -4.9880    0.0000 C   0  0  0  0  0  0  0  0  0  0  0  0
    0.8144   -5.4005    0.0000 C   0  0  0  0  0  0  0  0  0  0  0  0
    0.8144   -6.2255    0.0000 C   0  0  0  0  0  0  0  0  0  0  0  0
    0.0999   -6.6380    0.0000 C   0  0  0  0  0  0  0  0  0  0  0  0
    2.9578   -4.1630    0.0000 O   0  0  0  0  0  0  0  0  0  0  0  0
    2.9578   -2.5130    0.0000 C   0  0  0  0  0  0  0  0  0  0  0  0
    3.6723   -2.9255    0.0000 C   0  0  0  0  0  0  0  0  0  0  0  0
    4.3867   -2.5130    0.0000 O   0  0  0  0  0  0  0  0  0  0  0  0
    5.1012   -2.9255    0.0000 C   0  0  0  0  0  0  0  0  0  0  0  0
    5.8157   -2.5130    0.0000 C   0  0  0  0  0  0  0  0  0  0  0  0
    6.5301   -2.9255    0.0000 C   0  0  0  0  0  0  0  0  0  0  0  0
    7.2446   -2.5130    0.0000 C   0  0  0  0  0  0  0  0  0  0  0  0
    3.6723   -3.7505    0.0000 O   0  0  0  0  0  0  0  0  0  0  0  0
    2.9578   -1.6880    0.0000 C   0  0  0  0  0  0  0  0  0  0  0  0
    2.2433   -1.2755    0.0000 C   0  0  0  0  0  0  0  0  0  0  0  0
  2  1  1  0  0  0  0
  3  2  2  0  0  0  0
  3  4  1  0  0  0  0
  4  5  1  0  0  0  0
  5  6  1  0  0  0  0
  6  7  1  0  0  0  0
  7  8  1  0  0  0  0
  8  9  1  0  0  0  0
  4 10  2  0  0  0  0
 11  3  1  0  0  0  0
 11 12  1  0  0  0  0
 12 13  1  0  0  0  0
 13 14  1  0  0  0  0
 14 15  1  0  0  0  0
 15 16  1  0  0  0  0
 16 17  1  0  0  0  0
 12 18  2  0  0  0  0
 19 11  2  0  0  0  0
 20 19  1  0  0  0  0
  1 20  2  0  0  0  0
M  END
> <ChemID>
10114

> <CAS>
84-74-2

> <Original_SMILES>
CCCCOC(=O)c1ccccc1C(=O)OCCCC

> <preferred_name>
Dibutyl phthalate

> <dsstox_substance_id>
DTXSID2021781

> <dsstox_compound_id>
DTXCID301781

> <Canonical_QSARr>
CCCCOC(=O)C1=CC=CC=C1C(=O)OCCCC

> <InChI_Code_QSARr>
InChI=1S/C16H22O4/c1-3-5-11-19-15(17)13-9-7-8-10-14(13)16(18)20-12-6-4-2/h7-10H,3-6,11-12H2,1-2H3

> <InChI Key_QSARr>
DOIRQSBPFJWKBE-UHFFFAOYSA-N

> <Salt_Solvent>


> <Salt_Solvent_ID>
0

> <Clint>
1.6283889300503114

> <Tr_1_Tst_0>
1

$$$$
Row499
  Mrv171c012261910192D          

 18 17  0  0  0  0            999 V2000
   -0.0033   -1.2345    0.0000 C   0  0  0  0  0  0  0  0  0  0  0  0
    0.7111   -0.8220    0.0000 C   0  0  0  0  0  0  0  0  0  0  0  0
    1.4256   -1.2345    0.0000 C   0  0  0  0  0  0  0  0  0  0  0  0
    2.1401   -0.8220    0.0000 C   0  0  0  0  0  0  0  0  0  0  0  0
    2.8546   -1.2345    0.0000 O   0  0  0  0  0  0  0  0  0  0  0  0
    3.5690   -0.8220    0.0000 C   0  0  0  0  0  0  0  0  0  0  0  0
    4.2835   -1.2345    0.0000 C   0  0  0  0  0  0  0  0  0  0  0  0
    4.9980   -0.8220    0.0000 C   0  0  0  0  0  0  0  0  0  0  0  0
    5.7124   -1.2345    0.0000 C   0  0  0  0  0  0  0  0  0  0  0  0
    6.4269   -0.8220    0.0000 C   0  0  0  0  0  0  0  0  0  0  0  0
    7.1414   -1.2345    0.0000 C   0  0  0  0  0  0  0  0  0  0  0  0
    7.8559   -0.8220    0.0000 O   0  0  0  0  0  0  0  0  0  0  0  0
    8.5703   -1.2345    0.0000 C   0  0  0  0  0  0  0  0  0  0  0  0
    9.2848   -0.8220    0.0000 C   0  0  0  0  0  0  0  0  0  0  0  0
    9.9993   -1.2345    0.0000 C   0  0  0  0  0  0  0  0  0  0  0  0
   10.7137   -0.8220    0.0000 C   0  0  0  0  0  0  0  0  0  0  0  0
    7.1414   -2.0595    0.0000 O   0  0  0  0  0  0  0  0  0  0  0  0
    3.5690    0.0030    0.0000 O   0  0  0  0  0  0  0  0  0  0  0  0
  1  2  1  0  0  0  0
  2  3  1  0  0  0  0
  3  4  1  0  0  0  0
  4  5  1  0  0  0  0
  5  6  1  0  0  0  0
  6  7  1  0  0  0  0
  7  8  1  0  0  0  0
  8  9  1  0  0  0  0
  9 10  1  0  0  0  0
 10 11  1  0  0  0  0
 11 12  1  0  0  0  0
 12 13  1  0  0  0  0
 13 14  1  0  0  0  0
 14 15  1  0  0  0  0
 15 16  1  0  0  0  0
 11 17  2  0  0  0  0
  6 18  2  0  0  0  0
M  END
> <ChemID>
10115

> <CAS>
105-99-7

> <Original_SMILES>
CCCCOC(=O)CCCCC(=O)OCCCC

> <preferred_name>
Dibutyl adipate

> <dsstox_substance_id>
DTXSID2021866

> <dsstox_compound_id>
DTXCID901866

> <Canonical_QSARr>
CCCCOC(=O)CCCCC(=O)OCCCC

> <InChI_Code_QSARr>
InChI=1S/C14H26O4/c1-3-5-11-17-13(15)9-7-8-10-14(16)18-12-6-4-2/h3-12H2,1-2H3

> <InChI Key_QSARr>
XTJFFFGAUHQWII-UHFFFAOYSA-N

> <Salt_Solvent>


> <Salt_Solvent_ID>
0

> <Clint>
1.1471814721927964

> <Tr_1_Tst_0>
0

$$$$
Row216
  Mrv171c012261910192D          

 13 15  0  0  0  0            999 V2000
    0.5267   -1.6923    0.0000 C   0  0  0  0  0  0  0  0  0  0  0  0
    1.3336   -1.5208    0.0000 C   0  0  0  0  0  0  0  0  0  0  0  0
    2.0011   -2.0057    0.0000 O   0  0  0  0  0  0  0  0  0  0  0  0
    2.6685   -1.5208    0.0000 C   0  0  0  0  0  0  0  0  0  0  0  0
    3.4755   -1.6923    0.0000 C   0  0  0  0  0  0  0  0  0  0  0  0
    4.0275   -1.0792    0.0000 C   0  0  0  0  0  0  0  0  0  0  0  0
    3.7726   -0.2946    0.0000 C   0  0  0  0  0  0  0  0  0  0  0  0
    2.9656   -0.1231    0.0000 C   0  0  0  0  0  0  0  0  0  0  0  0
    2.4136   -0.7361    0.0000 C   0  0  0  0  0  0  0  0  0  0  0  0
    1.5886   -0.7361    0.0000 C   0  0  0  0  0  0  0  0  0  0  0  0
    1.0365   -0.1231    0.0000 C   0  0  0  0  0  0  0  0  0  0  0  0
    0.2296   -0.2946    0.0000 C   0  0  0  0  0  0  0  0  0  0  0  0
   -0.0254   -1.0792    0.0000 C   0  0  0  0  0  0  0  0  0  0  0  0
  2  1  1  0  0  0  0
  2  3  1  0  0  0  0
  3  4  1  0  0  0  0
  5  4  2  0  0  0  0
  6  5  1  0  0  0  0
  7  6  2  0  0  0  0
  8  7  1  0  0  0  0
  9  8  2  0  0  0  0
  4  9  1  0  0  0  0
  9 10  1  0  0  0  0
 10  2  2  0  0  0  0
 11 10  1  0  0  0  0
 12 11  2  0  0  0  0
 13 12  1  0  0  0  0
  1 13  2  0  0  0  0
M  END
> <ChemID>
10116

> <CAS>
132-64-9

> <Original_SMILES>
c1cccc2oc3ccccc3c21

> <preferred_name>
Dibenzofuran

> <dsstox_substance_id>
DTXSID2021993

> <dsstox_compound_id>
DTXCID801993

> <Canonical_QSARr>
C1=CC=CC2OC3=CC=CC=C3C=21

> <InChI_Code_QSARr>
InChI=1S/C12H8O/c1-3-7-11-9(5-1)10-6-2-4-8-12(10)13-11/h1-8H

> <InChI Key_QSARr>
TXCDCPKCNAJMEE-UHFFFAOYSA-N

> <Salt_Solvent>


> <Salt_Solvent_ID>
0

> <Clint>
0.9190780923760739

> <Tr_1_Tst_0>
1

$$$$
Row160
  Mrv171c012261910192D          

 14 14  0  0  0  0            999 V2000
    3.2271   -3.2545    0.0000 C   0  0  0  0  0  0  0  0  0  0  0  0
    3.2271   -2.4295    0.0000 C   0  0  0  0  0  0  0  0  0  0  0  0
    2.5126   -2.0170    0.0000 N   0  0  0  0  0  0  0  0  0  0  0  0
    2.5126   -1.1920    0.0000 C   0  0  0  0  0  0  0  0  0  0  0  0
    1.7982   -0.7795    0.0000 C   0  0  0  0  0  0  0  0  0  0  0  0
    1.7982    0.0455    0.0000 C   0  0  0  0  0  0  0  0  0  0  0  0
    1.0837    0.4580    0.0000 C   0  0  0  0  0  0  0  0  0  0  0  0
    1.0837    1.2830    0.0000 C   0  0  0  0  0  0  0  0  0  0  0  0
    0.3692    0.0455    0.0000 C   0  0  0  0  0  0  0  0  0  0  0  0
    0.3692   -0.7795    0.0000 C   0  0  0  0  0  0  0  0  0  0  0  0
    1.0837   -1.1920    0.0000 C   0  0  0  0  0  0  0  0  0  0  0  0
    3.2271   -0.7795    0.0000 O   0  0  0  0  0  0  0  0  0  0  0  0
    1.7982   -2.4295    0.0000 C   0  0  0  0  0  0  0  0  0  0  0  0
    1.0837   -2.0170    0.0000 C   0  0  0  0  0  0  0  0  0  0  0  0
  1  2  1  0  0  0  0
  2  3  1  0  0  0  0
  3  4  1  0  0  0  0
  4  5  1  0  0  0  0
  6  5  1  0  0  0  0
  7  6  2  0  0  0  0
  7  8  1  0  0  0  0
  9  7  1  0  0  0  0
 10  9  2  0  0  0  0
 11 10  1  0  0  0  0
  5 11  2  0  0  0  0
  4 12  2  0  0  0  0
  3 13  1  0  0  0  0
 13 14  1  0  0  0  0
M  END
> <ChemID>
10117

> <CAS>
134-62-3

> <Original_SMILES>
Cc1cc(ccc1)C(=O)N(CC)CC

> <preferred_name>
DEET

> <dsstox_substance_id>
DTXSID2021995

> <dsstox_compound_id>
DTXCID601995

> <Canonical_QSARr>
CC1C=CC=C(C=1)C(=O)N(CC)CC

> <InChI_Code_QSARr>
InChI=1S/C12H17NO/c1-4-13(5-2)12(14)11-8-6-7-10(3)9-11/h6-9H,4-5H2,1-3H3

> <InChI Key_QSARr>
MMOXZBCLCQITDF-UHFFFAOYSA-N

> <Salt_Solvent>


> <Salt_Solvent_ID>
0

> <Clint>
0.57978359661681

> <Tr_1_Tst_0>
1

$$$$
Row432
  Mrv171c012261910192D          

 19 19  0  0  0  0            999 V2000
    1.9601   -1.7308    0.0000 C   0  0  0  0  0  0  0  0  0  0  0  0
    2.6746   -2.1433    0.0000 C   0  0  0  0  0  0  0  0  0  0  0  0
    3.3891   -1.7308    0.0000 C   0  0  0  0  0  0  0  0  0  0  0  0
    4.1035   -2.1433    0.0000 O   0  0  0  0  0  0  0  0  0  0  0  0
    4.8180   -1.7308    0.0000 C   0  0  0  0  0  0  0  0  0  0  0  0
    5.5325   -2.1433    0.0000 C   0  0  0  0  0  0  0  0  0  0  0  0
    6.2469   -1.7308    0.0000 C   0  0  0  0  0  0  0  0  0  0  0  0
    6.9614   -2.1433    0.0000 N   0  0  0  0  0  0  0  0  0  0  0  0
    7.6759   -1.7308    0.0000 C   0  0  0  0  0  0  0  0  0  0  0  0
    8.3904   -2.1433    0.0000 C   0  0  0  0  0  0  0  0  0  0  0  0
    7.6759   -0.9058    0.0000 C   0  0  0  0  0  0  0  0  0  0  0  0
    5.5325   -2.9683    0.0000 O   0  0  0  0  0  0  0  0  0  0  0  0
    3.3891   -0.9058    0.0000 C   0  0  0  0  0  0  0  0  0  0  0  0
    2.6746   -0.4933    0.0000 C   0  0  0  0  0  0  0  0  0  0  0  0
    1.9601   -0.9058    0.0000 C   0  0  0  0  0  0  0  0  0  0  0  0
    1.2456   -0.4933    0.0000 C   0  0  0  0  0  0  0  0  0  0  0  0
    1.2456    0.3317    0.0000 C   0  0  0  0  0  0  0  0  0  0  0  0
    0.5312    0.7442    0.0000 O   0  0  0  0  0  0  0  0  0  0  0  0
    1.9601    0.7442    0.0000 N   0  0  0  0  0  0  0  0  0  0  0  0
  2  1  1  0  0  0  0
  3  2  2  0  0  0  0
  3  4  1  0  0  0  0
  4  5  1  0  0  0  0
  5  6  1  0  0  0  0
  6  7  1  0  0  0  0
  7  8  1  0  0  0  0
  8  9  1  0  0  0  0
  9 10  1  0  0  0  0
  9 11  1  0  0  0  0
  6 12  1  0  0  0  0
 13  3  1  0  0  0  0
 14 13  2  0  0  0  0
 15 14  1  0  0  0  0
  1 15  2  0  0  0  0
 15 16  1  0  0  0  0
 16 17  1  0  0  0  0
 17 18  2  0  0  0  0
 17 19  1  0  0  0  0
M  END
> <ChemID>
10118

> <CAS>
29122-68-7

> <Original_SMILES>
CC(C)NCC(O)COc1ccc(CC(N)=O)cc1

> <preferred_name>
Atenolol

> <dsstox_substance_id>
DTXSID2022628

> <dsstox_compound_id>
DTXCID202628

> <Canonical_QSARr>
CC(C)NCC(O)COC1=CC=C(CC(N)=O)C=C1

> <InChI_Code_QSARr>
InChI=1S/C14H22N2O3/c1-10(2)16-8-12(17)9-19-13-5-3-11(4-6-13)7-14(15)18/h3-6,10,12,16-17H,7-9H2,1-2H3,(H2,15,18)

> <InChI Key_QSARr>
METKIMKYRPQLGS-UHFFFAOYSA-N

> <Salt_Solvent>


> <Salt_Solvent_ID>
0

> <Clint>
-6.443697499232711

> <Tr_1_Tst_0>
0

$$$$
Row135
  Mrv171c012261910192D          

 22 23  0  0  0  0            999 V2000
    0.0811   -3.0635    0.0000 C   0  0  0  0  0  0  0  0  0  0  0  0
    0.4936   -2.3490    0.0000 C   0  0  0  0  0  0  0  0  0  0  0  0
    1.2081   -1.9365    0.0000 C   0  0  0  0  0  0  0  0  0  0  0  0
    1.9225   -2.3490    0.0000 O   0  0  0  0  0  0  0  0  0  0  0  0
    2.6370   -1.9365    0.0000 C   0  0  0  0  0  0  0  0  0  0  0  0
    3.3515   -2.3490    0.0000 C   0  0  0  0  0  0  0  0  0  0  0  0
    4.0659   -1.9365    0.0000 C   0  0  0  0  0  0  0  0  0  0  0  0
    4.7804   -2.3490    0.0000 C   0  0  0  0  0  0  0  0  0  0  0  0
    5.4949   -1.9365    0.0000 C   0  0  0  0  0  0  0  0  0  0  0  0
    5.4949   -1.1115    0.0000 C   0  0  0  0  0  0  0  0  0  0  0  0
    6.2093   -0.6990    0.0000 O   0  0  0  0  0  0  0  0  0  0  0  0
    6.9238   -1.1115    0.0000 C   0  0  0  0  0  0  0  0  0  0  0  0
    7.6383   -0.6990    0.0000 C   0  0  0  0  0  0  0  0  0  0  0  0
    8.3528   -1.1115    0.0000 C   0  0  0  0  0  0  0  0  0  0  0  0
    9.0672   -0.6990    0.0000 N   0  0  0  0  0  0  0  0  0  0  0  0
    9.7817   -1.1115    0.0000 C   0  0  0  0  0  0  0  0  0  0  0  0
   10.4962   -0.6990    0.0000 C   0  0  0  0  0  0  0  0  0  0  0  0
    9.7817   -1.9365    0.0000 C   0  0  0  0  0  0  0  0  0  0  0  0
    7.6383    0.1260    0.0000 O   0  0  0  0  0  0  0  0  0  0  0  0
    4.7804   -0.6990    0.0000 C   0  0  0  0  0  0  0  0  0  0  0  0
    4.0659   -1.1115    0.0000 C   0  0  0  0  0  0  0  0  0  0  0  0
   -0.3314   -2.3490    0.0000 C   0  0  0  0  0  0  0  0  0  0  0  0
  2  1  1  0  0  0  0
  2  3  1  0  0  0  0
  3  4  1  0  0  0  0
  4  5  1  0  0  0  0
  5  6  1  0  0  0  0
  6  7  1  0  0  0  0
  8  7  1  0  0  0  0
  9  8  2  0  0  0  0
 10  9  1  0  0  0  0
 10 11  1  0  0  0  0
 11 12  1  0  0  0  0
 12 13  1  0  0  0  0
 13 14  1  0  0  0  0
 14 15  1  0  0  0  0
 15 16  1  0  0  0  0
 16 17  1  0  0  0  0
 16 18  1  0  0  0  0
 13 19  1  0  0  0  0
 20 10  2  0  0  0  0
 21 20  1  0  0  0  0
  7 21  2  0  0  0  0
 22  2  1  0  0  0  0
  1 22  1  0  0  0  0
M  END
> <ChemID>
10119

> <CAS>
63659-18-7

> <Original_SMILES>
CC(C)NCC(O)COc1ccc(CCOCC2CC2)cc1

> <preferred_name>
Betaxolol

> <dsstox_substance_id>
DTXSID2022674

> <dsstox_compound_id>
DTXCID102674

> <Canonical_QSARr>
CC(C)NCC(O)COC1=CC=C(CCOCC2CC2)C=C1

> <InChI_Code_QSARr>
InChI=1S/C18H29NO3/c1-14(2)19-11-17(20)13-22-18-7-5-15(6-8-18)9-10-21-12-16-3-4-16/h5-8,14,16-17,19-20H,3-4,9-13H2,1-2H3

> <InChI Key_QSARr>
NWIUTZDMDHAVTP-UHFFFAOYSA-N

> <Salt_Solvent>


> <Salt_Solvent_ID>
0

> <Clint>
0.3979400086720376

> <Tr_1_Tst_0>
1

$$$$
Row209
  Mrv171c012261910192D          

 28 31  0  0  0  0            999 V2000
    1.5847   -3.9368    0.0000 C   0  0  0  0  0  0  0  0  0  0  0  0
    2.4097   -3.9368    0.0000 C   0  0  0  0  0  0  0  0  0  0  0  0
    2.8222   -4.6513    0.0000 O   0  0  0  0  0  0  0  0  0  0  0  0
    2.8222   -3.2223    0.0000 N   0  0  0  0  0  0  0  0  0  0  0  0
    3.6472   -3.2223    0.0000 C   0  0  0  0  0  0  0  0  0  0  0  0
    4.0597   -2.5078    0.0000 C   0  0  0  0  0  0  0  0  0  0  0  0
    4.8847   -2.5078    0.0000 C   0  0  0  0  0  0  0  0  0  0  0  0
    5.2972   -1.7934    0.0000 C   0  0  0  0  0  0  0  0  0  0  0  0
    6.1222   -1.7934    0.0000 N   0  0  0  0  0  0  0  0  0  0  0  0
    6.5347   -2.5078    0.0000 C   0  0  0  0  0  0  0  0  0  0  0  0
    7.3597   -2.5078    0.0000 C   0  0  0  0  0  0  0  0  0  0  0  0
    7.7722   -1.7934    0.0000 N   0  0  0  0  0  0  0  0  0  0  0  0
    8.5972   -1.7934    0.0000 C   0  0  0  0  0  0  0  0  0  0  0  0
    9.0097   -2.5078    0.0000 N   0  0  0  0  0  0  0  0  0  0  0  0
    9.8347   -2.5078    0.0000 C   0  0  0  0  0  0  0  0  0  0  0  0
   10.2472   -1.7934    0.0000 C   0  0  0  0  0  0  0  0  0  0  0  0
    9.8347   -1.0789    0.0000 C   0  0  0  0  0  0  0  0  0  0  0  0
    9.0097   -1.0789    0.0000 N   0  0  0  0  0  0  0  0  0  0  0  0
    7.3597   -1.0789    0.0000 C   0  0  0  0  0  0  0  0  0  0  0  0
    6.5347   -1.0789    0.0000 C   0  0  0  0  0  0  0  0  0  0  0  0
    2.4097   -2.5078    0.0000 C   0  0  0  0  0  0  0  0  0  0  0  0
    2.8222   -1.7934    0.0000 O   0  0  0  0  0  0  0  0  0  0  0  0
    1.5847   -2.5078    0.0000 C   0  0  0  0  0  0  0  0  0  0  0  0
    1.1722   -3.2223    0.0000 C   0  0  0  0  0  0  0  0  0  0  0  0
    0.6872   -2.5549    0.0000 C   0  0  0  0  0  0  0  0  0  0  0  0
   -0.0974   -2.8098    0.0000 C   0  0  0  0  0  0  0  0  0  0  0  0
   -0.0974   -3.6348    0.0000 C   0  0  0  0  0  0  0  0  0  0  0  0
    0.6872   -3.8898    0.0000 C   0  0  0  0  0  0  0  0  0  0  0  0
  2  1  1  0  0  0  0
  2  3  2  0  0  0  0
  4  2  1  0  0  0  0
  4  5  1  0  0  0  0
  5  6  1  0  0  0  0
  6  7  1  0  0  0  0
  7  8  1  0  0  0  0
  8  9  1  0  0  0  0
 10  9  1  0  0  0  0
 11 10  1  0  0  0  0
 12 11  1  0  0  0  0
 12 13  1  0  0  0  0
 14 13  1  0  0  0  0
 15 14  2  0  0  0  0
 16 15  1  0  0  0  0
 17 16  2  0  0  0  0
 18 17  1  0  0  0  0
 13 18  2  0  0  0  0
 19 12  1  0  0  0  0
 20 19  1  0  0  0  0
  9 20  1  0  0  0  0
 21  4  1  0  0  0  0
 21 22  2  0  0  0  0
 23 21  1  0  0  0  0
 24 23  1  0  0  0  0
  1 24  1  0  0  0  0
 25 24  1  0  0  0  0
 26 25  1  0  0  0  0
 27 26  1  0  0  0  0
 28 27  1  0  0  0  0
 24 28  1  0  0  0  0
M  END
> <ChemID>
10120

> <CAS>
36505-84-7

> <Original_SMILES>
O=C1CC2(CC(=O)N1CCCCN1CCN(CC1)c1[n]ccc[n]1)CCCC2

> <preferred_name>
Buspirone

> <dsstox_substance_id>
DTXSID2022707

> <dsstox_compound_id>
DTXCID402707

> <Canonical_QSARr>
O=C1CC2(CC(=O)N1CCCCN1CCN(CC1)C1N=CC=CN=1)CCCC2

> <InChI_Code_QSARr>
InChI=1S/C21H31N5O2/c27-18-16-21(6-1-2-7-21)17-19(28)26(18)11-4-3-10-24-12-14-25(15-13-24)20-22-8-5-9-23-20/h5,8-9H,1-4,6-7,10-17H2

> <InChI Key_QSARr>
QWCRAEMEVRGPNT-UHFFFAOYSA-N

> <Salt_Solvent>


> <Salt_Solvent_ID>
0

> <Clint>
0.884228769632604

> <Tr_1_Tst_0>
1

$$$$
Row392
  Mrv171c012261910192D          

 26 28  0  0  0  0            999 V2000
    5.0862   -6.6523    0.0000 C   0  0  0  0  0  0  0  0  0  0  0  0
    5.0862   -5.8273    0.0000 C   0  0  0  0  0  0  0  0  0  0  0  0
    4.3717   -5.4148    0.0000 C   0  0  0  0  0  0  0  0  0  0  0  0
    4.3717   -4.5898    0.0000 C   0  0  0  0  0  0  0  0  0  0  0  0
    3.6572   -4.1773    0.0000 C   0  0  0  0  0  0  0  0  0  0  0  0
    3.6572   -3.3523    0.0000 N   0  0  0  0  0  0  0  0  0  0  0  0
    2.9428   -2.9398    0.0000 C   0  0  0  0  0  0  0  0  0  0  0  0
    2.9428   -2.1148    0.0000 C   0  0  0  0  0  0  0  0  0  0  0  0
    2.2283   -1.7023    0.0000 C   0  0  0  0  0  0  0  0  0  0  0  0
    1.5138   -2.1148    0.0000 N   0  0  0  0  0  0  0  0  0  0  0  0
    0.7993   -1.7023    0.0000 C   0  0  0  0  0  0  0  0  0  0  0  0
    0.0849   -2.1148    0.0000 C   0  0  0  0  0  0  0  0  0  0  0  0
    0.7993   -0.8773    0.0000 C   0  0  0  0  0  0  0  0  0  0  0  0
    1.5138   -2.9398    0.0000 C   0  0  0  0  0  0  0  0  0  0  0  0
    2.2283   -3.3523    0.0000 C   0  0  0  0  0  0  0  0  0  0  0  0
    4.3717   -2.9398    0.0000 C   0  0  0  0  0  0  0  0  0  0  0  0
    5.0862   -3.3523    0.0000 C   0  0  0  0  0  0  0  0  0  0  0  0
    5.8006   -2.9398    0.0000 C   0  0  0  0  0  0  0  0  0  0  0  0
    5.8006   -2.1148    0.0000 C   0  0  0  0  0  0  0  0  0  0  0  0
    6.5151   -1.7023    0.0000 Cl  0  0  0  0  0  0  0  0  0  0  0  0
    5.0862   -1.7023    0.0000 C   0  0  0  0  0  0  0  0  0  0  0  0
    4.3717   -2.1148    0.0000 C   0  0  0  0  0  0  0  0  0  0  0  0
    2.9428   -4.5898    0.0000 O   0  0  0  0  0  0  0  0  0  0  0  0
    3.6572   -5.8273    0.0000 C   0  0  0  0  0  0  0  0  0  0  0  0
    3.6572   -6.6523    0.0000 C   0  0  0  0  0  0  0  0  0  0  0  0
    4.3717   -7.0648    0.0000 C   0  0  0  0  0  0  0  0  0  0  0  0
  2  1  1  0  0  0  0
  3  2  2  0  0  0  0
  3  4  1  0  0  0  0
  4  5  1  0  0  0  0
  5  6  1  0  0  0  0
  6  7  1  0  0  0  0
  8  7  1  0  0  0  0
  9  8  1  0  0  0  0
 10  9  1  0  0  0  0
 10 11  1  0  0  0  0
 11 12  1  0  0  0  0
 11 13  1  0  0  0  0
 14 10  1  0  0  0  0
 15 14  1  0  0  0  0
  7 15  1  0  0  0  0
  6 16  1  0  0  0  0
 17 16  1  0  0  0  0
 18 17  2  0  0  0  0
 19 18  1  0  0  0  0
 19 20  1  0  0  0  0
 21 19  2  0  0  0  0
 22 21  1  0  0  0  0
 16 22  2  0  0  0  0
  5 23  2  0  0  0  0
 24  3  1  0  0  0  0
 25 24  2  0  0  0  0
 26 25  1  0  0  0  0
  1 26  2  0  0  0  0
M  END
> <ChemID>
10121

> <CAS>
59729-31-6

> <Original_SMILES>
CC(C)N1CCC(CC1)N(C(=O)Cc1ccccc1)c1ccc(Cl)cc1

> <preferred_name>
Lorcainide

> <dsstox_substance_id>
DTXSID2023226

> <dsstox_compound_id>
DTXCID703226

> <Canonical_QSARr>
CC(C)N1CCC(CC1)N(C(=O)CC1C=CC=CC=1)C1C=CC(Cl)=CC=1

> <InChI_Code_QSARr>
InChI=1S/C22H27ClN2O/c1-17(2)24-14-12-21(13-15-24)25(20-10-8-19(23)9-11-20)22(26)16-18-6-4-3-5-7-18/h3-11,17,21H,12-16H2,1-2H3

> <InChI Key_QSARr>
XHOJAWVAWFHGHL-UHFFFAOYSA-N

> <Salt_Solvent>


> <Salt_Solvent_ID>
0

> <Clint>
1.8920946026904801

> <Tr_1_Tst_0>
1

$$$$
Row107
  Mrv171c012261910192D          

 19 19  0  0  0  0            999 V2000
    2.5044   -0.6930    0.0000 C   0  0  0  0  0  0  0  0  0  0  0  0
    2.5044   -1.5180    0.0000 C   0  0  0  0  0  0  0  0  0  0  0  0
    3.2189   -1.9305    0.0000 C   0  0  0  0  0  0  0  0  0  0  0  0
    3.9334   -1.5180    0.0000 C   0  0  0  0  0  0  0  0  0  0  0  0
    4.6479   -1.9305    0.0000 O   0  0  0  0  0  0  0  0  0  0  0  0
    5.3623   -1.5180    0.0000 C   0  0  0  0  0  0  0  0  0  0  0  0
    6.0768   -1.9305    0.0000 C   0  0  0  0  0  0  0  0  0  0  0  0
    6.7913   -1.5180    0.0000 C   0  0  0  0  0  0  0  0  0  0  0  0
    7.5057   -1.9305    0.0000 N   0  0  0  0  0  0  0  0  0  0  0  0
    8.2202   -1.5180    0.0000 C   0  0  0  0  0  0  0  0  0  0  0  0
    8.9347   -1.9305    0.0000 C   0  0  0  0  0  0  0  0  0  0  0  0
    8.2202   -0.6930    0.0000 C   0  0  0  0  0  0  0  0  0  0  0  0
    6.0768   -2.7555    0.0000 O   0  0  0  0  0  0  0  0  0  0  0  0
    3.9334   -0.6930    0.0000 C   0  0  0  0  0  0  0  0  0  0  0  0
    3.2189   -0.2805    0.0000 C   0  0  0  0  0  0  0  0  0  0  0  0
    1.7900   -0.2805    0.0000 C   0  0  0  0  0  0  0  0  0  0  0  0
    1.0755   -0.6930    0.0000 C   0  0  0  0  0  0  0  0  0  0  0  0
    0.3610   -0.2805    0.0000 O   0  0  0  0  0  0  0  0  0  0  0  0
   -0.3534   -0.6930    0.0000 C   0  0  0  0  0  0  0  0  0  0  0  0
  2  1  1  0  0  0  0
  3  2  2  0  0  0  0
  4  3  1  0  0  0  0
  4  5  1  0  0  0  0
  5  6  1  0  0  0  0
  6  7  1  0  0  0  0
  7  8  1  0  0  0  0
  8  9  1  0  0  0  0
  9 10  1  0  0  0  0
 10 11  1  0  0  0  0
 10 12  1  0  0  0  0
  7 13  1  0  0  0  0
 14  4  2  0  0  0  0
 15 14  1  0  0  0  0
  1 15  2  0  0  0  0
  1 16  1  0  0  0  0
 16 17  1  0  0  0  0
 17 18  1  0  0  0  0
 18 19  1  0  0  0  0
M  END
> <ChemID>
10122

> <CAS>
51384-51-1

> <Original_SMILES>
CC(C)NCC(O)COc1ccc(CCOC)cc1

> <preferred_name>
Metoprolol

> <dsstox_substance_id>
DTXSID2023309

> <dsstox_compound_id>
DTXCID503309

> <Canonical_QSARr>
CC(C)NCC(O)COC1=CC=C(CCOC)C=C1

> <InChI_Code_QSARr>
InChI=1S/C15H25NO3/c1-12(2)16-10-14(17)11-19-15-6-4-13(5-7-15)8-9-18-3/h4-7,12,14,16-17H,8-11H2,1-3H3

> <InChI Key_QSARr>
IUBSYMUCCVWXPE-UHFFFAOYSA-N

> <Salt_Solvent>


> <Salt_Solvent_ID>
0

> <Clint>
0.16731733474817606

> <Tr_1_Tst_0>
1

$$$$
Row234
  Mrv171c012261910192D          

 19 18  0  0  0  0            999 V2000
    1.9463   -2.9011    0.0000 P   0  0  0  0  0  0  0  0  0  0  0  0
    1.2318   -3.3136    0.0000 O   0  0  0  0  0  0  0  0  0  0  0  0
    1.2318   -4.1386    0.0000 C   0  0  0  0  0  0  0  0  0  0  0  0
    0.5174   -4.5511    0.0000 C   0  0  0  0  0  0  0  0  0  0  0  0
    2.3588   -3.6155    0.0000 O   0  0  0  0  0  0  0  0  0  0  0  0
    3.1838   -3.6155    0.0000 C   0  0  0  0  0  0  0  0  0  0  0  0
    3.5963   -4.3300    0.0000 C   0  0  0  0  0  0  0  0  0  0  0  0
    1.5338   -2.1866    0.0000 S   0  0  0  0  0  0  0  0  0  0  0  0
    2.6608   -2.4886    0.0000 S   0  0  0  0  0  0  0  0  0  0  0  0
    2.6608   -1.6636    0.0000 C   0  0  0  0  0  0  0  0  0  0  0  0
    3.3752   -1.2511    0.0000 S   0  0  0  0  0  0  0  0  0  0  0  0
    3.3752   -0.4261    0.0000 P   0  0  0  0  0  0  0  0  0  0  0  0
    3.3752    0.3989    0.0000 O   0  0  0  0  0  0  0  0  0  0  0  0
    4.0897    0.8114    0.0000 C   0  0  0  0  0  0  0  0  0  0  0  0
    4.0897    1.6364    0.0000 C   0  0  0  0  0  0  0  0  0  0  0  0
    4.2002   -0.4261    0.0000 O   0  0  0  0  0  0  0  0  0  0  0  0
    4.6127    0.2884    0.0000 C   0  0  0  0  0  0  0  0  0  0  0  0
    5.4377    0.2884    0.0000 C   0  0  0  0  0  0  0  0  0  0  0  0
    2.5502   -0.4261    0.0000 S   0  0  0  0  0  0  0  0  0  0  0  0
  1  2  1  0  0  0  0
  2  3  1  0  0  0  0
  3  4  1  0  0  0  0
  1  5  1  0  0  0  0
  5  6  1  0  0  0  0
  6  7  1  0  0  0  0
  1  8  2  0  0  0  0
  1  9  1  0  0  0  0
  9 10  1  0  0  0  0
 10 11  1  0  0  0  0
 11 12  1  0  0  0  0
 12 13  1  0  0  0  0
 13 14  1  0  0  0  0
 14 15  1  0  0  0  0
 12 16  1  0  0  0  0
 16 17  1  0  0  0  0
 17 18  1  0  0  0  0
 12 19  2  0  0  0  0
M  END
> <ChemID>
10123

> <CAS>
563-12-2

> <Original_SMILES>
CCOP(=S)(OCC)SCSP(=S)(OCC)OCC

> <preferred_name>
Ethion

> <dsstox_substance_id>
DTXSID2024086

> <dsstox_compound_id>
DTXCID204086

> <Canonical_QSARr>
CCOP(=S)(OCC)SCSP(=S)(OCC)OCC

> <InChI_Code_QSARr>
InChI=1S/C9H22O4P2S4/c1-5-10-14(16,11-6-2)18-9-19-15(17,12-7-3)13-8-4/h5-9H2,1-4H3

> <InChI Key_QSARr>
RIZMRRKBZQXFOY-UHFFFAOYSA-N

> <Salt_Solvent>


> <Salt_Solvent_ID>
0

> <Clint>
1.0176175733396735

> <Tr_1_Tst_0>
1

$$$$
Row351
  Mrv171c012261910192D          

 15 15  0  0  0  0            999 V2000
    1.5026   -1.2918    0.0000 C   0  0  0  0  0  0  0  0  0  0  0  0
    1.5026   -0.4668    0.0000 O   0  0  0  0  0  0  0  0  0  0  0  0
    0.7881   -1.7043    0.0000 N   0  0  0  0  0  0  0  0  0  0  0  0
    0.7881   -2.5293    0.0000 C   0  0  0  0  0  0  0  0  0  0  0  0
    0.0737   -1.2918    0.0000 O   0  0  0  0  0  0  0  0  0  0  0  0
   -0.6408   -1.7043    0.0000 C   0  0  0  0  0  0  0  0  0  0  0  0
    2.2171   -1.7043    0.0000 N   0  0  0  0  0  0  0  0  0  0  0  0
    2.9315   -1.2918    0.0000 C   0  0  0  0  0  0  0  0  0  0  0  0
    3.6460   -1.7043    0.0000 C   0  0  0  0  0  0  0  0  0  0  0  0
    4.3605   -1.2918    0.0000 C   0  0  0  0  0  0  0  0  0  0  0  0
    4.3605   -0.4668    0.0000 C   0  0  0  0  0  0  0  0  0  0  0  0
    5.0750   -0.0543    0.0000 Cl  0  0  0  0  0  0  0  0  0  0  0  0
    3.6460   -0.0543    0.0000 C   0  0  0  0  0  0  0  0  0  0  0  0
    3.6460    0.7707    0.0000 Cl  0  0  0  0  0  0  0  0  0  0  0  0
    2.9315   -0.4668    0.0000 C   0  0  0  0  0  0  0  0  0  0  0  0
  1  2  2  0  0  0  0
  1  3  1  0  0  0  0
  3  4  1  0  0  0  0
  3  5  1  0  0  0  0
  5  6  1  0  0  0  0
  1  7  1  0  0  0  0
  7  8  1  0  0  0  0
  9  8  2  0  0  0  0
 10  9  1  0  0  0  0
 11 10  2  0  0  0  0
 11 12  1  0  0  0  0
 13 11  1  0  0  0  0
 13 14  1  0  0  0  0
 15 13  2  0  0  0  0
  8 15  1  0  0  0  0
M  END
> <ChemID>
10124

> <CAS>
330-55-2

> <Original_SMILES>
CON(C)C(=O)Nc1cc(Cl)c(Cl)cc1

> <preferred_name>
Linuron

> <dsstox_substance_id>
DTXSID2024163

> <dsstox_compound_id>
DTXCID604163

> <Canonical_QSARr>
CON(C)C(=O)NC1C=C(Cl)C(Cl)=CC=1

> <InChI_Code_QSARr>
InChI=1S/C9H10Cl2N2O2/c1-13(15-2)9(14)12-6-3-4-7(10)8(11)5-6/h3-5H,1-2H3,(H,12,14)

> <InChI Key_QSARr>
XKJMBINCVNINCA-UHFFFAOYSA-N

> <Salt_Solvent>


> <Salt_Solvent_ID>
0

> <Clint>
1.5191714638216587

> <Tr_1_Tst_0>
1

$$$$
Row203
  Mrv171c012261910192D          

 20 21  0  0  0  0            999 V2000
    1.9339   -1.9475    0.0000 N   0  0  0  0  0  0  0  0  0  0  0  0
    1.9339   -1.1225    0.0000 C   0  0  0  0  0  0  0  0  0  0  0  0
    2.6483   -0.7100    0.0000 C   0  0  0  0  0  0  0  0  0  0  0  0
    3.3628   -1.1225    0.0000 C   0  0  0  0  0  0  0  0  0  0  0  0
    3.3628   -1.9475    0.0000 C   0  0  0  0  0  0  0  0  0  0  0  0
    4.0773   -2.3600    0.0000 C   0  0  0  0  0  0  0  0  0  0  0  0
    4.7918   -1.9475    0.0000 C   0  0  0  0  0  0  0  0  0  0  0  0
    5.5062   -2.3600    0.0000 Cl  0  0  0  0  0  0  0  0  0  0  0  0
    4.7918   -1.1225    0.0000 C   0  0  0  0  0  0  0  0  0  0  0  0
    4.0773   -0.7100    0.0000 C   0  0  0  0  0  0  0  0  0  0  0  0
    1.2194   -0.7100    0.0000 C   0  0  0  0  0  0  0  0  0  0  0  0
    1.2194    0.1150    0.0000 O   0  0  0  0  0  0  0  0  0  0  0  0
    0.5049   -1.1225    0.0000 C   0  0  0  0  0  0  0  0  0  0  0  0
   -0.2095   -1.5350    0.0000 C   0  0  0  0  0  0  0  0  0  0  0  0
    0.0924   -0.4080    0.0000 C   0  0  0  0  0  0  0  0  0  0  0  0
    0.9174   -1.8370    0.0000 C   0  0  0  0  0  0  0  0  0  0  0  0
    1.2664   -2.4324    0.0000 C   0  0  0  0  0  0  0  0  0  0  0  0
    1.5214   -3.2170    0.0000 N   0  0  0  0  0  0  0  0  0  0  0  0
    2.3464   -3.2170    0.0000 C   0  0  0  0  0  0  0  0  0  0  0  0
    2.6013   -2.4324    0.0000 N   0  0  0  0  0  0  0  0  0  0  0  0
  1  2  1  0  0  0  0
  2  3  1  0  0  0  0
  3  4  1  0  0  0  0
  5  4  2  0  0  0  0
  6  5  1  0  0  0  0
  7  6  2  0  0  0  0
  7  8  1  0  0  0  0
  9  7  1  0  0  0  0
 10  9  2  0  0  0  0
  4 10  1  0  0  0  0
  2 11  1  0  0  0  0
 11 12  1  0  0  0  0
 11 13  1  0  0  0  0
 13 14  1  0  0  0  0
 13 15  1  0  0  0  0
 13 16  1  0  0  0  0
 17  1  1  0  0  0  0
 18 17  2  0  0  0  0
 19 18  1  0  0  0  0
 20 19  2  0  0  0  0
  1 20  1  0  0  0  0
M  END
> <ChemID>
10125

> <CAS>
76738-62-0

> <Original_SMILES>
CC(C)(C)[C@@H](O)[C@@H](Cc1ccc(Cl)cc1)[n]1c[n]c[n]1

> <preferred_name>
Paclobutrazol

> <dsstox_substance_id>
DTXSID2024242

> <dsstox_compound_id>
DTXCID50196503

> <Canonical_QSARr>
CC(C)(C)C(O)C(CC1=CC=C(Cl)C=C1)N1C=NC=N1

> <InChI_Code_QSARr>
InChI=1S/C15H20ClN3O/c1-15(2,3)14(20)13(19-10-17-9-18-19)8-11-4-6-12(16)7-5-11/h4-7,9-10,13-14,20H,8H2,1-3H3

> <InChI Key_QSARr>
RMOGWMIKYWRTKW-UHFFFAOYSA-N

> <Salt_Solvent>


> <Salt_Solvent_ID>
0

> <Clint>
0.8536982117761743

> <Tr_1_Tst_0>
1

$$$$
Row192
  Mrv171c012261910192D          

 12 12  0  0  0  0            999 V2000
    3.4915   -0.6051    0.0000 O   0  0  0  0  0  0  0  0  0  0  0  0
    2.7770   -1.0176    0.0000 C   0  0  0  0  0  0  0  0  0  0  0  0
    2.0626   -0.6051    0.0000 C   0  0  0  0  0  0  0  0  0  0  0  0
    2.0626    0.2199    0.0000 Cl  0  0  0  0  0  0  0  0  0  0  0  0
    1.3481   -1.0176    0.0000 C   0  0  0  0  0  0  0  0  0  0  0  0
    1.3481   -1.8426    0.0000 C   0  0  0  0  0  0  0  0  0  0  0  0
    0.6336   -2.2551    0.0000 O   0  0  0  0  0  0  0  0  0  0  0  0
    0.6336   -3.0801    0.0000 C   0  0  0  0  0  0  0  0  0  0  0  0
    2.0626   -2.2551    0.0000 C   0  0  0  0  0  0  0  0  0  0  0  0
    2.0626   -3.0801    0.0000 Cl  0  0  0  0  0  0  0  0  0  0  0  0
    2.7770   -1.8426    0.0000 C   0  0  0  0  0  0  0  0  0  0  0  0
    3.4915    0.2199    0.0000 C   0  0  0  0  0  0  0  0  0  0  0  0
  1  2  1  0  0  0  0
  3  2  1  0  0  0  0
  3  4  1  0  0  0  0
  5  3  2  0  0  0  0
  6  5  1  0  0  0  0
  6  7  1  0  0  0  0
  7  8  1  0  0  0  0
  9  6  2  0  0  0  0
  9 10  1  0  0  0  0
 11  9  1  0  0  0  0
  2 11  2  0  0  0  0
  1 12  1  0  0  0  0
M  END
> <ChemID>
10126

> <CAS>
2675-77-6

> <Original_SMILES>
COc1cc(Cl)c(cc1Cl)OC

> <preferred_name>
Chloroneb

> <dsstox_substance_id>
DTXSID2024793

> <dsstox_compound_id>
DTXCID704793

> <Canonical_QSARr>
COC1C=C(Cl)C(=CC=1Cl)OC

> <InChI_Code_QSARr>
InChI=1S/C8H8Cl2O2/c1-11-7-3-6(10)8(12-2)4-5(7)9/h3-4H,1-2H3

> <InChI Key_QSARr>
PFIADAMVCJPXSF-UHFFFAOYSA-N

> <Salt_Solvent>


> <Salt_Solvent_ID>
0

> <Clint>
0.8000293592441342

> <Tr_1_Tst_0>
1

$$$$
Row482
  Mrv171c012261910192D          

 25 26  0  0  0  0            999 V2000
   -1.2731    0.9048    0.0000 N   0  0  0  0  0  0  0  0  0  0  0  0
   -0.5586    1.3173    0.0000 C   0  0  0  0  0  0  0  0  0  0  0  0
   -0.5586    2.1423    0.0000 C   0  0  0  0  0  0  0  0  0  0  0  0
    0.1559    0.9048    0.0000 C   0  0  0  0  0  0  0  0  0  0  0  0
    0.8703    1.3173    0.0000 C   0  0  0  0  0  0  0  0  0  0  0  0
    0.8703    2.1423    0.0000 O   0  0  0  0  0  0  0  0  0  0  0  0
    0.1559    2.5548    0.0000 C   0  0  0  0  0  0  0  0  0  0  0  0
    1.5848    0.9048    0.0000 O   0  0  0  0  0  0  0  0  0  0  0  0
    0.1559    0.0798    0.0000 C   0  0  0  0  0  0  0  0  0  0  0  0
    0.8703   -0.3327    0.0000 C   0  0  0  0  0  0  0  0  0  0  0  0
    0.8703   -1.1577    0.0000 C   0  0  0  0  0  0  0  0  0  0  0  0
    0.0653   -1.9082    0.0000 N   0  3  0  0  0  0  0  0  0  0  0  0
    0.1559   -2.3952    0.0000 O   0  5  0  0  0  0  0  0  0  0  0  0
   -0.6492   -1.4957    0.0000 O   0  0  0  0  0  0  0  0  0  0  0  0
    1.5848   -1.5702    0.0000 C   0  0  0  0  0  0  0  0  0  0  0  0
    2.2993   -1.1577    0.0000 C   0  0  0  0  0  0  0  0  0  0  0  0
    2.2993   -0.3327    0.0000 C   0  0  0  0  0  0  0  0  0  0  0  0
    1.5848    0.0798    0.0000 C   0  0  0  0  0  0  0  0  0  0  0  0
   -0.5586   -0.3327    0.0000 C   0  0  0  0  0  0  0  0  0  0  0  0
   -0.5586   -1.1577    0.0000 C   0  0  0  0  0  0  0  0  0  0  0  0
    0.1559   -1.5702    0.0000 O   0  0  0  0  0  0  0  0  0  0  0  0
   -1.2731   -1.5702    0.0000 O   0  0  0  0  0  0  0  0  0  0  0  0
   -1.2731   -2.3952    0.0000 C   0  0  0  0  0  0  0  0  0  0  0  0
   -1.2731    0.0798    0.0000 C   0  0  0  0  0  0  0  0  0  0  0  0
   -1.9876   -0.3327    0.0000 C   0  0  0  0  0  0  0  0  0  0  0  0
  2  1  1  0  0  0  0
  2  3  1  0  0  0  0
  4  2  2  0  0  0  0
  4  5  1  0  0  0  0
  5  6  1  0  0  0  0
  6  7  1  0  0  0  0
  5  8  2  0  0  0  0
  9  4  1  0  0  0  0
  9 10  1  0  0  0  0
 11 10  1  0  0  0  0
 11 12  1  0  0  0  0
 12 13  1  0  0  0  0
 12 14  2  0  0  0  0
 15 11  2  0  0  0  0
 16 15  1  0  0  0  0
 17 16  2  0  0  0  0
 18 17  1  0  0  0  0
 10 18  2  0  0  0  0
 19  9  1  0  0  0  0
 19 20  1  0  0  0  0
 20 21  2  0  0  0  0
 20 22  1  0  0  0  0
 22 23  1  0  0  0  0
 24 19  1  0  0  0  0
  1 24  2  0  0  0  0
 24 25  1  0  0  0  0
M  CHG  2  12   1  13  -1
M  END
> <ChemID>
10127

> <CAS>
21829-25-4

> <Original_SMILES>
CC1NC(C)=C(C(C=1C(=O)OC)c1ccccc1[N+]([O-])=O)C(=O)OC

> <preferred_name>
Nifedipine

> <dsstox_substance_id>
DTXSID2025715

> <dsstox_compound_id>
DTXCID205715

> <Canonical_QSARr>
CC1=NC(C)=C(C(C1C(=O)OC)C1=CC=CC=C1[N+]([O-])=O)C(=O)OC

> <InChI_Code_QSARr>
InChI=1S/C17H18N2O6/c1-9-13(16(20)24-3)15(14(10(2)18-9)17(21)25-4)11-7-5-6-8-12(11)19(22)23/h5-8,13,15H,1-4H3

> <InChI Key_QSARr>
OSUCQKNXQBPLDG-UHFFFAOYSA-N

> <Salt_Solvent>


> <Salt_Solvent_ID>
0

> <Clint>
0.8864907251724818

> <Tr_1_Tst_0>
0

$$$$
Row381
  Mrv171c012261910192D          

 11 10  0  0  0  0            999 V2000
    1.4384   -1.0615    0.0000 C   0  0  0  0  0  0  0  0  0  0  0  0
    1.4384   -1.8865    0.0000 O   0  0  0  0  0  0  0  0  0  0  0  0
    0.7239   -0.6490    0.0000 O   0  0  0  0  0  0  0  0  0  0  0  0
    0.0094   -1.0615    0.0000 C   0  0  0  0  0  0  0  0  0  0  0  0
    2.1529   -0.6490    0.0000 C   0  0  0  0  0  0  0  0  0  0  0  0
    2.8673   -1.0615    0.0000 C   0  0  0  0  0  0  0  0  0  0  0  0
    3.5818   -0.6490    0.0000 C   0  0  0  0  0  0  0  0  0  0  0  0
    4.2963   -1.0615    0.0000 C   0  0  0  0  0  0  0  0  0  0  0  0
    5.0107   -0.6490    0.0000 C   0  0  0  0  0  0  0  0  0  0  0  0
    5.7252   -1.0615    0.0000 C   0  0  0  0  0  0  0  0  0  0  0  0
    6.4397   -0.6490    0.0000 C   0  0  0  0  0  0  0  0  0  0  0  0
  1  2  2  0  0  0  0
  1  3  1  0  0  0  0
  3  4  1  0  0  0  0
  1  5  1  0  0  0  0
  5  6  1  0  0  0  0
  6  7  1  0  0  0  0
  7  8  1  0  0  0  0
  8  9  1  0  0  0  0
  9 10  1  0  0  0  0
 10 11  1  0  0  0  0
M  END
> <ChemID>
10128

> <CAS>
111-11-5

> <Original_SMILES>
CCCCCCCC(=O)OC

> <preferred_name>
Methyl octanoate

> <dsstox_substance_id>
DTXSID2026864

> <dsstox_compound_id>
DTXCID606864

> <Canonical_QSARr>
CCCCCCCC(=O)OC

> <InChI_Code_QSARr>
InChI=1S/C9H18O2/c1-3-4-5-6-7-8-9(10)11-2/h3-8H2,1-2H3

> <InChI Key_QSARr>
JGHZJRVDZXSNKQ-UHFFFAOYSA-N

> <Salt_Solvent>


> <Salt_Solvent_ID>
0

> <Clint>
1.7335182514344876

> <Tr_1_Tst_0>
1

$$$$
Row64
  Mrv171c012261910192D          

 18 19  0  0  0  0            999 V2000
    2.5315   -1.6342    0.0000 C   0  0  0  0  0  0  0  0  0  0  0  0
    1.8170   -1.2217    0.0000 C   0  0  0  0  0  0  0  0  0  0  0  0
    1.8170   -0.3967    0.0000 Cl  0  0  0  0  0  0  0  0  0  0  0  0
    1.1025   -1.6342    0.0000 C   0  0  0  0  0  0  0  0  0  0  0  0
    1.1025   -2.4592    0.0000 C   0  0  0  0  0  0  0  0  0  0  0  0
    0.3881   -2.8717    0.0000 Cl  0  0  0  0  0  0  0  0  0  0  0  0
    1.8170   -2.8717    0.0000 C   0  0  0  0  0  0  0  0  0  0  0  0
    1.8170   -3.6967    0.0000 Cl  0  0  0  0  0  0  0  0  0  0  0  0
    2.5315   -2.4592    0.0000 C   0  0  0  0  0  0  0  0  0  0  0  0
    3.2460   -1.2217    0.0000 C   0  0  0  0  0  0  0  0  0  0  0  0
    3.9604   -1.6342    0.0000 C   0  0  0  0  0  0  0  0  0  0  0  0
    4.6749   -1.2217    0.0000 C   0  0  0  0  0  0  0  0  0  0  0  0
    5.3894   -1.6342    0.0000 Cl  0  0  0  0  0  0  0  0  0  0  0  0
    4.6749   -0.3967    0.0000 C   0  0  0  0  0  0  0  0  0  0  0  0
    5.3894    0.0158    0.0000 Cl  0  0  0  0  0  0  0  0  0  0  0  0
    3.9604    0.0158    0.0000 C   0  0  0  0  0  0  0  0  0  0  0  0
    3.2460   -0.3967    0.0000 C   0  0  0  0  0  0  0  0  0  0  0  0
    2.5315    0.0158    0.0000 Cl  0  0  0  0  0  0  0  0  0  0  0  0
  2  1  1  0  0  0  0
  2  3  1  0  0  0  0
  4  2  2  0  0  0  0
  5  4  1  0  0  0  0
  5  6  1  0  0  0  0
  7  5  2  0  0  0  0
  7  8  1  0  0  0  0
  9  7  1  0  0  0  0
  1  9  2  0  0  0  0
  1 10  1  0  0  0  0
 11 10  1  0  0  0  0
 12 11  2  0  0  0  0
 12 13  1  0  0  0  0
 14 12  1  0  0  0  0
 14 15  1  0  0  0  0
 16 14  2  0  0  0  0
 17 16  1  0  0  0  0
 10 17  2  0  0  0  0
 17 18  1  0  0  0  0
M  END
> <ChemID>
10129

> <CAS>
35065-27-1

> <Original_SMILES>
Clc1cc(Cl)c(Cl)cc1-c1cc(Cl)c(Cl)cc1Cl

> <preferred_name>
2,2',4,4',5,5'-Hexachlorobiphenyl

> <dsstox_substance_id>
DTXSID2032180

> <dsstox_compound_id>
DTXCID0012180

> <Canonical_QSARr>
ClC1=CC(Cl)=C(C=C1Cl)C1=CC(Cl)=C(Cl)C=C1Cl

> <InChI_Code_QSARr>
InChI=1S/C12H4Cl6/c13-7-3-11(17)9(15)1-5(7)6-2-10(16)12(18)4-8(6)14/h1-4H

> <InChI Key_QSARr>
MVWHGTYKUMDIHL-UHFFFAOYSA-N

> <Salt_Solvent>


> <Salt_Solvent_ID>
0

> <Clint>
-5.565431095965801

> <Tr_1_Tst_0>
1

$$$$
Row414
  Mrv171c012261910192D          

 15 14  0  0  0  0            999 V2000
    1.7399   -1.1025    0.0000 S   0  0  0  0  0  0  0  0  0  0  0  0
    2.1524   -1.8170    0.0000 P   0  0  0  0  0  0  0  0  0  0  0  0
    1.4379   -2.2295    0.0000 O   0  0  0  0  0  0  0  0  0  0  0  0
    0.7234   -1.8170    0.0000 C   0  0  0  0  0  0  0  0  0  0  0  0
    0.7234   -0.9920    0.0000 Cl  0  0  0  0  0  0  0  0  0  0  0  0
    0.0089   -2.2295    0.0000 C   0  0  0  0  0  0  0  0  0  0  0  0
   -0.7055   -2.6420    0.0000 Cl  0  0  0  0  0  0  0  0  0  0  0  0
    0.4214   -2.9440    0.0000 Cl  0  0  0  0  0  0  0  0  0  0  0  0
   -0.4036   -1.5150    0.0000 Cl  0  0  0  0  0  0  0  0  0  0  0  0
    2.8668   -1.4045    0.0000 O   0  0  0  0  0  0  0  0  0  0  0  0
    3.5813   -1.8170    0.0000 C   0  0  0  0  0  0  0  0  0  0  0  0
    4.2958   -1.4045    0.0000 C   0  0  0  0  0  0  0  0  0  0  0  0
    2.5649   -2.5315    0.0000 O   0  0  0  0  0  0  0  0  0  0  0  0
    2.1524   -3.2459    0.0000 C   0  0  0  0  0  0  0  0  0  0  0  0
    1.3274   -3.2459    0.0000 C   0  0  0  0  0  0  0  0  0  0  0  0
  1  2  2  0  0  0  0
  2  3  1  0  0  0  0
  3  4  1  0  0  0  0
  4  5  1  0  0  0  0
  4  6  1  0  0  0  0
  6  7  1  0  0  0  0
  6  8  1  0  0  0  0
  6  9  1  0  0  0  0
  2 10  1  0  0  0  0
 10 11  1  0  0  0  0
 11 12  1  0  0  0  0
  2 13  1  0  0  0  0
 13 14  1  0  0  0  0
 14 15  1  0  0  0  0
M  END
> <ChemID>
10130

> <CAS>
54593-83-8

> <Original_SMILES>
CCOP(=S)(OC(Cl)C(Cl)(Cl)Cl)OCC

> <preferred_name>
Chlorethoxyfos

> <dsstox_substance_id>
DTXSID2032344

> <dsstox_compound_id>
DTXCID0012344

> <Canonical_QSARr>
CCOP(=S)(OC(Cl)C(Cl)(Cl)Cl)OCC

> <InChI_Code_QSARr>
InChI=1S/C6H11Cl4O3PS/c1-3-11-14(15,12-4-2)13-5(7)6(8,9)10/h5H,3-4H2,1-2H3

> <InChI Key_QSARr>
XFDJMIHUAHSGKG-UHFFFAOYSA-N

> <Salt_Solvent>


> <Salt_Solvent_ID>
0

> <Clint>
-7.0

> <Tr_1_Tst_0>
0

$$$$
Row159
  Mrv171c012261910192D          

 22 24  0  0  0  0            999 V2000
    2.9398   -1.8952    0.0000 C   0  0  0  0  0  0  0  0  0  0  0  0
    3.7648   -1.8952    0.0000 O   0  0  0  0  0  0  0  0  0  0  0  0
    2.9398   -1.0702    0.0000 C   0  0  0  0  0  0  0  0  0  0  0  0
    3.6543   -0.6577    0.0000 C   0  0  0  0  0  0  0  0  0  0  0  0
    3.6543    0.1673    0.0000 C   0  0  0  0  0  0  0  0  0  0  0  0
    2.9398    0.5798    0.0000 C   0  0  0  0  0  0  0  0  0  0  0  0
    2.9398    1.4048    0.0000 Cl  0  0  0  0  0  0  0  0  0  0  0  0
    2.2254    0.1673    0.0000 C   0  0  0  0  0  0  0  0  0  0  0  0
    2.2254   -0.6577    0.0000 C   0  0  0  0  0  0  0  0  0  0  0  0
    2.1148   -1.8952    0.0000 C   0  0  0  0  0  0  0  0  0  0  0  0
    1.7023   -1.1807    0.0000 C   0  0  0  0  0  0  0  0  0  0  0  0
    0.8773   -1.1807    0.0000 N   0  0  0  0  0  0  0  0  0  0  0  0
    0.4648   -1.8952    0.0000 C   0  0  0  0  0  0  0  0  0  0  0  0
    0.8773   -2.6097    0.0000 N   0  0  0  0  0  0  0  0  0  0  0  0
    1.7023   -2.6097    0.0000 C   0  0  0  0  0  0  0  0  0  0  0  0
    2.9398   -2.7202    0.0000 C   0  0  0  0  0  0  0  0  0  0  0  0
    2.2254   -3.1327    0.0000 C   0  0  0  0  0  0  0  0  0  0  0  0
    2.2254   -3.9577    0.0000 C   0  0  0  0  0  0  0  0  0  0  0  0
    2.9398   -4.3702    0.0000 C   0  0  0  0  0  0  0  0  0  0  0  0
    3.6543   -3.9577    0.0000 C   0  0  0  0  0  0  0  0  0  0  0  0
    3.6543   -3.1327    0.0000 C   0  0  0  0  0  0  0  0  0  0  0  0
    4.3688   -2.7202    0.0000 Cl  0  0  0  0  0  0  0  0  0  0  0  0
  1  2  1  0  0  0  0
  1  3  1  0  0  0  0
  4  3  1  0  0  0  0
  5  4  2  0  0  0  0
  6  5  1  0  0  0  0
  6  7  1  0  0  0  0
  8  6  2  0  0  0  0
  9  8  1  0  0  0  0
  3  9  2  0  0  0  0
  1 10  1  0  0  0  0
 11 10  1  0  0  0  0
 12 11  2  0  0  0  0
 13 12  1  0  0  0  0
 14 13  2  0  0  0  0
 15 14  1  0  0  0  0
 10 15  2  0  0  0  0
  1 16  1  0  0  0  0
 17 16  2  0  0  0  0
 18 17  1  0  0  0  0
 19 18  2  0  0  0  0
 20 19  1  0  0  0  0
 21 20  2  0  0  0  0
 16 21  1  0  0  0  0
 21 22  1  0  0  0  0
M  END
> <ChemID>
10131

> <CAS>
60168-88-9

> <Original_SMILES>
OC(c1ccccc1Cl)(c1ccc(Cl)cc1)c1c[n]c[n]c1

> <preferred_name>
Fenarimol

> <dsstox_substance_id>
DTXSID2032390

> <dsstox_compound_id>
DTXCID0012390

> <Canonical_QSARr>
OC(C1=CC=CC=C1Cl)(C1C=CC(Cl)=CC=1)C1C=NC=NC=1

> <InChI_Code_QSARr>
InChI=1S/C17H12Cl2N2O/c18-14-7-5-12(6-8-14)17(22,13-9-20-11-21-10-13)15-3-1-2-4-16(15)19/h1-11,22H

> <InChI Key_QSARr>
NHOWDZOIZKMVAI-UHFFFAOYSA-N

> <Salt_Solvent>


> <Salt_Solvent_ID>
0

> <Clint>
0.5786392099680723

> <Tr_1_Tst_0>
1

$$$$
Row382
  Mrv171c012261910192D          

 25 27  0  0  0  0            999 V2000
    0.6795   -3.0652    0.0000 C   0  0  0  0  0  0  0  0  0  0  0  0
    0.6795   -3.8902    0.0000 O   0  0  0  0  0  0  0  0  0  0  0  0
   -0.0349   -2.6527    0.0000 O   0  0  0  0  0  0  0  0  0  0  0  0
   -0.7494   -3.0652    0.0000 C   0  0  0  0  0  0  0  0  0  0  0  0
   -1.4639   -2.6527    0.0000 C   0  0  0  0  0  0  0  0  0  0  0  0
    1.3940   -2.6527    0.0000 C   0  0  0  0  0  0  0  0  0  0  0  0
    2.1085   -3.0652    0.0000 O   0  0  0  0  0  0  0  0  0  0  0  0
    2.8230   -2.6527    0.0000 C   0  0  0  0  0  0  0  0  0  0  0  0
    3.5374   -3.0652    0.0000 C   0  0  0  0  0  0  0  0  0  0  0  0
    4.2519   -2.6527    0.0000 C   0  0  0  0  0  0  0  0  0  0  0  0
    4.2519   -1.8277    0.0000 C   0  0  0  0  0  0  0  0  0  0  0  0
    4.9664   -1.4152    0.0000 O   0  0  0  0  0  0  0  0  0  0  0  0
    5.6808   -1.8277    0.0000 C   0  0  0  0  0  0  0  0  0  0  0  0
    6.4345   -1.4921    0.0000 O   0  0  0  0  0  0  0  0  0  0  0  0
    6.9866   -2.1052    0.0000 C   0  0  0  0  0  0  0  0  0  0  0  0
    7.8116   -2.1052    0.0000 C   0  0  0  0  0  0  0  0  0  0  0  0
    8.2241   -2.8197    0.0000 C   0  0  0  0  0  0  0  0  0  0  0  0
    9.0491   -2.8197    0.0000 Cl  0  0  0  0  0  0  0  0  0  0  0  0
    7.8116   -3.5342    0.0000 C   0  0  0  0  0  0  0  0  0  0  0  0
    6.9866   -3.5342    0.0000 C   0  0  0  0  0  0  0  0  0  0  0  0
    6.5741   -2.8197    0.0000 C   0  0  0  0  0  0  0  0  0  0  0  0
    5.7671   -2.6482    0.0000 N   0  0  0  0  0  0  0  0  0  0  0  0
    3.5374   -1.4152    0.0000 C   0  0  0  0  0  0  0  0  0  0  0  0
    2.8230   -1.8277    0.0000 C   0  0  0  0  0  0  0  0  0  0  0  0
    1.3940   -1.8277    0.0000 C   0  0  0  0  0  0  0  0  0  0  0  0
  1  2  2  0  0  0  0
  1  3  1  0  0  0  0
  3  4  1  0  0  0  0
  4  5  1  0  0  0  0
  1  6  1  0  0  0  0
  6  7  1  0  0  0  0
  7  8  1  0  0  0  0
  9  8  1  0  0  0  0
 10  9  2  0  0  0  0
 11 10  1  0  0  0  0
 11 12  1  0  0  0  0
 12 13  1  0  0  0  0
 14 13  1  0  0  0  0
 15 14  1  0  0  0  0
 15 16  1  0  0  0  0
 16 17  2  0  0  0  0
 17 18  1  0  0  0  0
 17 19  1  0  0  0  0
 19 20  2  0  0  0  0
 20 21  1  0  0  0  0
 21 15  2  0  0  0  0
 22 21  1  0  0  0  0
 13 22  2  0  0  0  0
 23 11  2  0  0  0  0
 24 23  1  0  0  0  0
  8 24  2  0  0  0  0
  6 25  1  0  0  0  0
M  END
> <ChemID>
10132

> <CAS>
66441-23-4

> <Original_SMILES>
CCOC(=O)C(C)Oc1ccc(cc1)Oc1[n]c2ccc(Cl)cc2o1

> <preferred_name>
Fenoxaprop-ethyl

> <dsstox_substance_id>
DTXSID2032392

> <dsstox_compound_id>
DTXCID0012392

> <Canonical_QSARr>
CCOC(=O)C(C)OC1C=CC(=CC=1)OC1=NC2C=CC(Cl)=CC=2O1

> <InChI_Code_QSARr>
InChI=1S/C18H16ClNO5/c1-3-22-17(21)11(2)23-13-5-7-14(8-6-13)24-18-20-15-9-4-12(19)10-16(15)25-18/h4-11H,3H2,1-2H3

> <InChI Key_QSARr>
PQKBPHSEKWERTG-UHFFFAOYSA-N

> <Salt_Solvent>


> <Salt_Solvent_ID>
0

> <Clint>
1.7398095990213587

> <Tr_1_Tst_0>
1

$$$$
Row533
  Mrv171c012261910192D          

 18 20  0  0  0  0            999 V2000
    1.5451   -2.1023    0.0000 C   0  0  0  0  0  0  0  0  0  0  0  0
    0.7605   -1.8474    0.0000 O   0  0  0  0  0  0  0  0  0  0  0  0
    0.2756   -2.5148    0.0000 C   0  0  0  0  0  0  0  0  0  0  0  0
   -0.3375   -1.9628    0.0000 F   0  0  0  0  0  0  0  0  0  0  0  0
   -0.3375   -3.0668    0.0000 F   0  0  0  0  0  0  0  0  0  0  0  0
    0.7605   -3.1823    0.0000 O   0  0  0  0  0  0  0  0  0  0  0  0
    1.5451   -2.9273    0.0000 C   0  0  0  0  0  0  0  0  0  0  0  0
    2.2596   -3.3398    0.0000 C   0  0  0  0  0  0  0  0  0  0  0  0
    2.9741   -2.9273    0.0000 C   0  0  0  0  0  0  0  0  0  0  0  0
    2.9741   -2.1023    0.0000 C   0  0  0  0  0  0  0  0  0  0  0  0
    2.2596   -1.6898    0.0000 C   0  0  0  0  0  0  0  0  0  0  0  0
    2.2596   -0.8648    0.0000 C   0  0  0  0  0  0  0  0  0  0  0  0
    2.9270   -0.3799    0.0000 C   0  0  0  0  0  0  0  0  0  0  0  0
    2.6721    0.4047    0.0000 N   0  0  0  0  0  0  0  0  0  0  0  0
    1.8471    0.4047    0.0000 C   0  0  0  0  0  0  0  0  0  0  0  0
    1.5922   -0.3799    0.0000 C   0  0  0  0  0  0  0  0  0  0  0  0
    0.8075   -0.6348    0.0000 C   0  0  0  0  0  0  0  0  0  0  0  0
    0.0229   -0.8898    0.0000 N   0  0  0  0  0  0  0  0  0  0  0  0
  2  1  1  0  0  0  0
  3  2  1  0  0  0  0
  3  4  1  0  0  0  0
  3  5  1  0  0  0  0
  6  3  1  0  0  0  0
  7  6  1  0  0  0  0
  7  1  1  0  0  0  0
  8  7  2  0  0  0  0
  9  8  1  0  0  0  0
 10  9  2  0  0  0  0
 11 10  1  0  0  0  0
  1 11  2  0  0  0  0
 11 12  1  0  0  0  0
 13 12  2  0  0  0  0
 14 13  1  0  0  0  0
 15 14  1  0  0  0  0
 16 15  2  0  0  0  0
 12 16  1  0  0  0  0
 16 17  1  0  0  0  0
 17 18  3  0  0  0  0
M  END
> <ChemID>
10133

> <CAS>
131341-86-1

> <Original_SMILES>
N#Cc1c[nH]cc1-c1cccc2OC(F)(F)Oc21

> <preferred_name>
Fludioxonil

> <dsstox_substance_id>
DTXSID2032398

> <dsstox_compound_id>
DTXCID0012398

> <Canonical_QSARr>
N#CC1=CNC=C1C1C=CC=C2OC(F)(F)OC=12

> <InChI_Code_QSARr>
InChI=1S/C12H6F2N2O2/c13-12(14)17-10-3-1-2-8(11(10)18-12)9-6-16-5-7(9)4-15/h1-3,5-6,16H

> <InChI Key_QSARr>
MUJOIMFVNIBMKC-UHFFFAOYSA-N

> <Salt_Solvent>


> <Salt_Solvent_ID>
0

> <Clint>
1.5687882123153467

> <Tr_1_Tst_0>
0

$$$$
Row265
  Mrv171c012261910192D          

 23 24  0  0  0  0            999 V2000
   -0.7145   -3.7125    0.0000 C   0  0  0  0  0  0  0  0  0  0  0  0
    0.0000   -4.1250    0.0000 C   0  0  0  0  0  0  0  0  0  0  0  0
    0.7145   -3.7125    0.0000 C   0  0  0  0  0  0  0  0  0  0  0  0
    1.4289   -4.1250    0.0000 O   0  0  0  0  0  0  0  0  0  0  0  0
    2.1434   -3.7125    0.0000 C   0  0  0  0  0  0  0  0  0  0  0  0
    2.8579   -4.1250    0.0000 C   0  0  0  0  0  0  0  0  0  0  0  0
    2.8579   -4.9500    0.0000 N   0  0  0  0  0  0  0  0  0  0  0  0
    3.5724   -5.3625    0.0000 C   0  0  0  0  0  0  0  0  0  0  0  0
    4.2868   -4.9500    0.0000 C   0  0  0  0  0  0  0  0  0  0  0  0
    5.0013   -5.3625    0.0000 C   0  0  0  0  0  0  0  0  0  0  0  0
    5.0013   -6.1875    0.0000 C   0  0  0  0  0  0  0  0  0  0  0  0
    5.7158   -6.6000    0.0000 Cl  0  0  0  0  0  0  0  0  0  0  0  0
    4.2868   -6.6000    0.0000 C   0  0  0  0  0  0  0  0  0  0  0  0
    3.5724   -6.1875    0.0000 C   0  0  0  0  0  0  0  0  0  0  0  0
    2.8579   -6.6000    0.0000 C   0  0  0  0  0  0  0  0  0  0  0  0
    2.1434   -7.0125    0.0000 F   0  0  0  0  0  0  0  0  0  0  0  0
    2.4454   -5.8855    0.0000 F   0  0  0  0  0  0  0  0  0  0  0  0
    3.2704   -7.3145    0.0000 F   0  0  0  0  0  0  0  0  0  0  0  0
    3.5724   -3.7125    0.0000 N   0  0  0  0  0  0  0  0  0  0  0  0
    3.6586   -2.8920    0.0000 C   0  0  0  0  0  0  0  0  0  0  0  0
    4.4656   -2.7205    0.0000 N   0  0  0  0  0  0  0  0  0  0  0  0
    4.8781   -3.4350    0.0000 C   0  0  0  0  0  0  0  0  0  0  0  0
    4.3260   -4.0481    0.0000 C   0  0  0  0  0  0  0  0  0  0  0  0
  1  2  1  0  0  0  0
  2  3  1  0  0  0  0
  3  4  1  0  0  0  0
  4  5  1  0  0  0  0
  5  6  1  0  0  0  0
  6  7  2  0  0  0  0
  7  8  1  4  0  0  0
  8  9  1  0  0  0  0
  9 10  2  0  0  0  0
 10 11  1  0  0  0  0
 11 12  1  0  0  0  0
 11 13  2  0  0  0  0
 13 14  1  0  0  0  0
  8 14  2  0  0  0  0
 14 15  1  0  0  0  0
 15 16  1  0  0  0  0
 15 17  1  0  0  0  0
 15 18  1  0  0  0  0
  6 19  1  0  0  0  0
 19 20  1  0  0  0  0
 20 21  2  0  0  0  0
 21 22  1  0  0  0  0
 22 23  2  0  0  0  0
 19 23  1  0  0  0  0
M  END
> <ChemID>
10134

> <CAS>
68694-11-1

> <Original_SMILES>
CCCOC/C(=N\c1ccc(Cl)cc1C(F)(F)F)/[n]1c[n]cc1

> <preferred_name>
Triflumizole

> <dsstox_substance_id>
DTXSID2032500

> <dsstox_compound_id>
DTXCID0012500

> <Canonical_QSARr>
CCCOCC(=NC1C=CC(Cl)=CC=1C(F)(F)F)N1C=NC=C1

> <InChI_Code_QSARr>
InChI=1S/C15H15ClF3N3O/c1-2-7-23-9-14(22-6-5-20-10-22)21-13-4-3-11(16)8-12(13)15(17,18)19/h3-6,8,10H,2,7,9H2,1H3

> <InChI Key_QSARr>
HSMVPDGQOIQYSR-UHFFFAOYSA-N

> <Salt_Solvent>


> <Salt_Solvent_ID>
0

> <Clint>
1.153814864344529

> <Tr_1_Tst_0>
1

$$$$
Row501
  Mrv171c012261910192D          

 33 34  0  0  0  0            999 V2000
    3.3152   -6.7498    0.0000 C   0  0  0  0  0  0  0  0  0  0  0  0
    3.3152   -7.5748    0.0000 O   0  0  0  0  0  0  0  0  0  0  0  0
    2.6007   -7.9873    0.0000 C   0  0  0  0  0  0  0  0  0  0  0  0
    4.0296   -6.3373    0.0000 C   0  0  0  0  0  0  0  0  0  0  0  0
    4.7441   -6.7498    0.0000 C   0  0  0  0  0  0  0  0  0  0  0  0
    5.4586   -6.3373    0.0000 C   0  0  0  0  0  0  0  0  0  0  0  0
    5.4586   -5.5123    0.0000 C   0  0  0  0  0  0  0  0  0  0  0  0
    4.7441   -5.0998    0.0000 C   0  0  0  0  0  0  0  0  0  0  0  0
    4.7441   -4.2748    0.0000 C   0  0  0  0  0  0  0  0  0  0  0  0
    4.0296   -5.5123    0.0000 C   0  0  0  0  0  0  0  0  0  0  0  0
    3.3152   -5.0998    0.0000 S   0  0  0  0  0  0  0  0  0  0  0  0
    2.6007   -4.6873    0.0000 N   0  0  0  0  0  0  0  0  0  0  0  0
    2.6007   -3.8623    0.0000 C   0  0  0  0  0  0  0  0  0  0  0  0
    1.8862   -3.4498    0.0000 N   0  0  0  0  0  0  0  0  0  0  0  0
    1.8862   -2.6248    0.0000 C   0  0  0  0  0  0  0  0  0  0  0  0
    2.6007   -2.2123    0.0000 N   0  0  0  0  0  0  0  0  0  0  0  0
    2.6007   -1.3873    0.0000 C   0  0  0  0  0  0  0  0  0  0  0  0
    3.3152   -0.9748    0.0000 N   0  0  0  0  0  0  0  0  0  0  0  0
    3.3152   -0.1498    0.0000 C   0  0  0  0  0  0  0  0  0  0  0  0
    4.0296   -1.3873    0.0000 C   0  0  0  0  0  0  0  0  0  0  0  0
    1.8862   -0.9748    0.0000 N   0  0  0  0  0  0  0  0  0  0  0  0
    1.1718   -1.3873    0.0000 C   0  0  0  0  0  0  0  0  0  0  0  0
    0.4573   -0.9748    0.0000 O   0  0  0  0  0  0  0  0  0  0  0  0
    0.4573   -0.1498    0.0000 C   0  0  0  0  0  0  0  0  0  0  0  0
   -0.2572    0.2627    0.0000 C   0  0  0  0  0  0  0  0  0  0  0  0
   -0.9716    0.6752    0.0000 F   0  0  0  0  0  0  0  0  0  0  0  0
    0.1553    0.9772    0.0000 F   0  0  0  0  0  0  0  0  0  0  0  0
   -0.6697   -0.4517    0.0000 F   0  0  0  0  0  0  0  0  0  0  0  0
    1.1718   -2.2123    0.0000 N   0  0  0  0  0  0  0  0  0  0  0  0
    3.3152   -3.4498    0.0000 O   0  0  0  0  0  0  0  0  0  0  0  0
    3.7277   -4.3853    0.0000 O   0  0  0  0  0  0  0  0  0  0  0  0
    2.9027   -5.8142    0.0000 O   0  0  0  0  0  0  0  0  0  0  0  0
    2.6007   -6.3373    0.0000 O   0  0  0  0  0  0  0  0  0  0  0  0
  1  2  1  0  0  0  0
  2  3  1  0  0  0  0
  1  4  1  0  0  0  0
  5  4  1  0  0  0  0
  6  5  2  0  0  0  0
  7  6  1  0  0  0  0
  8  7  2  0  0  0  0
  8  9  1  0  0  0  0
 10  8  1  0  0  0  0
  4 10  2  0  0  0  0
 10 11  1  0  0  0  0
 11 12  1  0  0  0  0
 12 13  1  0  0  0  0
 13 14  1  0  0  0  0
 14 15  1  0  0  0  0
 16 15  2  0  0  0  0
 17 16  1  0  0  0  0
 17 18  1  0  0  0  0
 18 19  1  0  0  0  0
 18 20  1  0  0  0  0
 21 17  2  0  0  0  0
 22 21  1  0  0  0  0
 22 23  1  0  0  0  0
 23 24  1  0  0  0  0
 24 25  1  0  0  0  0
 25 26  1  0  0  0  0
 25 27  1  0  0  0  0
 25 28  1  0  0  0  0
 29 22  2  0  0  0  0
 15 29  1  0  0  0  0
 13 30  2  0  0  0  0
 11 31  2  0  0  0  0
 11 32  2  0  0  0  0
  1 33  2  0  0  0  0
M  END
> <ChemID>
10135

> <CAS>
126535-15-7

> <Original_SMILES>
Cc1cccc(c1S(=O)(=O)NC(=O)Nc1[n]c([n]c([n]1)OCC(F)(F)F)N(C)C)C(=O)OC

> <preferred_name>
Triflusulfuron-methyl

> <dsstox_substance_id>
DTXSID2032502

> <dsstox_compound_id>
DTXCID0012502

> <Canonical_QSARr>
CC1=CC=CC(=C1S(=O)(=O)NC(=O)NC1=NC(=NC(=N1)OCC(F)(F)F)N(C)C)C(=O)OC

> <InChI_Code_QSARr>
InChI=1S/C17H19F3N6O6S/c1-9-6-5-7-10(12(27)31-4)11(9)33(29,30)25-15(28)22-13-21-14(26(2)3)24-16(23-13)32-8-17(18,19)20/h5-7H,8H2,1-4H3,(H2,21,22,23,24,25,28)

> <InChI Key_QSARr>
IMEVJVISCHQJRM-UHFFFAOYSA-N

> <Salt_Solvent>


> <Salt_Solvent_ID>
0

> <Clint>
1.1604685311190375

> <Tr_1_Tst_0>
0

$$$$
Row344
  Mrv171c012261910192D          

 24 25  0  0  0  0            999 V2000
    2.2457   -0.4696    0.0000 C   0  0  0  0  0  0  0  0  0  0  0  0
    2.6582    0.2448    0.0000 C   0  0  0  0  0  0  0  0  0  0  0  0
    2.2457    0.9593    0.0000 C   0  0  0  0  0  0  0  0  0  0  0  0
    1.4207    0.9593    0.0000 C   0  0  0  0  0  0  0  0  0  0  0  0
    1.0082    1.6738    0.0000 F   0  0  0  0  0  0  0  0  0  0  0  0
    1.0082    0.2448    0.0000 C   0  0  0  0  0  0  0  0  0  0  0  0
    1.4207   -0.4696    0.0000 C   0  0  0  0  0  0  0  0  0  0  0  0
    2.6582   -1.1841    0.0000 N   0  0  0  0  0  0  0  0  0  0  0  0
    2.2457   -1.8986    0.0000 C   0  0  0  0  0  0  0  0  0  0  0  0
    2.6582   -2.6131    0.0000 C   0  0  0  0  0  0  0  0  0  0  0  0
    1.4207   -1.8986    0.0000 C   0  0  0  0  0  0  0  0  0  0  0  0
    3.4832   -1.1841    0.0000 C   0  0  0  0  0  0  0  0  0  0  0  0
    3.8957   -0.4696    0.0000 O   0  0  0  0  0  0  0  0  0  0  0  0
    3.8957   -1.8986    0.0000 C   0  0  0  0  0  0  0  0  0  0  0  0
    4.7207   -1.8986    0.0000 O   0  0  0  0  0  0  0  0  0  0  0  0
    5.1332   -2.6131    0.0000 C   0  0  0  0  0  0  0  0  0  0  0  0
    4.7977   -3.3667    0.0000 N   0  0  0  0  0  0  0  0  0  0  0  0
    5.4108   -3.9188    0.0000 N   0  0  0  0  0  0  0  0  0  0  0  0
    6.1252   -3.5063    0.0000 C   0  0  0  0  0  0  0  0  0  0  0  0
    6.8789   -3.8418    0.0000 C   0  0  0  0  0  0  0  0  0  0  0  0
    7.6326   -4.1774    0.0000 F   0  0  0  0  0  0  0  0  0  0  0  0
    6.5433   -4.5955    0.0000 F   0  0  0  0  0  0  0  0  0  0  0  0
    7.2145   -3.0881    0.0000 F   0  0  0  0  0  0  0  0  0  0  0  0
    5.9537   -2.6993    0.0000 S   0  0  0  0  0  0  0  0  0  0  0  0
  2  1  2  0  0  0  0
  3  2  1  0  0  0  0
  4  3  2  0  0  0  0
  4  5  1  0  0  0  0
  6  4  1  0  0  0  0
  7  6  2  0  0  0  0
  1  7  1  0  0  0  0
  1  8  1  0  0  0  0
  8  9  1  0  0  0  0
  9 10  1  0  0  0  0
  9 11  1  0  0  0  0
  8 12  1  0  0  0  0
 12 13  2  0  0  0  0
 12 14  1  0  0  0  0
 14 15  1  0  0  0  0
 15 16  1  0  0  0  0
 17 16  2  0  0  0  0
 18 17  1  0  0  0  0
 19 18  2  0  0  0  0
 19 20  1  0  0  0  0
 20 21  1  0  0  0  0
 20 22  1  0  0  0  0
 20 23  1  0  0  0  0
 24 19  1  0  0  0  0
 16 24  1  0  0  0  0
M  END
> <ChemID>
10136

> <CAS>
142459-58-3

> <Original_SMILES>
CC(C)N(C(=O)COc1[n][n]c([s]1)C(F)(F)F)c1ccc(F)cc1

> <preferred_name>
Flufenacet

> <dsstox_substance_id>
DTXSID2032552

> <dsstox_compound_id>
DTXCID0012552

> <Canonical_QSARr>
CC(C)N(C(=O)COC1=NN=C(S1)C(F)(F)F)C1=CC=C(F)C=C1

> <InChI_Code_QSARr>
InChI=1S/C14H13F4N3O2S/c1-8(2)21(10-5-3-9(15)4-6-10)11(22)7-23-13-20-19-12(24-13)14(16,17)18/h3-6,8H,7H2,1-2H3

> <InChI Key_QSARr>
IANUJLZYFUDJIH-UHFFFAOYSA-N

> <Salt_Solvent>


> <Salt_Solvent_ID>
0

> <Clint>
1.462397997898956

> <Tr_1_Tst_0>
1

$$$$
Row219
  Mrv171c012261910192D          

 16 17  0  0  0  0            999 V2000
    1.4289   -1.6500    0.0000 C   0  0  0  0  0  0  0  0  0  0  0  0
    1.4289   -2.4750    0.0000 C   0  0  0  0  0  0  0  0  0  0  0  0
    2.1434   -2.8875    0.0000 C   0  0  0  0  0  0  0  0  0  0  0  0
    2.1434   -3.7125    0.0000 N   0  0  0  0  0  0  0  0  0  0  0  0
    2.8579   -4.1250    0.0000 N   0  0  0  0  0  0  0  0  0  0  0  0
    3.5724   -3.7125    0.0000 C   0  0  0  0  0  0  0  0  0  0  0  0
    4.2868   -4.1250    0.0000 C   0  0  0  0  0  0  0  0  0  0  0  0
    5.0013   -3.7125    0.0000 C   0  0  0  0  0  0  0  0  0  0  0  0
    5.7158   -4.1250    0.0000 N   0  0  0  0  0  0  0  0  0  0  0  0
    5.7158   -4.9500    0.0000 C   0  0  0  0  0  0  0  0  0  0  0  0
    5.0013   -5.3625    0.0000 C   0  0  0  0  0  0  0  0  0  0  0  0
    4.2868   -4.9500    0.0000 C   0  0  0  0  0  0  0  0  0  0  0  0
    1.4289   -4.1250    0.0000 C   0  0  0  0  0  0  0  0  0  0  0  0
    1.4289   -4.9500    0.0000 O   0  0  0  0  0  0  0  0  0  0  0  0
    0.7145   -3.7125    0.0000 N   0  0  0  0  0  0  0  0  0  0  0  0
    0.7145   -2.8875    0.0000 N   0  0  0  0  0  0  0  0  0  0  0  0
  1  2  1  0  0  0  0
  2  3  1  0  0  0  0
  3  4  1  0  0  0  0
  5  4  1  4  0  0  0
  5  6  2  0  0  0  0
  6  7  1  0  0  0  0
  7  8  1  0  0  0  0
  8  9  2  0  0  0  0
  9 10  1  0  0  0  0
 10 11  2  0  0  0  0
 11 12  1  0  0  0  0
  7 12  2  0  0  0  0
  4 13  1  0  0  0  0
 13 14  2  0  0  0  0
 13 15  1  0  0  0  0
 15 16  2  0  0  0  0
  2 16  1  0  0  0  0
M  END
> <ChemID>
10137

> <CAS>
123312-89-0

> <Original_SMILES>
CC1CN(/N=C/c2c[n]ccc2)C(=O)NN=1

> <preferred_name>
Pymetrozine

> <dsstox_substance_id>
DTXSID2032637

> <dsstox_compound_id>
DTXCID0012637

> <Canonical_QSARr>
CC1CN(N=CC2C=NC=CC=2)C(=O)N=N1

> <InChI_Code_QSARr>
InChI=1S/C10H11N5O/c1-8-7-15(10(16)14-13-8)12-6-9-3-2-4-11-5-9/h2-6,8H,7H2,1H3

> <InChI Key_QSARr>
XZCIYWQHDFDJIN-UHFFFAOYSA-N

> <Salt_Solvent>


> <Salt_Solvent_ID>
0

> <Clint>
0.9350031514536545

> <Tr_1_Tst_0>
1

$$$$
Row275
  Mrv171c012261910192D          

 14 13  0  0  0  0            999 V2000
    1.2375   -0.7145    0.0000 C   0  0  0  0  0  0  0  0  0  0  0  0
    0.8250    0.0000    0.0000 C   0  0  0  0  0  0  0  0  0  0  0  0
    0.0000    0.0000    0.0000 C   0  0  0  0  0  0  0  0  0  0  0  0
   -0.4125   -0.7145    0.0000 C   0  0  0  0  0  0  0  0  0  0  0  0
    0.0000   -1.4289    0.0000 O   0  0  0  0  0  0  0  0  0  0  0  0
   -1.2375   -0.7145    0.0000 O   0  0  0  0  0  0  0  0  0  0  0  0
   -1.6500   -1.4289    0.0000 C   0  0  0  0  0  0  0  0  0  0  0  0
    1.2375    0.7145    0.0000 O   0  0  0  0  0  0  0  0  0  0  0  0
    2.0625    0.7145    0.0000 P   0  0  0  0  0  0  0  0  0  0  0  0
    2.0625   -0.1105    0.0000 O   0  0  0  0  0  0  0  0  0  0  0  0
    2.8875    0.7145    0.0000 O   0  0  0  0  0  0  0  0  0  0  0  0
    3.3000    1.4289    0.0000 C   0  0  0  0  0  0  0  0  0  0  0  0
    2.0625    1.5395    0.0000 O   0  0  0  0  0  0  0  0  0  0  0  0
    2.7770    1.9520    0.0000 C   0  0  0  0  0  0  0  0  0  0  0  0
  1  2  1  0  0  0  0
  2  3  2  0  0  0  0
  3  4  1  4  0  0  0
  4  5  2  0  0  0  0
  4  6  1  0  0  0  0
  6  7  1  0  0  0  0
  2  8  1  0  0  0  0
  8  9  1  0  0  0  0
  9 10  2  0  0  0  0
  9 11  1  0  0  0  0
 11 12  1  0  0  0  0
  9 13  1  0  0  0  0
 13 14  1  0  0  0  0
M  END
> <ChemID>
10138

> <CAS>
7786-34-7

> <Original_SMILES>
CC(=CC(=O)OC)OP(=O)(OC)OC

> <preferred_name>
Mevinphos

> <dsstox_substance_id>
DTXSID2032683

> <dsstox_compound_id>
DTXCID40809716

> <Canonical_QSARr>
CC(=CC(=O)OC)OP(=O)(OC)OC

> <InChI_Code_QSARr>
InChI=1S/C7H13O6P/c1-6(5-7(8)10-2)13-14(9,11-3)12-4/h5H,1-4H3

> <InChI Key_QSARr>
GEPDYQSQVLXLEU-UHFFFAOYSA-N

> <Salt_Solvent>


> <Salt_Solvent_ID>
0

> <Clint>
1.1936810295412814

> <Tr_1_Tst_0>
1

$$$$
Row235
  Mrv171c012261910192D          

 15 15  0  0  0  0            999 V2000
    1.9557   -2.2692    0.0000 C   0  0  0  0  0  0  0  0  0  0  0  0
    2.2913   -3.0229    0.0000 N   0  0  0  0  0  0  0  0  0  0  0  0
    1.8063   -3.6903    0.0000 C   0  0  0  0  0  0  0  0  0  0  0  0
    2.4406   -1.6018    0.0000 N   0  0  0  0  0  0  0  0  0  0  0  0
    3.2611   -1.6880    0.0000 C   0  0  0  0  0  0  0  0  0  0  0  0
    3.7460   -1.0206    0.0000 C   0  0  0  0  0  0  0  0  0  0  0  0
    4.5710   -1.0206    0.0000 C   0  0  0  0  0  0  0  0  0  0  0  0
    4.8260   -0.2360    0.0000 N   0  0  0  0  0  0  0  0  0  0  0  0
    4.1585    0.2490    0.0000 C   0  0  0  0  0  0  0  0  0  0  0  0
    4.1585    1.0740    0.0000 Cl  0  0  0  0  0  0  0  0  0  0  0  0
    3.4911   -0.2360    0.0000 S   0  0  0  0  0  0  0  0  0  0  0  0
    1.1352   -2.1830    0.0000 N   0  0  0  0  0  0  0  0  0  0  0  0
    0.6503   -2.8504    0.0000 N   0  3  0  0  0  0  0  0  0  0  0  0
    0.9859   -3.6041    0.0000 O   0  0  0  0  0  0  0  0  0  0  0  0
   -0.1702   -2.7642    0.0000 O   0  5  0  0  0  0  0  0  0  0  0  0
  1  2  1  0  0  0  0
  2  3  1  0  0  0  0
  1  4  1  0  0  0  0
  4  5  1  0  0  0  0
  5  6  1  0  0  0  0
  7  6  2  0  0  0  0
  8  7  1  0  0  0  0
  9  8  2  0  0  0  0
  9 10  1  0  0  0  0
 11  9  1  0  0  0  0
  6 11  1  0  0  0  0
  1 12  2  0  0  0  0
 12 13  1  0  0  0  0
 13 14  2  0  0  0  0
 13 15  1  0  0  0  0
M  CHG  2  13   1  15  -1
M  END
> <ChemID>
10139

> <CAS>
210880-92-5

> <Original_SMILES>
CN/C(/NCc1c[n]c(Cl)[s]1)=N\[N+]([O-])=O

> <preferred_name>
Clothianidin

> <dsstox_substance_id>
DTXSID2034465

> <dsstox_compound_id>
DTXCID0014465

> <Canonical_QSARr>
CN/C(/NCC1=CN=C(Cl)S1)=N\[N+]([O-])=O

> <InChI_Code_QSARr>
InChI=1S/C6H8ClN5O2S/c1-8-6(11-12(13)14)10-3-4-2-9-5(7)15-4/h2H,3H2,1H3,(H2,8,10,11)

> <InChI Key_QSARr>
PGOOBECODWQEAB-UHFFFAOYSA-N

> <Salt_Solvent>


> <Salt_Solvent_ID>
0

> <Clint>
1.030599721965951

> <Tr_1_Tst_0>
1

$$$$
Row289
  Mrv171c012261910192D          

 22 24  0  0  0  0            999 V2000
    2.3707   -3.0998    0.0000 N   0  0  0  0  0  0  0  0  0  0  0  0
    2.8556   -3.7673    0.0000 N   0  0  0  0  0  0  0  0  0  0  0  0
    3.6761   -3.6810    0.0000 C   0  0  0  0  0  0  0  0  0  0  0  0
    4.1610   -4.3485    0.0000 C   0  0  0  0  0  0  0  0  0  0  0  0
    4.9815   -4.2622    0.0000 C   0  0  0  0  0  0  0  0  0  0  0  0
    5.3170   -3.5086    0.0000 C   0  0  0  0  0  0  0  0  0  0  0  0
    4.8321   -2.8411    0.0000 C   0  0  0  0  0  0  0  0  0  0  0  0
    4.0116   -2.9274    0.0000 C   0  0  0  0  0  0  0  0  0  0  0  0
    2.6256   -2.3152    0.0000 C   0  0  0  0  0  0  0  0  0  0  0  0
    3.4102   -2.0603    0.0000 O   0  0  0  0  0  0  0  0  0  0  0  0
    1.9582   -1.8303    0.0000 C   0  0  0  0  0  0  0  0  0  0  0  0
    2.5102   -1.2172    0.0000 C   0  0  0  0  0  0  0  0  0  0  0  0
    3.3172   -1.3887    0.0000 C   0  0  0  0  0  0  0  0  0  0  0  0
    3.8692   -0.7756    0.0000 C   0  0  0  0  0  0  0  0  0  0  0  0
    3.6143    0.0090    0.0000 C   0  0  0  0  0  0  0  0  0  0  0  0
    2.8073    0.1805    0.0000 C   0  0  0  0  0  0  0  0  0  0  0  0
    2.2553   -0.4326    0.0000 C   0  0  0  0  0  0  0  0  0  0  0  0
    1.4061   -1.2172    0.0000 C   0  0  0  0  0  0  0  0  0  0  0  0
    1.2907   -2.3152    0.0000 N   0  0  0  0  0  0  0  0  0  0  0  0
    1.5457   -3.0998    0.0000 C   0  0  0  0  0  0  0  0  0  0  0  0
    1.0607   -3.7673    0.0000 S   0  0  0  0  0  0  0  0  0  0  0  0
    1.3963   -4.5210    0.0000 C   0  0  0  0  0  0  0  0  0  0  0  0
  1  2  1  0  0  0  0
  2  3  1  0  0  0  0
  4  3  1  0  0  0  0
  5  4  2  0  0  0  0
  6  5  1  0  0  0  0
  7  6  2  0  0  0  0
  8  7  1  0  0  0  0
  3  8  2  0  0  0  0
  9  1  1  0  0  0  0
  9 10  2  0  0  0  0
 11  9  1  0  0  0  0
 11 12  1  0  0  0  0
 13 12  1  0  0  0  0
 14 13  2  0  0  0  0
 15 14  1  0  0  0  0
 16 15  2  0  0  0  0
 17 16  1  0  0  0  0
 12 17  2  0  0  0  0
 11 18  1  0  0  0  0
 19 11  1  0  0  0  0
 20 19  2  0  0  0  0
  1 20  1  0  0  0  0
 20 21  1  0  0  0  0
 21 22  1  0  0  0  0
M  END
> <ChemID>
10140

> <CAS>
161326-34-7

> <Original_SMILES>
C[C@]1(N=C(SC)N(Nc2ccccc2)C1=O)c1ccccc1

> <preferred_name>
Fenamidone

> <dsstox_substance_id>
DTXSID2034590

> <dsstox_compound_id>
DTXCID0014590

> <Canonical_QSARr>
CSC1=NC(C)(C(=O)N1NC1C=CC=CC=1)C1C=CC=CC=1

> <InChI_Code_QSARr>
InChI=1S/C17H17N3OS/c1-17(13-9-5-3-6-10-13)15(21)20(16(18-17)22-2)19-14-11-7-4-8-12-14/h3-12,19H,1-2H3

> <InChI Key_QSARr>
LMVPQMGRYSRMIW-UHFFFAOYSA-N

> <Salt_Solvent>


> <Salt_Solvent_ID>
0

> <Clint>
1.2489536154957075

> <Tr_1_Tst_0>
1

$$$$
Row281
  Mrv171c012261910192D          

 32 35  0  0  0  0            999 V2000
    2.1434   -1.2375    0.0000 C   0  0  0  0  0  0  0  0  0  0  0  0
    2.8579   -1.6500    0.0000 O   0  0  0  0  0  0  0  0  0  0  0  0
    2.8579   -2.4750    0.0000 N   0  0  0  0  0  0  0  0  0  0  0  0
    3.5724   -2.8875    0.0000 C   0  0  0  0  0  0  0  0  0  0  0  0
    3.5724   -3.7125    0.0000 C   0  0  0  0  0  0  0  0  0  0  0  0
    4.2868   -4.1250    0.0000 N   0  0  0  0  0  0  0  0  0  0  0  0
    4.2868   -4.9500    0.0000 O   0  0  0  0  0  0  0  0  0  0  0  0
    3.5724   -5.3625    0.0000 C   0  0  0  0  0  0  0  0  0  0  0  0
    2.8579   -4.9500    0.0000 C   0  0  0  0  0  0  0  0  0  0  0  0
    2.8579   -4.1250    0.0000 O   0  0  0  0  0  0  0  0  0  0  0  0
    4.2868   -2.4750    0.0000 C   0  0  0  0  0  0  0  0  0  0  0  0
    4.2868   -1.6500    0.0000 C   0  0  0  0  0  0  0  0  0  0  0  0
    5.0013   -1.2375    0.0000 C   0  0  0  0  0  0  0  0  0  0  0  0
    5.7158   -1.6500    0.0000 C   0  0  0  0  0  0  0  0  0  0  0  0
    5.7158   -2.4750    0.0000 C   0  0  0  0  0  0  0  0  0  0  0  0
    5.0013   -2.8875    0.0000 C   0  0  0  0  0  0  0  0  0  0  0  0
    5.0013   -3.7125    0.0000 O   0  0  0  0  0  0  0  0  0  0  0  0
    5.7158   -4.1250    0.0000 C   0  0  0  0  0  0  0  0  0  0  0  0
    5.7158   -4.9500    0.0000 N   0  0  0  0  0  0  0  0  0  0  0  0
    6.4302   -5.3625    0.0000 C   0  0  0  0  0  0  0  0  0  0  0  0
    7.1447   -4.9500    0.0000 N   0  0  0  0  0  0  0  0  0  0  0  0
    7.1447   -4.1250    0.0000 C   0  0  0  0  0  0  0  0  0  0  0  0
    7.8592   -3.7125    0.0000 O   0  0  0  0  0  0  0  0  0  0  0  0
    8.5737   -4.1250    0.0000 C   0  0  0  0  0  0  0  0  0  0  0  0
    9.2881   -3.7125    0.0000 C   0  0  0  0  0  0  0  0  0  0  0  0
   10.0026   -4.1250    0.0000 C   0  0  0  0  0  0  0  0  0  0  0  0
   10.0026   -4.9500    0.0000 C   0  0  0  0  0  0  0  0  0  0  0  0
    9.2881   -5.3625    0.0000 C   0  0  0  0  0  0  0  0  0  0  0  0
    8.5737   -4.9500    0.0000 C   0  0  0  0  0  0  0  0  0  0  0  0
    7.8592   -5.3625    0.0000 Cl  0  0  0  0  0  0  0  0  0  0  0  0
    6.4302   -3.7125    0.0000 C   0  0  0  0  0  0  0  0  0  0  0  0
    6.4302   -2.8875    0.0000 F   0  0  0  0  0  0  0  0  0  0  0  0
  1  2  1  0  0  0  0
  3  2  1  4  0  0  0
  3  4  2  0  0  0  0
  4  5  1  0  0  0  0
  5  6  2  0  0  0  0
  6  7  1  0  0  0  0
  7  8  1  0  0  0  0
  8  9  1  0  0  0  0
  9 10  1  0  0  0  0
  5 10  1  0  0  0  0
  4 11  1  0  0  0  0
 11 12  1  0  0  0  0
 12 13  2  0  0  0  0
 13 14  1  0  0  0  0
 14 15  2  0  0  0  0
 15 16  1  0  0  0  0
 11 16  2  0  0  0  0
 16 17  1  0  0  0  0
 17 18  1  0  0  0  0
 18 19  2  0  0  0  0
 19 20  1  0  0  0  0
 20 21  2  0  0  0  0
 21 22  1  0  0  0  0
 22 23  1  0  0  0  0
 23 24  1  0  0  0  0
 24 25  2  0  0  0  0
 25 26  1  0  0  0  0
 26 27  2  0  0  0  0
 27 28  1  0  0  0  0
 28 29  2  0  0  0  0
 24 29  1  0  0  0  0
 29 30  1  0  0  0  0
 22 31  2  0  0  0  0
 18 31  1  0  0  0  0
 31 32  1  0  0  0  0
M  END
> <ChemID>
10141

> <CAS>
361377-29-9

> <Original_SMILES>
CO/N=C(/C1=NOCCO1)\c1ccccc1Oc1[n]c[n]c(Oc2ccccc2Cl)c1F

> <preferred_name>
Fluoxastrobin

> <dsstox_substance_id>
DTXSID2034625

> <dsstox_compound_id>
DTXCID0014625

> <Canonical_QSARr>
CON=C(C1=NOCCO1)C1C=CC=CC=1OC1=NC=NC(OC2=CC=CC=C2Cl)=C1F

> <InChI_Code_QSARr>
InChI=1S/C21H16ClFN4O5/c1-28-26-18(21-27-30-11-10-29-21)13-6-2-4-8-15(13)31-19-17(23)20(25-12-24-19)32-16-9-5-3-7-14(16)22/h2-9,12H,10-11H2,1H3

> <InChI Key_QSARr>
UFEODZBUAFNAEU-UHFFFAOYSA-N

> <Salt_Solvent>


> <Salt_Solvent_ID>
0

> <Clint>
1.213517756996305

> <Tr_1_Tst_0>
1

$$$$
Row115
  Mrv171c012261910192D          

 15 15  0  0  0  0            999 V2000
    2.1480   -1.2196    0.0000 N   0  0  0  0  0  0  0  0  0  0  0  0
    1.4335   -0.8071    0.0000 C   0  0  0  0  0  0  0  0  0  0  0  0
    1.4335    0.0179    0.0000 F   0  0  0  0  0  0  0  0  0  0  0  0
    0.7190   -1.2196    0.0000 C   0  0  0  0  0  0  0  0  0  0  0  0
    0.0046   -0.8071    0.0000 Cl  0  0  0  0  0  0  0  0  0  0  0  0
    0.7190   -2.0446    0.0000 C   0  0  0  0  0  0  0  0  0  0  0  0
    0.0046   -2.4571    0.0000 N   0  0  0  0  0  0  0  0  0  0  0  0
    1.4335   -2.4571    0.0000 C   0  0  0  0  0  0  0  0  0  0  0  0
    1.4335   -3.2821    0.0000 Cl  0  0  0  0  0  0  0  0  0  0  0  0
    2.1480   -2.0446    0.0000 C   0  0  0  0  0  0  0  0  0  0  0  0
    2.8625   -2.4571    0.0000 O   0  0  0  0  0  0  0  0  0  0  0  0
    3.5769   -2.0446    0.0000 C   0  0  0  0  0  0  0  0  0  0  0  0
    4.2914   -2.4571    0.0000 C   0  0  0  0  0  0  0  0  0  0  0  0
    5.0059   -2.0446    0.0000 O   0  0  0  0  0  0  0  0  0  0  0  0
    4.2914   -3.2821    0.0000 O   0  0  0  0  0  0  0  0  0  0  0  0
  2  1  2  0  0  0  0
  2  3  1  0  0  0  0
  4  2  1  0  0  0  0
  4  5  1  0  0  0  0
  6  4  2  0  0  0  0
  6  7  1  0  0  0  0
  8  6  1  0  0  0  0
  8  9  1  0  0  0  0
 10  8  2  0  0  0  0
  1 10  1  0  0  0  0
 10 11  1  0  0  0  0
 11 12  1  0  0  0  0
 12 13  1  0  0  0  0
 13 14  1  0  0  0  0
 13 15  2  0  0  0  0
M  END
> <ChemID>
10142

> <CAS>
69377-81-7

> <Original_SMILES>
Nc1c(Cl)c(F)[n]c(OCC(O)=O)c1Cl

> <preferred_name>
Fluroxypyr

> <dsstox_substance_id>
DTXSID2034627

> <dsstox_compound_id>
DTXCID0014627

> <Canonical_QSARr>
NC1C(Cl)=C(N=C(F)C=1Cl)OCC(O)=O

> <InChI_Code_QSARr>
InChI=1S/C7H5Cl2FN2O3/c8-3-5(11)4(9)7(12-6(3)10)15-1-2(13)14/h1H2,(H2,11,12)(H,13,14)

> <InChI Key_QSARr>
MEFQWPUMEMWTJP-UHFFFAOYSA-N

> <Salt_Solvent>


> <Salt_Solvent_ID>
0

> <Clint>
0.25285303097989315

> <Tr_1_Tst_0>
1

$$$$
Row185
  Mrv171c012261910192D          

 27 28  0  0  0  0            999 V2000
    1.4289    0.8250    0.0000 N   0  0  0  0  0  0  0  0  0  0  0  0
    0.7145    0.4125    0.0000 S   0  0  0  0  0  0  0  0  0  0  0  0
    1.1270   -0.3020    0.0000 O   0  0  0  0  0  0  0  0  0  0  0  0
    0.3020    1.1270    0.0000 O   0  0  0  0  0  0  0  0  0  0  0  0
    0.0000    0.0000    0.0000 C   0  0  0  0  0  0  0  0  0  0  0  0
   -0.7145    0.4125    0.0000 C   0  0  0  0  0  0  0  0  0  0  0  0
   -0.7145    1.2375    0.0000 C   0  0  0  0  0  0  0  0  0  0  0  0
    0.0000    1.6500    0.0000 O   0  0  0  0  0  0  0  0  0  0  0  0
   -1.4289    1.6500    0.0000 O   0  0  0  0  0  0  0  0  0  0  0  0
   -1.4289    2.4750    0.0000 C   0  0  0  0  0  0  0  0  0  0  0  0
   -1.4289    0.0000    0.0000 C   0  0  0  0  0  0  0  0  0  0  0  0
   -1.4289   -0.8250    0.0000 C   0  0  0  0  0  0  0  0  0  0  0  0
   -0.7145   -1.2375    0.0000 C   0  0  0  0  0  0  0  0  0  0  0  0
   -0.7145   -2.0625    0.0000 I   0  0  0  0  0  0  0  0  0  0  0  0
    0.0000   -0.8250    0.0000 C   0  0  0  0  0  0  0  0  0  0  0  0
    2.1434    0.4125    0.0000 C   0  0  0  0  0  0  0  0  0  0  0  0
    2.1434   -0.4125    0.0000 O   0  0  0  0  0  0  0  0  0  0  0  0
    2.8579    0.8250    0.0000 N   0  0  0  0  0  0  0  0  0  0  0  0
    3.5724    0.4125    0.0000 C   0  0  0  0  0  0  0  0  0  0  0  0
    3.5724   -0.4125    0.0000 N   0  0  0  0  0  0  0  0  0  0  0  0
    4.2868   -0.8250    0.0000 C   0  0  0  0  0  0  0  0  0  0  0  0
    4.2868   -1.6500    0.0000 C   0  0  0  0  0  0  0  0  0  0  0  0
    5.0013   -0.4125    0.0000 N   0  0  0  0  0  0  0  0  0  0  0  0
    5.0013    0.4125    0.0000 C   0  0  0  0  0  0  0  0  0  0  0  0
    5.7158    0.8250    0.0000 O   0  0  0  0  0  0  0  0  0  0  0  0
    6.4302    0.4125    0.0000 C   0  0  0  0  0  0  0  0  0  0  0  0
    4.2868    0.8250    0.0000 N   0  0  0  0  0  0  0  0  0  0  0  0
  1  2  1  0  0  0  0
  2  3  2  0  0  0  0
  2  4  2  0  0  0  0
  2  5  1  0  0  0  0
  6  5  1  0  0  0  0
  6  7  1  0  0  0  0
  7  8  2  0  0  0  0
  7  9  1  0  0  0  0
  9 10  1  0  0  0  0
 11  6  2  0  0  0  0
 12 11  1  0  0  0  0
 13 12  2  0  0  0  0
 13 14  1  0  0  0  0
 15 13  1  0  0  0  0
  5 15  2  0  0  0  0
  1 16  1  0  0  0  0
 16 17  2  0  0  0  0
 16 18  1  0  0  0  0
 18 19  1  0  0  0  0
 20 19  1  0  0  0  0
 21 20  2  0  0  0  0
 21 22  1  0  0  0  0
 23 21  1  0  0  0  0
 24 23  2  0  0  0  0
 24 25  1  0  0  0  0
 25 26  1  0  0  0  0
 27 24  1  0  0  0  0
 19 27  2  0  0  0  0
M  END
> <ChemID>
10143

> <CAS>
144550-36-7

> <Original_SMILES>
[Na+].Cc1[n]c(NC(=O)[N-]S(=O)(=O)c2cc(I)ccc2C(=O)OC)[n]c([n]1)OC

> <preferred_name>
Iodosulfuron-methyl-sodium

> <dsstox_substance_id>
DTXSID2034673

> <dsstox_compound_id>
DTXCID0014673

> <Canonical_QSARr>
CC1N=C(N=C(NC(=O)NS(=O)(=O)C2=CC(I)=CC=C2C(=O)OC)N=1)OC

> <InChI_Code_QSARr>
InChI=1S/C14H14IN5O6S/c1-7-16-12(19-14(17-7)26-3)18-13(22)20-27(23,24)10-6-8(15)4-5-9(10)11(21)25-2/h4-6H,1-3H3,(H2,16,17,18,19,20,22)

> <InChI Key_QSARr>
VWGAYSCWLXQJBQ-UHFFFAOYSA-N

> <Salt_Solvent>
[Na+]

> <Salt_Solvent_ID>
110

> <Clint>
0.7551122663950711

> <Tr_1_Tst_0>
1

$$$$
Row18
  Mrv171c012261910192D          

 20 22  0  0  0  0            999 V2000
    2.8633   -2.0670    0.0000 C   0  0  0  0  0  0  0  0  0  0  0  0
    2.1488   -1.6545    0.0000 C   0  0  0  0  0  0  0  0  0  0  0  0
    2.1488   -0.8295    0.0000 C   0  0  0  0  0  0  0  0  0  0  0  0
    2.8633   -0.4170    0.0000 N   0  0  0  0  0  0  0  0  0  0  0  0
    3.5778   -0.8295    0.0000 C   0  0  0  0  0  0  0  0  0  0  0  0
    4.2922   -0.4170    0.0000 C   0  0  0  0  0  0  0  0  0  0  0  0
    5.0067   -0.8295    0.0000 C   0  0  0  0  0  0  0  0  0  0  0  0
    5.7212   -0.4170    0.0000 Cl  0  0  0  0  0  0  0  0  0  0  0  0
    5.0067   -1.6545    0.0000 C   0  0  0  0  0  0  0  0  0  0  0  0
    4.2922   -2.0670    0.0000 C   0  0  0  0  0  0  0  0  0  0  0  0
    4.2922   -2.8920    0.0000 Cl  0  0  0  0  0  0  0  0  0  0  0  0
    3.5778   -1.6545    0.0000 C   0  0  0  0  0  0  0  0  0  0  0  0
    2.8633   -2.8920    0.0000 O   0  0  0  0  0  0  0  0  0  0  0  0
    2.1488   -3.3045    0.0000 C   0  0  0  0  0  0  0  0  0  0  0  0
    1.4343   -2.8920    0.0000 C   0  0  0  0  0  0  0  0  0  0  0  0
    0.7199   -3.3045    0.0000 C   0  0  0  0  0  0  0  0  0  0  0  0
    0.7199   -4.1295    0.0000 C   0  0  0  0  0  0  0  0  0  0  0  0
    0.0054   -4.5420    0.0000 F   0  0  0  0  0  0  0  0  0  0  0  0
    1.4343   -4.5420    0.0000 C   0  0  0  0  0  0  0  0  0  0  0  0
    2.1488   -4.1295    0.0000 C   0  0  0  0  0  0  0  0  0  0  0  0
  2  1  2  0  0  0  0
  3  2  1  0  0  0  0
  4  3  2  0  0  0  0
  5  4  1  0  0  0  0
  5  6  2  0  0  0  0
  6  7  1  0  0  0  0
  7  8  1  0  0  0  0
  7  9  2  0  0  0  0
  9 10  1  0  0  0  0
 10 11  1  0  0  0  0
 10 12  2  0  0  0  0
  1 12  1  0  0  0  0
 12  5  1  0  0  0  0
  1 13  1  0  0  0  0
 13 14  1  0  0  0  0
 15 14  1  0  0  0  0
 16 15  2  0  0  0  0
 17 16  1  0  0  0  0
 17 18  1  0  0  0  0
 19 17  2  0  0  0  0
 20 19  1  0  0  0  0
 14 20  2  0  0  0  0
M  END
> <ChemID>
10144

> <CAS>
124495-18-7

> <Original_SMILES>
Fc1ccc(cc1)Oc1cc[n]c2cc(Cl)cc(Cl)c21

> <preferred_name>
Quinoxyfen

> <dsstox_substance_id>
DTXSID2034881

> <dsstox_compound_id>
DTXCID0014881

> <Canonical_QSARr>
FC1C=CC(=CC=1)OC1=CC=NC2=CC(Cl)=CC(Cl)=C12

> <InChI_Code_QSARr>
InChI=1S/C15H8Cl2FNO/c16-9-7-12(17)15-13(8-9)19-6-5-14(15)20-11-3-1-10(18)2-4-11/h1-8H

> <InChI Key_QSARr>
WRPIRSINYZBGPK-UHFFFAOYSA-N

> <Salt_Solvent>


> <Salt_Solvent_ID>
0

> <Clint>
-7.0

> <Tr_1_Tst_0>
1

$$$$
Row81
  Mrv171c012261910192D          

 18 19  0  0  0  0            999 V2000
    3.5724    6.7661    0.0000 C   0  0  0  0  0  0  0  0  0  0  0  0
    3.5724    5.9411    0.0000 N   0  0  0  0  0  0  0  0  0  0  0  0
    4.2868    5.5286    0.0000 C   0  0  0  0  0  0  0  0  0  0  0  0
    4.2868    4.7036    0.0000 O   0  0  0  0  0  0  0  0  0  0  0  0
    3.5724    4.2911    0.0000 C   0  0  0  0  0  0  0  0  0  0  0  0
    2.8579    4.7036    0.0000 N   0  0  0  0  0  0  0  0  0  0  0  0
    2.1434    4.2911    0.0000 C   0  0  0  0  0  0  0  0  0  0  0  0
    2.1434    3.4661    0.0000 C   0  0  0  0  0  0  0  0  0  0  0  0
    2.8109    2.9812    0.0000 C   0  0  0  0  0  0  0  0  0  0  0  0
    2.5559    2.1965    0.0000 N   0  0  0  0  0  0  0  0  0  0  0  0
    1.7309    2.1965    0.0000 C   0  0  0  0  0  0  0  0  0  0  0  0
    1.2460    1.5291    0.0000 Cl  0  0  0  0  0  0  0  0  0  0  0  0
    1.4760    2.9812    0.0000 S   0  0  0  0  0  0  0  0  0  0  0  0
    2.8579    5.5286    0.0000 C   0  0  0  0  0  0  0  0  0  0  0  0
    2.1434    5.9411    0.0000 N   0  0  0  0  0  0  0  0  0  0  0  0
    1.4289    5.5286    0.0000 N   0  3  0  0  0  0  0  0  0  0  0  0
    1.4289    4.7036    0.0000 O   0  5  0  0  0  0  0  0  0  0  0  0
    0.7145    5.9411    0.0000 O   0  0  0  0  0  0  0  0  0  0  0  0
  1  2  1  0  0  0  0
  2  3  1  0  0  0  0
  3  4  1  0  0  0  0
  4  5  1  0  0  0  0
  5  6  1  0  0  0  0
  6  7  1  0  0  0  0
  7  8  1  0  0  0  0
  8  9  2  0  0  0  0
  9 10  1  0  0  0  0
 10 11  2  0  0  0  0
 11 12  1  0  0  0  0
 11 13  1  0  0  0  0
  8 13  1  0  0  0  0
  6 14  1  0  0  0  0
  2 14  1  0  0  0  0
 14 15  2  0  0  0  0
 15 16  1  4  0  0  0
 16 17  1  0  0  0  0
 16 18  2  0  0  0  0
M  CHG  2  16   1  17  -1
M  END
> <ChemID>
10145

> <CAS>
153719-23-4

> <Original_SMILES>
CN1COCN(Cc2c[n]c(Cl)[s]2)C1=N[N+]([O-])=O

> <preferred_name>
Thiamethoxam

> <dsstox_substance_id>
DTXSID2034962

> <dsstox_compound_id>
DTXCID0014962

> <Canonical_QSARr>
CN1COCN(CC2=CN=C(Cl)S2)C1=N[N+]([O-])=O

> <InChI_Code_QSARr>
InChI=1S/C8H10ClN5O3S/c1-12-4-17-5-13(8(12)11-14(15)16)3-6-2-10-7(9)18-6/h2H,3-5H2,1H3

> <InChI Key_QSARr>
NWWZPOKUUAIXIW-UHFFFAOYSA-N

> <Salt_Solvent>


> <Salt_Solvent_ID>
0

> <Clint>
-0.21467016498923294

> <Tr_1_Tst_0>
1

$$$$
Row531
  Mrv171c012261910192D          

 11 10  0  0  0  0            999 V2000
    1.4437   -1.2430    0.0000 C   0  0  0  0  0  0  0  0  0  0  0  0
    0.7292   -0.8305    0.0000 N   0  0  0  0  0  0  0  0  0  0  0  0
    0.0147   -1.2430    0.0000 C   0  0  0  0  0  0  0  0  0  0  0  0
    0.7292   -0.0055    0.0000 C   0  0  0  0  0  0  0  0  0  0  0  0
    2.1581   -0.8305    0.0000 C   0  0  0  0  0  0  0  0  0  0  0  0
    2.8726   -1.2430    0.0000 C   0  0  0  0  0  0  0  0  0  0  0  0
    3.5871   -0.8305    0.0000 C   0  0  0  0  0  0  0  0  0  0  0  0
    4.3015   -1.2430    0.0000 C   0  0  0  0  0  0  0  0  0  0  0  0
    5.0160   -0.8305    0.0000 C   0  0  0  0  0  0  0  0  0  0  0  0
    5.7305   -1.2430    0.0000 C   0  0  0  0  0  0  0  0  0  0  0  0
    6.4450   -0.8305    0.0000 C   0  0  0  0  0  0  0  0  0  0  0  0
  1  2  1  0  0  0  0
  2  3  1  0  0  0  0
  2  4  1  0  0  0  0
  1  5  1  0  0  0  0
  5  6  1  0  0  0  0
  6  7  1  0  0  0  0
  7  8  1  0  0  0  0
  8  9  1  0  0  0  0
  9 10  1  0  0  0  0
 10 11  1  0  0  0  0
M  END
> <ChemID>
10146

> <CAS>
7378-99-6

> <Original_SMILES>
CCCCCCCCN(C)C

> <preferred_name>
N,N-Dimethyloctylamine

> <dsstox_substance_id>
DTXSID2036299

> <dsstox_compound_id>
DTXCID0016299

> <Canonical_QSARr>
CCCCCCCCN(C)C

> <InChI_Code_QSARr>
InChI=1S/C10H23N/c1-4-5-6-7-8-9-10-11(2)3/h4-10H2,1-3H3

> <InChI Key_QSARr>
UQKAOOAFEFCDGT-UHFFFAOYSA-N

> <Salt_Solvent>


> <Salt_Solvent_ID>
0

> <Clint>
1.545801757159276

> <Tr_1_Tst_0>
0

$$$$
Row20
  Mrv171c012261910192D          

 22 23  0  0  0  0            999 V2000
    5.9434   -0.1723    0.0000 C   0  0  0  0  0  0  0  0  0  0  0  0
    5.3114    0.3580    0.0000 C   0  0  0  0  0  0  0  0  0  0  0  0
    6.5754    0.3580    0.0000 C   0  0  0  0  0  0  0  0  0  0  0  0
    5.5309   -0.8868    0.0000 C   0  0  0  0  0  0  0  0  0  0  0  0
    4.8164   -1.2993    0.0000 C   0  0  0  0  0  0  0  0  0  0  0  0
    4.8164   -2.1243    0.0000 O   0  0  0  0  0  0  0  0  0  0  0  0
    4.1019   -0.8868    0.0000 O   0  0  0  0  0  0  0  0  0  0  0  0
    3.3875   -1.2993    0.0000 C   0  0  0  0  0  0  0  0  0  0  0  0
    2.6338   -0.9637    0.0000 C   0  0  0  0  0  0  0  0  0  0  0  0
    2.0818   -1.5768    0.0000 C   0  0  0  0  0  0  0  0  0  0  0  0
    1.2613   -1.4906    0.0000 O   0  0  0  0  0  0  0  0  0  0  0  0
    2.4943   -2.2913    0.0000 C   0  0  0  0  0  0  0  0  0  0  0  0
    2.1587   -3.0450    0.0000 C   0  0  0  0  0  0  0  0  0  0  0  0
    1.3382   -3.1312    0.0000 C   0  0  0  0  0  0  0  0  0  0  0  0
    1.0027   -3.8849    0.0000 C   0  0  0  0  0  0  0  0  0  0  0  0
    3.3012   -2.1198    0.0000 C   0  0  0  0  0  0  0  0  0  0  0  0
    3.9143   -2.6718    0.0000 C   0  0  0  0  0  0  0  0  0  0  0  0
    6.3559   -0.8868    0.0000 C   0  0  0  0  0  0  0  0  0  0  0  0
    7.0704   -1.2993    0.0000 C   0  0  0  0  0  0  0  0  0  0  0  0
    7.7848   -0.8868    0.0000 C   0  0  0  0  0  0  0  0  0  0  0  0
    7.7848   -0.0618    0.0000 C   0  0  0  0  0  0  0  0  0  0  0  0
    8.4993   -1.2993    0.0000 C   0  0  0  0  0  0  0  0  0  0  0  0
  1  2  1  0  0  0  0
  1  3  1  0  0  0  0
  4  1  1  0  0  0  0
  4  5  1  0  0  0  0
  5  6  2  0  0  0  0
  5  7  1  0  0  0  0
  7  8  1  0  0  0  0
  9  8  1  0  0  0  0
 10  9  1  0  0  0  0
 10 11  2  0  0  0  0
 12 10  1  0  0  0  0
 12 13  1  0  0  0  0
 13 14  1  0  0  0  0
 14 15  2  0  0  0  0
 16 12  2  0  0  0  0
  8 16  1  0  0  0  0
 16 17  1  0  0  0  0
 18  4  1  0  0  0  0
  1 18  1  0  0  0  0
 18 19  1  0  0  0  0
 19 20  2  0  0  0  0
 20 21  1  0  0  0  0
 20 22  1  0  0  0  0
M  END
> <ChemID>
10147

> <CAS>
28434-00-6|584-79-2

> <Original_SMILES>
CC(C)=C[C@@H]1[C@@H](C(=O)O[C@H]2CC(=O)C(CC=C)=C2C)C1(C)C

> <preferred_name>
S-Bioallethrin|Allethrin

> <dsstox_substance_id>
DTXSID2039336|DTXSID8035180

> <dsstox_compound_id>
DTXCID0019336|DTXCID6015180

> <Canonical_QSARr>
CC(C)=CC1C(C(=O)OC2CC(=O)C(CC=C)=C2C)C1(C)C

> <InChI_Code_QSARr>
InChI=1S/C19H26O3/c1-7-8-13-12(4)16(10-15(13)20)22-18(21)17-14(9-11(2)3)19(17,5)6/h7,9,14,16-17H,1,8,10H2,2-6H3

> <InChI Key_QSARr>
ZCVAOQKBXKSDMS-UHFFFAOYSA-N

> <Salt_Solvent>


> <Salt_Solvent_ID>
0

> <Clint>
0.41329976408125174

> <Tr_1_Tst_0>
1

$$$$
Row138
  Mrv171c012261910192D          

 21 22  0  0  0  0            999 V2000
   -0.6078    2.7027    0.0000 C   0  0  0  0  0  0  0  0  0  0  0  0
   -0.6078    1.8777    0.0000 C   0  0  0  0  0  0  0  0  0  0  0  0
   -1.4328    1.8777    0.0000 C   0  0  0  0  0  0  0  0  0  0  0  0
    0.2172    1.8777    0.0000 C   0  0  0  0  0  0  0  0  0  0  0  0
   -0.6078    1.0527    0.0000 C   0  0  0  0  0  0  0  0  0  0  0  0
    0.1067    0.6402    0.0000 O   0  0  0  0  0  0  0  0  0  0  0  0
   -1.3222    0.6402    0.0000 C   0  0  0  0  0  0  0  0  0  0  0  0
   -2.0367    1.0527    0.0000 C   0  0  0  0  0  0  0  0  0  0  0  0
   -2.7512    0.6402    0.0000 C   0  0  0  0  0  0  0  0  0  0  0  0
   -2.7512   -0.1848    0.0000 C   0  0  0  0  0  0  0  0  0  0  0  0
   -3.4656   -0.5973    0.0000 C   0  0  0  0  0  0  0  0  0  0  0  0
   -4.1801   -0.1848    0.0000 C   0  0  0  0  0  0  0  0  0  0  0  0
   -4.8946   -0.5973    0.0000 Cl  0  0  0  0  0  0  0  0  0  0  0  0
   -4.1801    0.6402    0.0000 C   0  0  0  0  0  0  0  0  0  0  0  0
   -3.4656    1.0527    0.0000 C   0  0  0  0  0  0  0  0  0  0  0  0
   -3.4656    1.8777    0.0000 Cl  0  0  0  0  0  0  0  0  0  0  0  0
   -1.3222   -0.1848    0.0000 N   0  0  0  0  0  0  0  0  0  0  0  0
   -0.6548   -0.6697    0.0000 C   0  0  0  0  0  0  0  0  0  0  0  0
   -0.9097   -1.4544    0.0000 N   0  0  0  0  0  0  0  0  0  0  0  0
   -1.7347   -1.4544    0.0000 C   0  0  0  0  0  0  0  0  0  0  0  0
   -1.9897   -0.6697    0.0000 N   0  0  0  0  0  0  0  0  0  0  0  0
  1  2  1  0  0  0  0
  2  3  1  0  0  0  0
  2  4  1  0  0  0  0
  2  5  1  0  0  0  0
  5  6  1  0  0  0  0
  5  7  1  0  0  0  0
  7  8  2  0  0  0  0
  8  9  1  4  0  0  0
  9 10  1  0  0  0  0
 10 11  2  0  0  0  0
 11 12  1  0  0  0  0
 12 13  1  0  0  0  0
 12 14  2  0  0  0  0
 14 15  1  0  0  0  0
  9 15  2  0  0  0  0
 15 16  1  0  0  0  0
  7 17  1  0  0  0  0
 17 18  1  0  0  0  0
 18 19  2  0  0  0  0
 19 20  1  0  0  0  0
 20 21  2  0  0  0  0
 17 21  1  0  0  0  0
M  END
> <ChemID>
10148

> <CAS>
83657-24-3

> <Original_SMILES>
CC(C)(C)C(O)/C(=C\c1ccc(Cl)cc1Cl)/[n]1c[n]c[n]1

> <preferred_name>
Diniconazole

> <dsstox_substance_id>
DTXSID2040363

> <dsstox_compound_id>
DTXCID0020363

> <Canonical_QSARr>
CC(C)(C)C(O)C(=CC1C=CC(Cl)=CC=1Cl)N1C=NC=N1

> <InChI_Code_QSARr>
InChI=1S/C15H17Cl2N3O/c1-15(2,3)14(21)13(20-9-18-8-19-20)6-10-4-5-11(16)7-12(10)17/h4-9,14,21H,1-3H3

> <InChI Key_QSARr>
FBOUIAKEJMZPQG-UHFFFAOYSA-N

> <Salt_Solvent>


> <Salt_Solvent_ID>
0

> <Clint>
0.41329976408125174

> <Tr_1_Tst_0>
1

$$$$
Row412
  Mrv171c012261910192D          

 28 29  0  0  0  0            999 V2000
    1.8609    0.7466    0.0000 N   0  0  0  0  0  0  0  0  0  0  0  0
    1.1464    1.1591    0.0000 C   0  0  0  0  0  0  0  0  0  0  0  0
    1.1464    1.9841    0.0000 C   0  0  0  0  0  0  0  0  0  0  0  0
    0.4320    0.7466    0.0000 C   0  0  0  0  0  0  0  0  0  0  0  0
   -0.2825    1.1591    0.0000 C   0  0  0  0  0  0  0  0  0  0  0  0
   -0.9970    0.7466    0.0000 O   0  0  0  0  0  0  0  0  0  0  0  0
   -0.2825    1.9841    0.0000 O   0  0  0  0  0  0  0  0  0  0  0  0
   -0.9970    2.3966    0.0000 C   0  0  0  0  0  0  0  0  0  0  0  0
   -0.9970    3.2216    0.0000 C   0  0  0  0  0  0  0  0  0  0  0  0
   -1.7115    1.9841    0.0000 C   0  0  0  0  0  0  0  0  0  0  0  0
    0.4320   -0.0784    0.0000 C   0  0  0  0  0  0  0  0  0  0  0  0
   -0.2825   -0.4909    0.0000 C   0  0  0  0  0  0  0  0  0  0  0  0
   -0.9970   -0.0784    0.0000 C   0  0  0  0  0  0  0  0  0  0  0  0
   -1.7115   -0.4909    0.0000 C   0  0  0  0  0  0  0  0  0  0  0  0
   -1.7115   -1.3159    0.0000 C   0  0  0  0  0  0  0  0  0  0  0  0
   -0.9970   -1.7284    0.0000 C   0  0  0  0  0  0  0  0  0  0  0  0
   -0.9970   -2.5534    0.0000 N   0  3  0  0  0  0  0  0  0  0  0  0
   -0.2825   -2.9659    0.0000 O   0  0  0  0  0  0  0  0  0  0  0  0
   -1.7115   -2.9659    0.0000 O   0  5  0  0  0  0  0  0  0  0  0  0
   -0.2825   -1.3159    0.0000 C   0  0  0  0  0  0  0  0  0  0  0  0
    1.1464   -0.4909    0.0000 C   0  0  0  0  0  0  0  0  0  0  0  0
    1.1464   -1.3159    0.0000 C   0  0  0  0  0  0  0  0  0  0  0  0
    1.8609   -1.7284    0.0000 O   0  0  0  0  0  0  0  0  0  0  0  0
    1.8609   -2.5534    0.0000 C   0  0  0  0  0  0  0  0  0  0  0  0
    0.4320   -1.7284    0.0000 O   0  0  0  0  0  0  0  0  0  0  0  0
    1.8609   -0.0784    0.0000 C   0  0  0  0  0  0  0  0  0  0  0  0
    2.5754   -0.4909    0.0000 C   0  0  0  0  0  0  0  0  0  0  0  0
    3.2898   -0.9034    0.0000 N   0  0  0  0  0  0  0  0  0  0  0  0
  2  1  1  0  0  0  0
  2  3  1  0  0  0  0
  4  2  2  0  0  0  0
  4  5  1  0  0  0  0
  5  6  2  0  0  0  0
  5  7  1  0  0  0  0
  7  8  1  0  0  0  0
  8  9  1  0  0  0  0
  8 10  1  0  0  0  0
 11  4  1  0  0  0  0
 11 12  1  0  0  0  0
 13 12  1  0  0  0  0
 14 13  2  0  0  0  0
 15 14  1  0  0  0  0
 16 15  2  0  0  0  0
 16 17  1  0  0  0  0
 17 18  2  0  0  0  0
 17 19  1  0  0  0  0
 20 16  1  0  0  0  0
 12 20  2  0  0  0  0
 21 11  1  0  0  0  0
 21 22  1  0  0  0  0
 22 23  1  0  0  0  0
 23 24  1  0  0  0  0
 22 25  2  0  0  0  0
 26 21  1  0  0  0  0
  1 26  2  0  0  0  0
 26 27  1  0  0  0  0
 27 28  3  0  0  0  0
M  CHG  2  17   1  19  -1
M  END
> <ChemID>
10149

> <CAS>
75530-68-6

> <Original_SMILES>
CC1NC(C#N)=C(C(C=1C(=O)OC(C)C)c1cc(ccc1)[N+]([O-])=O)C(=O)OC

> <preferred_name>
Nilvadipine

> <dsstox_substance_id>
DTXSID2046624

> <dsstox_compound_id>
DTXCID0026624

> <Canonical_QSARr>
CC1N=C(C#N)C(C(C=1C(=O)OC(C)C)C1=CC(=CC=C1)[N+]([O-])=O)C(=O)OC

> <InChI_Code_QSARr>
InChI=1S/C19H19N3O6/c1-10(2)28-19(24)15-11(3)21-14(9-20)17(18(23)27-4)16(15)12-6-5-7-13(8-12)22(25)26/h5-8,10,16-17H,1-4H3

> <InChI Key_QSARr>
HCGLEQDNFKVSSE-UHFFFAOYSA-N

> <Salt_Solvent>


> <Salt_Solvent_ID>
0

> <Clint>
3.3344537511509302

> <Tr_1_Tst_0>
1

$$$$
Row339
  Mrv171c012261910192D          

 21 23  0  0  0  0            999 V2000
    1.8869   -0.2531    0.0000 C   0  0  0  0  0  0  0  0  0  0  0  0
    2.0705   -1.0574    0.0000 N   0  0  0  0  0  0  0  0  0  0  0  0
    1.4254   -1.5718    0.0000 C   0  0  0  0  0  0  0  0  0  0  0  0
    0.7110   -1.1593    0.0000 C   0  0  0  0  0  0  0  0  0  0  0  0
   -0.0035   -1.5718    0.0000 C   0  0  0  0  0  0  0  0  0  0  0  0
   -0.0035   -2.3968    0.0000 C   0  0  0  0  0  0  0  0  0  0  0  0
   -0.7180   -2.8093    0.0000 Cl  0  0  0  0  0  0  0  0  0  0  0  0
    0.7110   -2.8093    0.0000 C   0  0  0  0  0  0  0  0  0  0  0  0
    1.4254   -2.3968    0.0000 C   0  0  0  0  0  0  0  0  0  0  0  0
    2.0705   -2.9112    0.0000 N   0  0  0  0  0  0  0  0  0  0  0  0
    1.8869   -3.7155    0.0000 C   0  0  0  0  0  0  0  0  0  0  0  0
    1.0985   -3.9587    0.0000 C   0  0  0  0  0  0  0  0  0  0  0  0
    0.9149   -4.7630    0.0000 C   0  0  0  0  0  0  0  0  0  0  0  0
    1.5197   -5.3241    0.0000 C   0  0  0  0  0  0  0  0  0  0  0  0
    2.3081   -5.0809    0.0000 C   0  0  0  0  0  0  0  0  0  0  0  0
    2.4916   -4.2766    0.0000 C   0  0  0  0  0  0  0  0  0  0  0  0
    2.8748   -2.7276    0.0000 C   0  0  0  0  0  0  0  0  0  0  0  0
    3.3891   -3.3726    0.0000 O   0  0  0  0  0  0  0  0  0  0  0  0
    3.2327   -1.9843    0.0000 C   0  0  0  0  0  0  0  0  0  0  0  0
    2.8748   -1.2410    0.0000 C   0  0  0  0  0  0  0  0  0  0  0  0
    3.3891   -0.5960    0.0000 O   0  0  0  0  0  0  0  0  0  0  0  0
  1  2  1  0  0  0  0
  3  2  1  0  0  0  0
  3  4  2  0  0  0  0
  4  5  1  0  0  0  0
  5  6  2  0  0  0  0
  6  7  1  0  0  0  0
  6  8  1  0  0  0  0
  8  9  2  0  0  0  0
  9  3  1  0  0  0  0
 10  9  1  0  0  0  0
 10 11  1  0  0  0  0
 12 11  1  0  0  0  0
 13 12  2  0  0  0  0
 14 13  1  0  0  0  0
 15 14  2  0  0  0  0
 16 15  1  0  0  0  0
 11 16  2  0  0  0  0
 17 10  1  0  0  0  0
 17 18  2  0  0  0  0
 19 17  1  0  0  0  0
 20 19  1  0  0  0  0
  2 20  1  0  0  0  0
 20 21  2  0  0  0  0
M  END
> <ChemID>
10150

> <CAS>
22316-47-8

> <Original_SMILES>
CN1c2ccc(Cl)cc2N(c2ccccc2)C(=O)CC1=O

> <preferred_name>
Clobazam

> <dsstox_substance_id>
DTXSID2046759

> <dsstox_compound_id>
DTXCID0026759

> <Canonical_QSARr>
CN1C2=CC=C(Cl)C=C2N(C2C=CC=CC=2)C(=O)CC1=O

> <InChI_Code_QSARr>
InChI=1S/C16H13ClN2O2/c1-18-13-8-7-11(17)9-14(13)19(16(21)10-15(18)20)12-5-3-2-4-6-12/h2-9H,10H2,1H3

> <InChI Key_QSARr>
CXOXHMZGEKVPMT-UHFFFAOYSA-N

> <Salt_Solvent>


> <Salt_Solvent_ID>
0

> <Clint>
1.4313637641589871

> <Tr_1_Tst_0>
1

$$$$
Row116
  Mrv171c012261910192D          

 24 24  0  0  0  0            999 V2000
    3.7184   -1.4792    0.0000 C   0  0  0  0  0  0  0  0  0  0  0  0
    3.0039   -1.8917    0.0000 C   0  0  0  0  0  0  0  0  0  0  0  0
    3.0039   -2.7167    0.0000 C   0  0  0  0  0  0  0  0  0  0  0  0
    2.2894   -3.1292    0.0000 N   0  0  0  0  0  0  0  0  0  0  0  0
    2.2894   -3.9542    0.0000 C   0  0  0  0  0  0  0  0  0  0  0  0
    1.5750   -4.3667    0.0000 C   0  0  0  0  0  0  0  0  0  0  0  0
    1.5750   -5.1917    0.0000 C   0  0  0  0  0  0  0  0  0  0  0  0
    0.8605   -5.6042    0.0000 C   0  0  0  0  0  0  0  0  0  0  0  0
    3.0039   -4.3667    0.0000 O   0  0  0  0  0  0  0  0  0  0  0  0
    3.7184   -3.1292    0.0000 C   0  0  0  0  0  0  0  0  0  0  0  0
    4.4329   -2.7167    0.0000 C   0  0  0  0  0  0  0  0  0  0  0  0
    4.4329   -1.8917    0.0000 C   0  0  0  0  0  0  0  0  0  0  0  0
    5.1473   -1.4792    0.0000 O   0  0  0  0  0  0  0  0  0  0  0  0
    5.8618   -1.8917    0.0000 C   0  0  0  0  0  0  0  0  0  0  0  0
    6.5763   -1.4792    0.0000 C   0  0  0  0  0  0  0  0  0  0  0  0
    6.5763   -0.6542    0.0000 O   0  0  0  0  0  0  0  0  0  0  0  0
    7.2907   -1.8917    0.0000 C   0  0  0  0  0  0  0  0  0  0  0  0
    8.0052   -1.4792    0.0000 N   0  0  0  0  0  0  0  0  0  0  0  0
    8.7197   -1.8917    0.0000 C   0  0  0  0  0  0  0  0  0  0  0  0
    9.4341   -1.4792    0.0000 C   0  0  0  0  0  0  0  0  0  0  0  0
    8.7197   -2.7167    0.0000 C   0  0  0  0  0  0  0  0  0  0  0  0
    3.7184   -0.6542    0.0000 C   0  0  0  0  0  0  0  0  0  0  0  0
    4.4329   -0.2417    0.0000 C   0  0  0  0  0  0  0  0  0  0  0  0
    3.0039   -0.2417    0.0000 O   0  0  0  0  0  0  0  0  0  0  0  0
  2  1  1  0  0  0  0
  3  2  2  0  0  0  0
  3  4  1  0  0  0  0
  4  5  1  0  0  0  0
  5  6  1  0  0  0  0
  6  7  1  0  0  0  0
  7  8  1  0  0  0  0
  5  9  2  0  0  0  0
 10  3  1  0  0  0  0
 11 10  2  0  0  0  0
 12 11  1  0  0  0  0
  1 12  2  0  0  0  0
 12 13  1  0  0  0  0
 13 14  1  0  0  0  0
 14 15  1  0  0  0  0
 15 16  1  0  0  0  0
 15 17  1  0  0  0  0
 17 18  1  0  0  0  0
 18 19  1  0  0  0  0
 19 20  1  0  0  0  0
 19 21  1  0  0  0  0
  1 22  1  0  0  0  0
 22 23  1  0  0  0  0
 22 24  2  0  0  0  0
M  END
> <ChemID>
10151

> <CAS>
37517-30-9

> <Original_SMILES>
CC(=O)c1cc(ccc1OCC(O)CNC(C)C)NC(=O)CCC

> <preferred_name>
Acebutolol

> <dsstox_substance_id>
DTXSID2048539

> <dsstox_compound_id>
DTXCID8028006

> <Canonical_QSARr>
CC(=O)C1C=C(C=CC=1OCC(O)CNC(C)C)NC(=O)CCC

> <InChI_Code_QSARr>
InChI=1S/C18H28N2O4/c1-5-6-18(23)20-14-7-8-17(16(9-14)13(4)21)24-11-15(22)10-19-12(2)3/h7-9,12,15,19,22H,5-6,10-11H2,1-4H3,(H,20,23)

> <InChI Key_QSARr>
GOEMGAFJFRBGGG-UHFFFAOYSA-N

> <Salt_Solvent>


> <Salt_Solvent_ID>
0

> <Clint>
0.25527250510330607

> <Tr_1_Tst_0>
1

$$$$
Row350
  Mrv171c012261910192D          

 19 20  0  0  0  0            999 V2000
    3.8014   -2.8884    0.0000 O   0  0  0  0  0  0  0  0  0  0  0  0
    3.8014   -2.0634    0.0000 C   0  0  0  0  0  0  0  0  0  0  0  0
    3.0870   -1.6509    0.0000 N   0  0  0  0  0  0  0  0  0  0  0  0
    2.3725   -2.0634    0.0000 C   0  0  0  0  0  0  0  0  0  0  0  0
    1.6580   -1.6509    0.0000 S   0  0  0  0  0  0  0  0  0  0  0  0
    0.9436   -2.0634    0.0000 P   0  0  0  0  0  0  0  0  0  0  0  0
    0.2291   -2.4759    0.0000 O   0  0  0  0  0  0  0  0  0  0  0  0
   -0.4854   -2.0634    0.0000 C   0  0  0  0  0  0  0  0  0  0  0  0
    1.3561   -2.7779    0.0000 O   0  0  0  0  0  0  0  0  0  0  0  0
    0.9436   -3.4924    0.0000 C   0  0  0  0  0  0  0  0  0  0  0  0
    0.5311   -1.3489    0.0000 S   0  0  0  0  0  0  0  0  0  0  0  0
    3.0870   -0.8259    0.0000 N   0  0  0  0  0  0  0  0  0  0  0  0
    3.8014   -0.4134    0.0000 N   0  0  0  0  0  0  0  0  0  0  0  0
    4.5159   -0.8259    0.0000 C   0  0  0  0  0  0  0  0  0  0  0  0
    5.2304   -0.4134    0.0000 C   0  0  0  0  0  0  0  0  0  0  0  0
    5.9449   -0.8259    0.0000 C   0  0  0  0  0  0  0  0  0  0  0  0
    5.9449   -1.6509    0.0000 C   0  0  0  0  0  0  0  0  0  0  0  0
    5.2304   -2.0634    0.0000 C   0  0  0  0  0  0  0  0  0  0  0  0
    4.5159   -1.6509    0.0000 C   0  0  0  0  0  0  0  0  0  0  0  0
  1  2  2  0  0  0  0
  3  2  1  0  0  0  0
  3  4  1  0  0  0  0
  4  5  1  0  0  0  0
  5  6  1  0  0  0  0
  6  7  1  0  0  0  0
  7  8  1  0  0  0  0
  6  9  1  0  0  0  0
  9 10  1  0  0  0  0
  6 11  2  0  0  0  0
 12  3  1  0  0  0  0
 13 12  2  0  0  0  0
 14 13  1  0  0  0  0
 14 15  1  0  0  0  0
 15 16  2  0  0  0  0
 16 17  1  0  0  0  0
 17 18  2  0  0  0  0
 18 19  1  0  0  0  0
  2 19  1  0  0  0  0
 19 14  2  0  0  0  0
M  END
> <ChemID>
10152

> <CAS>
86-50-0

> <Original_SMILES>
COP(=S)(OC)SCN1N=Nc2ccccc2C1=O

> <preferred_name>
Azinphos-methyl

> <dsstox_substance_id>
DTXSID3020122

> <dsstox_compound_id>
DTXCID10122

> <Canonical_QSARr>
COP(=S)(OC)SCN1N=NC2C=CC=CC=2C1=O

> <InChI_Code_QSARr>
InChI=1S/C10H12N3O3PS2/c1-15-17(18,16-2)19-7-13-10(14)8-5-3-4-6-9(8)11-12-13/h3-6H,7H2,1-2H3

> <InChI Key_QSARr>
CJJOSEISRRTUQB-UHFFFAOYSA-N

> <Salt_Solvent>


> <Salt_Solvent_ID>
0

> <Clint>
1.5136170737878747

> <Tr_1_Tst_0>
1

$$$$
Row51
  Mrv171c012261910192D          

 17 17  0  0  0  0            999 V2000
    3.5763   -1.5265    0.0000 O   0  0  0  0  0  0  0  0  0  0  0  0
    2.8618   -1.9390    0.0000 C   0  0  0  0  0  0  0  0  0  0  0  0
    2.1474   -1.5265    0.0000 C   0  0  0  0  0  0  0  0  0  0  0  0
    2.1474   -0.7015    0.0000 C   0  0  0  0  0  0  0  0  0  0  0  0
    1.4329   -0.2890    0.0000 C   0  0  0  0  0  0  0  0  0  0  0  0
    2.8618   -0.2890    0.0000 C   0  0  0  0  0  0  0  0  0  0  0  0
    2.8618    0.5360    0.0000 C   0  0  0  0  0  0  0  0  0  0  0  0
    1.4329   -1.9390    0.0000 C   0  0  0  0  0  0  0  0  0  0  0  0
    1.4329   -2.7640    0.0000 C   0  0  0  0  0  0  0  0  0  0  0  0
    0.7184   -3.1765    0.0000 N   0  3  0  0  0  0  0  0  0  0  0  0
    0.7184   -4.0015    0.0000 O   0  5  0  0  0  0  0  0  0  0  0  0
    0.0040   -2.7640    0.0000 O   0  0  0  0  0  0  0  0  0  0  0  0
    2.1474   -3.1765    0.0000 C   0  0  0  0  0  0  0  0  0  0  0  0
    2.8618   -2.7640    0.0000 C   0  0  0  0  0  0  0  0  0  0  0  0
    3.5763   -3.1765    0.0000 N   0  3  0  0  0  0  0  0  0  0  0  0
    4.2908   -2.7640    0.0000 O   0  5  0  0  0  0  0  0  0  0  0  0
    3.5763   -4.0015    0.0000 O   0  0  0  0  0  0  0  0  0  0  0  0
  1  2  1  0  0  0  0
  3  2  1  0  0  0  0
  3  4  1  0  0  0  0
  4  5  1  0  0  0  0
  4  6  1  0  0  0  0
  6  7  1  0  0  0  0
  8  3  2  0  0  0  0
  9  8  1  0  0  0  0
  9 10  1  0  0  0  0
 10 11  1  0  0  0  0
 10 12  2  0  0  0  0
 13  9  2  0  0  0  0
 14 13  1  0  0  0  0
  2 14  2  0  0  0  0
 14 15  1  0  0  0  0
 15 16  1  0  0  0  0
 15 17  2  0  0  0  0
M  CHG  4  10   1  11  -1  15   1  16  -1
M  END
> <ChemID>
10153

> <CAS>
88-85-7

> <Original_SMILES>
CCC(C)c1cc(cc(c1O)[N+]([O-])=O)[N+]([O-])=O

> <preferred_name>
Dinoseb

> <dsstox_substance_id>
DTXSID3020207

> <dsstox_compound_id>
DTXCID30207

> <Canonical_QSARr>
CCC(C)C1=CC(=CC(=C1O)[N+]([O-])=O)[N+]([O-])=O

> <InChI_Code_QSARr>
InChI=1S/C10H12N2O5/c1-3-6(2)8-4-7(11(14)15)5-9(10(8)13)12(16)17/h4-6,13H,3H2,1-2H3

> <InChI Key_QSARr>
OWZPCEFYPSAJFR-UHFFFAOYSA-N

> <Salt_Solvent>


> <Salt_Solvent_ID>
0

> <Clint>
-7.0

> <Tr_1_Tst_0>
1

$$$$
Row368
  Mrv171c012261910192D          

 14 14  0  0  0  0            999 V2000
    3.2398    0.6086    0.0000 O   0  0  0  0  0  0  0  0  0  0  0  0
    3.2398   -0.2164    0.0000 C   0  0  0  0  0  0  0  0  0  0  0  0
    3.9543   -0.6289    0.0000 O   0  0  0  0  0  0  0  0  0  0  0  0
    4.6688   -0.2164    0.0000 C   0  0  0  0  0  0  0  0  0  0  0  0
    5.3832   -0.6289    0.0000 C   0  0  0  0  0  0  0  0  0  0  0  0
    6.0977   -0.2164    0.0000 C   0  0  0  0  0  0  0  0  0  0  0  0
    6.8122   -0.6289    0.0000 C   0  0  0  0  0  0  0  0  0  0  0  0
    2.5254   -0.6289    0.0000 C   0  0  0  0  0  0  0  0  0  0  0  0
    1.8109   -0.2164    0.0000 C   0  0  0  0  0  0  0  0  0  0  0  0
    1.0964   -0.6289    0.0000 C   0  0  0  0  0  0  0  0  0  0  0  0
    1.0964   -1.4539    0.0000 C   0  0  0  0  0  0  0  0  0  0  0  0
    0.3820   -1.8664    0.0000 O   0  0  0  0  0  0  0  0  0  0  0  0
    1.8109   -1.8664    0.0000 C   0  0  0  0  0  0  0  0  0  0  0  0
    2.5254   -1.4539    0.0000 C   0  0  0  0  0  0  0  0  0  0  0  0
  1  2  2  0  0  0  0
  2  3  1  0  0  0  0
  3  4  1  0  0  0  0
  4  5  1  0  0  0  0
  5  6  1  0  0  0  0
  6  7  1  0  0  0  0
  2  8  1  0  0  0  0
  9  8  1  0  0  0  0
 10  9  2  0  0  0  0
 11 10  1  0  0  0  0
 11 12  1  0  0  0  0
 13 11  2  0  0  0  0
 14 13  1  0  0  0  0
  8 14  2  0  0  0  0
M  END
> <ChemID>
10154

> <CAS>
94-26-8

> <Original_SMILES>
CCCCOC(=O)c1ccc(O)cc1

> <preferred_name>
Butylparaben

> <dsstox_substance_id>
DTXSID3020209

> <dsstox_compound_id>
DTXCID90209

> <Canonical_QSARr>
CCCCOC(=O)C1C=CC(O)=CC=1

> <InChI_Code_QSARr>
InChI=1S/C11H14O3/c1-2-3-8-14-11(13)9-4-6-10(12)7-5-9/h4-7,12H,2-3,8H2,1H3

> <InChI Key_QSARr>
QFOHBWFCKVYLES-UHFFFAOYSA-N

> <Salt_Solvent>


> <Salt_Solvent_ID>
0

> <Clint>
1.5943925503754264

> <Tr_1_Tst_0>
1

$$$$
Row331
  Mrv171c012261910192D          

 28 31  0  0  0  0            999 V2000
   -0.7209    0.0778    0.0000 C   0  0  0  0  0  0  0  0  0  0  0  0
   -1.0808    0.8202    0.0000 C   0  0  0  0  0  0  0  0  0  0  0  0
   -0.1891    0.7085    0.0000 C   0  0  0  0  0  0  0  0  0  0  0  0
    0.6230    0.5633    0.0000 C   0  0  0  0  0  0  0  0  0  0  0  0
    1.1548    1.1940    0.0000 O   0  0  0  0  0  0  0  0  0  0  0  0
    0.9033   -0.2126    0.0000 C   0  0  0  0  0  0  0  0  0  0  0  0
    1.4351    0.4181    0.0000 F   0  0  0  0  0  0  0  0  0  0  0  0
    0.3715   -0.8433    0.0000 C   0  0  0  0  0  0  0  0  0  0  0  0
    0.6518   -1.6193    0.0000 C   0  0  0  0  0  0  0  0  0  0  0  0
    1.4639   -1.7645    0.0000 C   0  0  0  0  0  0  0  0  0  0  0  0
    1.9957   -1.1338    0.0000 C   0  0  0  0  0  0  0  0  0  0  0  0
    2.8078   -1.2790    0.0000 C   0  0  0  0  0  0  0  0  0  0  0  0
    3.3396   -0.6483    0.0000 C   0  0  0  0  0  0  0  0  0  0  0  0
    4.1518   -0.7935    0.0000 O   0  0  0  0  0  0  0  0  0  0  0  0
    3.0593    0.1276    0.0000 C   0  0  0  0  0  0  0  0  0  0  0  0
    2.2472    0.2729    0.0000 C   0  0  0  0  0  0  0  0  0  0  0  0
    1.7154   -0.3579    0.0000 C   0  0  0  0  0  0  0  0  0  0  0  0
    1.9447    0.4346    0.0000 C   0  0  0  0  0  0  0  0  0  0  0  0
   -0.4406   -0.6981    0.0000 C   0  0  0  0  0  0  0  0  0  0  0  0
   -1.0920   -1.2045    0.0000 C   0  0  0  0  0  0  0  0  0  0  0  0
   -1.7748   -0.7415    0.0000 C   0  0  0  0  0  0  0  0  0  0  0  0
   -2.5507   -1.0218    0.0000 C   0  0  0  0  0  0  0  0  0  0  0  0
   -1.5455    0.0510    0.0000 C   0  0  0  0  0  0  0  0  0  0  0  0
   -1.6669    0.8670    0.0000 O   0  0  0  0  0  0  0  0  0  0  0  0
   -2.3064    0.3699    0.0000 C   0  0  0  0  0  0  0  0  0  0  0  0
   -2.9630   -0.1296    0.0000 C   0  0  0  0  0  0  0  0  0  0  0  0
   -3.7239    0.1892    0.0000 O   0  0  0  0  0  0  0  0  0  0  0  0
   -2.4107    1.1882    0.0000 O   0  0  0  0  0  0  0  0  0  0  0  0
  1  2  1  0  0  0  0
  3  1  1  0  0  0  0
  4  3  1  0  0  0  0
  4  5  1  0  0  0  0
  6  4  1  0  0  0  0
  6  7  1  0  0  0  0
  6  8  1  0  0  0  0
  8  9  1  0  0  0  0
  9 10  1  0  0  0  0
 10 11  1  0  0  0  0
 12 11  2  0  0  0  0
 13 12  1  0  0  0  0
 13 14  2  0  0  0  0
 15 13  1  0  0  0  0
 16 15  2  0  0  0  0
 17 16  1  0  0  0  0
 11 17  1  0  0  0  0
 17  6  1  0  0  0  0
 17 18  1  0  0  0  0
 19  8  1  0  0  0  0
 19  1  1  0  0  0  0
 20 19  1  0  0  0  0
 21 20  1  0  0  0  0
 21 22  1  0  0  0  0
 23 21  1  0  0  0  0
  1 23  1  0  0  0  0
 23 24  1  0  0  0  0
 23 25  1  0  0  0  0
 25 26  1  0  0  0  0
 26 27  1  0  0  0  0
 25 28  2  0  0  0  0
M  END
> <ChemID>
10155

> <CAS>
50-02-2

> <Original_SMILES>
C[C@@H]1C[C@H]2[C@@H]3CCC4=CC(=O)C=C[C@]4(C)[C@@]3(F)[C@@H](O)C[C@]2(C)[C@@]1(O)C(=O)CO

> <preferred_name>
Dexamethasone

> <dsstox_substance_id>
DTXSID3020384

> <dsstox_compound_id>
DTXCID10384

> <Canonical_QSARr>
CC1CC2C3CCC4=CC(=O)C=CC4(C)C3(F)C(O)CC2(C)C1(O)C(=O)CO

> <InChI_Code_QSARr>
InChI=1S/C22H29FO5/c1-12-8-16-15-5-4-13-9-14(25)6-7-19(13,2)21(15,23)17(26)10-20(16,3)22(12,28)18(27)11-24/h6-7,9,12,15-17,24,26,28H,4-5,8,10-11H2,1-3H3

> <InChI Key_QSARr>
UREBDLICKHMUKA-UHFFFAOYSA-N

> <Salt_Solvent>


> <Salt_Solvent_ID>
0

> <Clint>
1.3979400086720375

> <Tr_1_Tst_0>
1

$$$$
Row370
  Mrv171c012261910192D          

 20 21  0  0  0  0            999 V2000
   -0.7145   -0.4125    0.0000 C   0  0  0  0  0  0  0  0  0  0  0  0
   -0.7145   -1.2375    0.0000 C   0  0  0  0  0  0  0  0  0  0  0  0
    0.0000   -1.6500    0.0000 C   0  0  0  0  0  0  0  0  0  0  0  0
    0.0000   -2.4750    0.0000 C   0  0  0  0  0  0  0  0  0  0  0  0
    0.7145   -2.8875    0.0000 C   0  0  0  0  0  0  0  0  0  0  0  0
    0.7145   -3.7125    0.0000 C   0  0  0  0  0  0  0  0  0  0  0  0
    0.0000   -4.1250    0.0000 C   0  0  0  0  0  0  0  0  0  0  0  0
    0.0000   -4.9500    0.0000 O   0  0  0  0  0  0  0  0  0  0  0  0
   -0.7145   -3.7125    0.0000 C   0  0  0  0  0  0  0  0  0  0  0  0
   -0.7145   -2.8875    0.0000 C   0  0  0  0  0  0  0  0  0  0  0  0
    0.7145   -1.2375    0.0000 C   0  0  0  0  0  0  0  0  0  0  0  0
    1.4289   -1.6500    0.0000 C   0  0  0  0  0  0  0  0  0  0  0  0
    2.1434   -1.2375    0.0000 C   0  0  0  0  0  0  0  0  0  0  0  0
    0.7145   -0.4125    0.0000 C   0  0  0  0  0  0  0  0  0  0  0  0
    0.0000    0.0000    0.0000 C   0  0  0  0  0  0  0  0  0  0  0  0
    0.0000    0.8250    0.0000 C   0  0  0  0  0  0  0  0  0  0  0  0
    0.7145    1.2375    0.0000 C   0  0  0  0  0  0  0  0  0  0  0  0
    0.7145    2.0625    0.0000 O   0  0  0  0  0  0  0  0  0  0  0  0
    1.4289    0.8250    0.0000 C   0  0  0  0  0  0  0  0  0  0  0  0
    1.4289   -0.0000    0.0000 C   0  0  0  0  0  0  0  0  0  0  0  0
  1  2  1  0  0  0  0
  3  2  1  4  0  0  0
  3  4  1  0  0  0  0
  4  5  1  0  0  0  0
  5  6  2  0  0  0  0
  6  7  1  0  0  0  0
  7  8  1  0  0  0  0
  7  9  2  0  0  0  0
  9 10  1  0  0  0  0
  4 10  2  0  0  0  0
  3 11  2  0  0  0  0
 11 12  1  0  0  0  0
 12 13  1  0  0  0  0
 11 14  1  0  0  0  0
 14 15  1  0  0  0  0
 15 16  2  0  0  0  0
 16 17  1  0  0  0  0
 17 18  1  0  0  0  0
 17 19  2  0  0  0  0
 19 20  1  0  0  0  0
 14 20  2  0  0  0  0
M  END
> <ChemID>
10156

> <CAS>
56-53-1

> <Original_SMILES>
CC/C(/c1ccc(O)cc1)=C(/CC)\c1ccc(O)cc1

> <preferred_name>
Diethylstilbestrol

> <dsstox_substance_id>
DTXSID3020465

> <dsstox_compound_id>
DTXCID10465

> <Canonical_QSARr>
CCC(C1C=CC(O)=CC=1)=C(CC)C1C=CC(O)=CC=1

> <InChI_Code_QSARr>
InChI=1S/C18H20O2/c1-3-17(13-5-9-15(19)10-6-13)18(4-2)14-7-11-16(20)12-8-14/h5-12,19-20H,3-4H2,1-2H3

> <InChI Key_QSARr>
RGLYKWWBQGJZGM-UHFFFAOYSA-N

> <Salt_Solvent>


> <Salt_Solvent_ID>
0

> <Clint>
1.6157396886191546

> <Tr_1_Tst_0>
1

$$$$
Row92
  Mrv171c012261910192D          

 30 32  0  0  0  0            999 V2000
    4.1197   -1.3492    0.0000 O   0  0  0  0  0  0  0  0  0  0  0  0
    4.5322   -2.0636    0.0000 C   0  0  0  0  0  0  0  0  0  0  0  0
    4.1197   -2.7781    0.0000 O   0  0  0  0  0  0  0  0  0  0  0  0
    3.2947   -2.7781    0.0000 C   0  0  0  0  0  0  0  0  0  0  0  0
    2.8822   -2.0636    0.0000 C   0  0  0  0  0  0  0  0  0  0  0  0
    2.4697   -1.3492    0.0000 N   0  0  0  0  0  0  0  0  0  0  0  0
    2.8822   -3.4926    0.0000 C   0  0  0  0  0  0  0  0  0  0  0  0
    2.0572   -3.4926    0.0000 C   0  0  0  0  0  0  0  0  0  0  0  0
    1.6447   -4.2070    0.0000 C   0  0  0  0  0  0  0  0  0  0  0  0
    0.8197   -4.2070    0.0000 O   0  0  0  0  0  0  0  0  0  0  0  0
    0.4072   -4.9215    0.0000 C   0  0  0  0  0  0  0  0  0  0  0  0
   -0.4178   -4.9215    0.0000 C   0  0  0  0  0  0  0  0  0  0  0  0
   -0.8303   -5.6360    0.0000 C   0  0  0  0  0  0  0  0  0  0  0  0
   -0.4178   -6.3505    0.0000 C   0  0  0  0  0  0  0  0  0  0  0  0
    0.4072   -6.3505    0.0000 C   0  0  0  0  0  0  0  0  0  0  0  0
    0.8197   -5.6360    0.0000 C   0  0  0  0  0  0  0  0  0  0  0  0
    2.0572   -4.9215    0.0000 C   0  0  0  0  0  0  0  0  0  0  0  0
    2.8822   -4.9215    0.0000 C   0  0  0  0  0  0  0  0  0  0  0  0
    3.2947   -4.2070    0.0000 C   0  0  0  0  0  0  0  0  0  0  0  0
    5.3572   -2.0636    0.0000 C   0  0  0  0  0  0  0  0  0  0  0  0
    5.7697   -2.7781    0.0000 C   0  0  0  0  0  0  0  0  0  0  0  0
    6.5947   -2.7781    0.0000 C   0  0  0  0  0  0  0  0  0  0  0  0
    5.3572   -3.4926    0.0000 C   0  0  0  0  0  0  0  0  0  0  0  0
    5.7697   -1.3492    0.0000 C   0  0  0  0  0  0  0  0  0  0  0  0
    6.5947   -1.3492    0.0000 C   0  0  0  0  0  0  0  0  0  0  0  0
    7.0072   -0.6347    0.0000 C   0  0  0  0  0  0  0  0  0  0  0  0
    6.5947    0.0798    0.0000 C   0  0  0  0  0  0  0  0  0  0  0  0
    7.0072    0.7943    0.0000 Cl  0  0  0  0  0  0  0  0  0  0  0  0
    5.7697    0.0798    0.0000 C   0  0  0  0  0  0  0  0  0  0  0  0
    5.3572   -0.6347    0.0000 C   0  0  0  0  0  0  0  0  0  0  0  0
  1  2  2  0  0  0  0
  2  3  1  0  0  0  0
  3  4  1  0  0  0  0
  4  5  1  0  0  0  0
  5  6  3  0  0  0  0
  4  7  1  0  0  0  0
  8  7  1  0  0  0  0
  9  8  2  0  0  0  0
  9 10  1  0  0  0  0
 10 11  1  0  0  0  0
 12 11  1  0  0  0  0
 13 12  2  0  0  0  0
 14 13  1  0  0  0  0
 15 14  2  0  0  0  0
 16 15  1  0  0  0  0
 11 16  2  0  0  0  0
 17  9  1  0  0  0  0
 18 17  2  0  0  0  0
 19 18  1  0  0  0  0
  7 19  2  0  0  0  0
  2 20  1  0  0  0  0
 20 21  1  0  0  0  0
 21 22  1  0  0  0  0
 21 23  1  0  0  0  0
 20 24  1  0  0  0  0
 25 24  1  0  0  0  0
 26 25  2  0  0  0  0
 27 26  1  0  0  0  0
 27 28  1  0  0  0  0
 29 27  2  0  0  0  0
 30 29  1  0  0  0  0
 24 30  2  0  0  0  0
M  END
> <ChemID>
10157

> <CAS>
51630-58-1|66230-04-4

> <Original_SMILES>
CC(C)C(C(=O)OC(C#N)c1cc(ccc1)Oc1ccccc1)c1ccc(Cl)cc1

> <preferred_name>
Fenvalerate|Esfenvalerate

> <dsstox_substance_id>
DTXSID3020621|DTXSID4032667

> <dsstox_compound_id>
DTXCID30621|DTXCID2012667

> <Canonical_QSARr>
CC(C)C(C1=CC=C(Cl)C=C1)C(=O)OC(C#N)C1C=C(C=CC=1)OC1C=CC=CC=1

> <InChI_Code_QSARr>
InChI=1S/C25H22ClNO3/c1-17(2)24(18-11-13-20(26)14-12-18)25(28)30-23(16-27)19-7-6-10-22(15-19)29-21-8-4-3-5-9-21/h3-15,17,23-24H,1-2H3

> <InChI Key_QSARr>
NYPJDWWKZLNGGM-UHFFFAOYSA-N

> <Salt_Solvent>


> <Salt_Solvent_ID>
0

> <Clint>
0.29072905619616074

> <Tr_1_Tst_0>
1

$$$$
Row451
  Mrv171c012261910192D          

 22 24  0  0  0  0            999 V2000
    2.5031   -4.8484    0.0000 N   0  0  0  0  0  0  0  0  0  0  0  0
    2.7580   -4.0637    0.0000 C   0  0  0  0  0  0  0  0  0  0  0  0
    2.0906   -3.5788    0.0000 N   0  0  0  0  0  0  0  0  0  0  0  0
    2.0906   -2.7538    0.0000 C   0  0  0  0  0  0  0  0  0  0  0  0
    2.8051   -2.3413    0.0000 C   0  0  0  0  0  0  0  0  0  0  0  0
    3.2176   -3.0558    0.0000 O   0  0  0  0  0  0  0  0  0  0  0  0
    3.5195   -1.9288    0.0000 C   0  0  0  0  0  0  0  0  0  0  0  0
    4.2340   -2.3413    0.0000 C   0  0  0  0  0  0  0  0  0  0  0  0
    4.9485   -1.9288    0.0000 C   0  0  0  0  0  0  0  0  0  0  0  0
    4.9485   -1.1038    0.0000 C   0  0  0  0  0  0  0  0  0  0  0  0
    5.6630   -0.6913    0.0000 F   0  0  0  0  0  0  0  0  0  0  0  0
    4.2340   -0.6913    0.0000 C   0  0  0  0  0  0  0  0  0  0  0  0
    3.5195   -1.1038    0.0000 C   0  0  0  0  0  0  0  0  0  0  0  0
    2.8051   -0.6913    0.0000 F   0  0  0  0  0  0  0  0  0  0  0  0
    2.3926   -1.6268    0.0000 C   0  0  0  0  0  0  0  0  0  0  0  0
    1.5676   -1.6268    0.0000 N   0  0  0  0  0  0  0  0  0  0  0  0
    1.0826   -0.9594    0.0000 C   0  0  0  0  0  0  0  0  0  0  0  0
    0.2980   -1.2143    0.0000 N   0  0  0  0  0  0  0  0  0  0  0  0
    0.2980   -2.0393    0.0000 C   0  0  0  0  0  0  0  0  0  0  0  0
    1.0826   -2.2943    0.0000 N   0  0  0  0  0  0  0  0  0  0  0  0
    1.4232   -4.0637    0.0000 N   0  0  0  0  0  0  0  0  0  0  0  0
    1.6781   -4.8484    0.0000 C   0  0  0  0  0  0  0  0  0  0  0  0
  2  1  2  0  0  0  0
  3  2  1  0  0  0  0
  3  4  1  0  0  0  0
  4  5  1  0  0  0  0
  5  6  1  0  0  0  0
  5  7  1  0  0  0  0
  8  7  1  0  0  0  0
  9  8  2  0  0  0  0
 10  9  1  0  0  0  0
 10 11  1  0  0  0  0
 12 10  2  0  0  0  0
 13 12  1  0  0  0  0
  7 13  2  0  0  0  0
 13 14  1  0  0  0  0
  5 15  1  0  0  0  0
 15 16  1  0  0  0  0
 17 16  1  0  0  0  0
 18 17  2  0  0  0  0
 19 18  1  0  0  0  0
 20 19  2  0  0  0  0
 16 20  1  0  0  0  0
 21  3  1  0  0  0  0
 22 21  2  0  0  0  0
  1 22  1  0  0  0  0
M  END
> <ChemID>
10158

> <CAS>
86386-73-4

> <Original_SMILES>
OC(C[n]1c[n]c[n]1)(C[n]1c[n]c[n]1)c1ccc(F)cc1F

> <preferred_name>
Fluconazole

> <dsstox_substance_id>
DTXSID3020627

> <dsstox_compound_id>
DTXCID10627

> <Canonical_QSARr>
OC(CN1C=NC=N1)(CN1C=NC=N1)C1C=CC(F)=CC=1F

> <InChI_Code_QSARr>
InChI=1S/C13H12F2N6O/c14-10-1-2-11(12(15)3-10)13(22,4-20-8-16-6-18-20)5-21-9-17-7-19-21/h1-3,6-9,22H,4-5H2

> <InChI Key_QSARr>
RFHAOTPXVQNOHP-UHFFFAOYSA-N

> <Salt_Solvent>


> <Salt_Solvent_ID>
0

> <Clint>
0.2629728788053684

> <Tr_1_Tst_0>
0

$$$$
Row169
  Mrv171c012261910192D          

 17 19  0  0  0  0            999 V2000
    1.4056   -1.2261    0.0000 C   0  0  0  0  0  0  0  0  0  0  0  0
    1.3880   -0.3679    0.0000 Cl  0  0  0  0  0  0  0  0  0  0  0  0
    2.0376   -1.5561    0.0000 C   0  0  0  0  0  0  0  0  0  0  0  0
    2.9047   -1.3837    0.0000 C   0  0  0  0  0  0  0  0  0  0  0  0
    3.1554   -0.5320    0.0000 Cl  0  0  0  0  0  0  0  0  0  0  0  0
    3.3896   -2.0511    0.0000 C   0  0  0  0  0  0  0  0  0  0  0  0
    2.9047   -2.7186    0.0000 C   0  0  0  0  0  0  0  0  0  0  0  0
    2.0376   -2.5461    0.0000 C   0  0  0  0  0  0  0  0  0  0  0  0
    1.4056   -2.8761    0.0000 C   0  0  0  0  0  0  0  0  0  0  0  0
    0.6911   -2.4636    0.0000 C   0  0  0  0  0  0  0  0  0  0  0  0
   -0.0477   -2.8895    0.0000 Cl  0  0  0  0  0  0  0  0  0  0  0  0
    0.6911   -1.6386    0.0000 C   0  0  0  0  0  0  0  0  0  0  0  0
   -0.0476   -1.2129    0.0000 Cl  0  0  0  0  0  0  0  0  0  0  0  0
    1.3926   -3.7347    0.0000 Cl  0  0  0  0  0  0  0  0  0  0  0  0
    1.6118   -2.0511    0.0000 C   0  0  0  0  0  0  0  0  0  0  0  0
    2.5556   -1.7741    0.0000 Cl  0  0  0  0  0  0  0  0  0  0  0  0
    2.5548   -2.3315    0.0000 Cl  0  0  0  0  0  0  0  0  0  0  0  0
  1  2  1  0  0  0  0
  3  1  1  0  0  0  0
  3  4  1  0  0  0  0
  4  5  1  0  0  0  0
  4  6  1  0  0  0  0
  6  7  2  0  0  0  0
  7  8  1  0  0  0  0
  8  3  1  0  0  0  0
  9  8  1  0  0  0  0
  9 10  1  0  0  0  0
 10 11  1  0  0  0  0
 10 12  2  0  0  0  0
 12  1  1  0  0  0  0
 12 13  1  0  0  0  0
  9 14  1  0  0  0  0
 15  9  1  0  0  0  0
  1 15  1  0  0  0  0
 15 16  1  0  0  0  0
 15 17  1  0  0  0  0
M  END
> <ChemID>
10159

> <CAS>
76-44-8

> <Original_SMILES>
ClC1(Cl)C2(Cl)C3C=CC(Cl)C3C1(Cl)C(Cl)=C2Cl

> <preferred_name>
Heptachlor

> <dsstox_substance_id>
DTXSID3020679

> <dsstox_compound_id>
DTXCID70679

> <Canonical_QSARr>
ClC1(Cl)C2(Cl)C3C=CC(Cl)C3C1(Cl)C(Cl)=C2Cl

> <InChI_Code_QSARr>
InChI=1S/C10H5Cl7/c11-4-2-1-3-5(4)9(15)7(13)6(12)8(3,14)10(9,16)17/h1-5H

> <InChI Key_QSARr>
FRCCEHPWNOQAEU-UHFFFAOYSA-N

> <Salt_Solvent>


> <Salt_Solvent_ID>
0

> <Clint>
0.6602961602707296

> <Tr_1_Tst_0>
1

$$$$
Row105
  Mrv171c012261910192D          

 14 13  0  0  0  0            999 V2000
    4.0232    0.0327    0.0000 O   0  0  0  0  0  0  0  0  0  0  0  0
    3.3087   -0.3798    0.0000 C   0  0  0  0  0  0  0  0  0  0  0  0
    3.3087   -1.2048    0.0000 C   0  0  0  0  0  0  0  0  0  0  0  0
    2.5942   -1.6173    0.0000 C   0  0  0  0  0  0  0  0  0  0  0  0
    2.5942   -2.4423    0.0000 C   0  0  0  0  0  0  0  0  0  0  0  0
    1.8798   -2.8548    0.0000 O   0  0  0  0  0  0  0  0  0  0  0  0
    1.8798   -3.6798    0.0000 S   0  0  0  0  0  0  0  0  0  0  0  0
    1.8798   -4.5048    0.0000 O   0  0  0  0  0  0  0  0  0  0  0  0
    2.7048   -3.6798    0.0000 C   0  0  0  0  0  0  0  0  0  0  0  0
    1.0548   -3.6798    0.0000 O   0  0  0  0  0  0  0  0  0  0  0  0
    4.0232    0.8577    0.0000 S   0  0  0  0  0  0  0  0  0  0  0  0
    4.0232    1.6827    0.0000 C   0  0  0  0  0  0  0  0  0  0  0  0
    4.8482    0.8577    0.0000 O   0  0  0  0  0  0  0  0  0  0  0  0
    3.1982    0.8577    0.0000 O   0  0  0  0  0  0  0  0  0  0  0  0
  1  2  1  0  0  0  0
  2  3  1  0  0  0  0
  3  4  1  0  0  0  0
  4  5  1  0  0  0  0
  5  6  1  0  0  0  0
  6  7  1  0  0  0  0
  7  8  2  0  0  0  0
  7  9  1  0  0  0  0
  7 10  2  0  0  0  0
  1 11  1  0  0  0  0
 11 12  1  0  0  0  0
 11 13  2  0  0  0  0
 11 14  2  0  0  0  0
M  END
> <ChemID>
10160

> <CAS>
55-98-1

> <Original_SMILES>
CS(=O)(=O)OCCCCOS(C)(=O)=O

> <preferred_name>
Busulfan

> <dsstox_substance_id>
DTXSID3020910

> <dsstox_compound_id>
DTXCID10910

> <Canonical_QSARr>
CS(=O)(=O)OCCCCOS(C)(=O)=O

> <InChI_Code_QSARr>
InChI=1S/C6H14O6S2/c1-13(7,8)11-5-3-4-6-12-14(2,9)10/h3-6H2,1-2H3

> <InChI Key_QSARr>
COVZYZSDYWQREU-UHFFFAOYSA-N

> <Salt_Solvent>


> <Salt_Solvent_ID>
0

> <Clint>
0.14301480025409502

> <Tr_1_Tst_0>
1

$$$$
Row445
  Mrv171c012261910192D          

 17 18  0  0  0  0            999 V2000
    1.9313   -3.5164    0.0000 O   0  0  0  0  0  0  0  0  0  0  0  0
    1.9313   -2.6914    0.0000 C   0  0  0  0  0  0  0  0  0  0  0  0
    1.2169   -2.2789    0.0000 C   0  0  0  0  0  0  0  0  0  0  0  0
    0.5024   -2.6914    0.0000 C   0  0  0  0  0  0  0  0  0  0  0  0
   -0.2121   -2.2789    0.0000 O   0  0  0  0  0  0  0  0  0  0  0  0
    0.5024   -3.5164    0.0000 O   0  0  0  0  0  0  0  0  0  0  0  0
    1.2169   -1.4539    0.0000 C   0  0  0  0  0  0  0  0  0  0  0  0
    1.9313   -1.0414    0.0000 N   0  0  0  0  0  0  0  0  0  0  0  0
    1.9313   -0.2164    0.0000 C   0  0  0  0  0  0  0  0  0  0  0  0
    2.6458    0.1961    0.0000 C   0  0  0  0  0  0  0  0  0  0  0  0
    2.6458   -1.4539    0.0000 C   0  0  0  0  0  0  0  0  0  0  0  0
    3.3603   -1.0414    0.0000 N   0  0  0  0  0  0  0  0  0  0  0  0
    4.0747   -1.4539    0.0000 C   0  0  0  0  0  0  0  0  0  0  0  0
    4.7892   -1.0414    0.0000 C   0  0  0  0  0  0  0  0  0  0  0  0
    4.0747   -2.2789    0.0000 C   0  0  0  0  0  0  0  0  0  0  0  0
    3.3603   -2.6914    0.0000 C   0  0  0  0  0  0  0  0  0  0  0  0
    2.6458   -2.2789    0.0000 C   0  0  0  0  0  0  0  0  0  0  0  0
  1  2  2  0  0  0  0
  3  2  1  0  0  0  0
  3  4  1  0  0  0  0
  4  5  1  0  0  0  0
  4  6  2  0  0  0  0
  7  3  2  0  0  0  0
  8  7  1  0  0  0  0
  8  9  1  0  0  0  0
  9 10  1  0  0  0  0
 11  8  1  0  0  0  0
 11 12  1  0  0  0  0
 12 13  2  0  0  0  0
 13 14  1  0  0  0  0
 13 15  1  0  0  0  0
 15 16  2  0  0  0  0
 16 17  1  0  0  0  0
  2 17  1  0  0  0  0
 17 11  2  0  0  0  0
M  END
> <ChemID>
10161

> <CAS>
389-08-2

> <Original_SMILES>
Cc1ccc2c([n]1)N(CC)C=C(C(O)=O)C2=O

> <preferred_name>
Nalidixic acid

> <dsstox_substance_id>
DTXSID3020912

> <dsstox_compound_id>
DTXCID70912

> <Canonical_QSARr>
CC1C=CC2=C(N=1)N(CC)C=C(C(O)=O)C2=O

> <InChI_Code_QSARr>
InChI=1S/C12H12N2O3/c1-3-14-6-9(12(16)17)10(15)8-5-4-7(2)13-11(8)14/h4-6H,3H2,1-2H3,(H,16,17)

> <InChI Key_QSARr>
MHWLWQUZZRMNGJ-UHFFFAOYSA-N

> <Salt_Solvent>


> <Salt_Solvent_ID>
0

> <Clint>
0.04139268515822507

> <Tr_1_Tst_0>
0

$$$$
Row35
  Mrv171c012261910192D          

 12 13  0  0  0  0            999 V2000
    1.0713   -3.0929    0.0000 N   0  0  0  0  0  0  0  0  0  0  0  0
    1.0713   -2.2679    0.0000 C   0  0  0  0  0  0  0  0  0  0  0  0
    0.3568   -1.8554    0.0000 C   0  0  0  0  0  0  0  0  0  0  0  0
    0.3568   -1.0304    0.0000 C   0  0  0  0  0  0  0  0  0  0  0  0
    1.0713   -0.6179    0.0000 C   0  0  0  0  0  0  0  0  0  0  0  0
    1.7858   -1.0304    0.0000 C   0  0  0  0  0  0  0  0  0  0  0  0
    2.5003   -0.6179    0.0000 C   0  0  0  0  0  0  0  0  0  0  0  0
    2.5003    0.2071    0.0000 N   0  0  0  0  0  0  0  0  0  0  0  0
    3.2147   -1.0304    0.0000 C   0  0  0  0  0  0  0  0  0  0  0  0
    3.2147   -1.8554    0.0000 C   0  0  0  0  0  0  0  0  0  0  0  0
    2.5003   -2.2679    0.0000 C   0  0  0  0  0  0  0  0  0  0  0  0
    1.7858   -1.8554    0.0000 C   0  0  0  0  0  0  0  0  0  0  0  0
  1  2  1  0  0  0  0
  3  2  1  0  0  0  0
  4  3  2  0  0  0  0
  5  4  1  0  0  0  0
  6  5  2  0  0  0  0
  6  7  1  0  0  0  0
  7  8  1  0  0  0  0
  7  9  2  0  0  0  0
  9 10  1  0  0  0  0
 10 11  2  0  0  0  0
 11 12  1  0  0  0  0
  2 12  2  0  0  0  0
 12  6  1  0  0  0  0
M  END
> <ChemID>
10162

> <CAS>
2243-62-1

> <Original_SMILES>
Nc1cccc2c1cccc2N

> <preferred_name>
1,5-Naphthalenediamine

> <dsstox_substance_id>
DTXSID3020916

> <dsstox_compound_id>
DTXCID90916

> <Canonical_QSARr>
NC1C=CC=C2C=1C=CC=C2N

> <InChI_Code_QSARr>
InChI=1S/C10H10N2/c11-9-5-1-3-7-8(9)4-2-6-10(7)12/h1-6H,11-12H2

> <InChI Key_QSARr>
KQSABULTKYLFEV-UHFFFAOYSA-N

> <Salt_Solvent>


> <Salt_Solvent_ID>
0

> <Clint>
-7.0

> <Tr_1_Tst_0>
1

$$$$
Row214
  Mrv171c012261910192D          

  9  9  0  0  0  0            999 V2000
    2.1337    0.7064    0.0000 O   0  0  0  0  0  0  0  0  0  0  0  0
    1.4193    0.2939    0.0000 N   0  3  0  0  0  0  0  0  0  0  0  0
    0.7048    0.7064    0.0000 O   0  5  0  0  0  0  0  0  0  0  0  0
    1.4193   -0.5311    0.0000 C   0  0  0  0  0  0  0  0  0  0  0  0
    0.7048   -0.9436    0.0000 C   0  0  0  0  0  0  0  0  0  0  0  0
    0.7048   -1.7686    0.0000 C   0  0  0  0  0  0  0  0  0  0  0  0
    1.4193   -2.1811    0.0000 C   0  0  0  0  0  0  0  0  0  0  0  0
    2.1337   -1.7686    0.0000 C   0  0  0  0  0  0  0  0  0  0  0  0
    2.1337   -0.9436    0.0000 C   0  0  0  0  0  0  0  0  0  0  0  0
  1  2  2  0  0  0  0
  2  3  1  0  0  0  0
  2  4  1  0  0  0  0
  5  4  1  0  0  0  0
  6  5  2  0  0  0  0
  7  6  1  0  0  0  0
  8  7  2  0  0  0  0
  9  8  1  0  0  0  0
  4  9  2  0  0  0  0
M  CHG  2   2   1   3  -1
M  END
> <ChemID>
10163

> <CAS>
98-95-3

> <Original_SMILES>
[O-][N+](=O)c1ccccc1

> <preferred_name>
Nitrobenzene

> <dsstox_substance_id>
DTXSID3020964

> <dsstox_compound_id>
DTXCID30964

> <Canonical_QSARr>
[O-][N+](=O)C1C=CC=CC=1

> <InChI_Code_QSARr>
InChI=1S/C6H5NO2/c8-7(9)6-4-2-1-3-5-6/h1-5H

> <InChI Key_QSARr>
LQNUZADURLCDLV-UHFFFAOYSA-N

> <Salt_Solvent>


> <Salt_Solvent_ID>
0

> <Clint>
0.9121157290788536

> <Tr_1_Tst_0>
1

$$$$
Row502
  Mrv171c012261910192D          

 15 15  0  0  0  0            999 V2000
    3.8273   -3.1128    0.0000 Cl  0  0  0  0  0  0  0  0  0  0  0  0
    3.1128   -2.7003    0.0000 C   0  0  0  0  0  0  0  0  0  0  0  0
    3.1128   -1.8753    0.0000 N   0  0  0  0  0  0  0  0  0  0  0  0
    2.3983   -1.4628    0.0000 C   0  0  0  0  0  0  0  0  0  0  0  0
    2.3983   -0.6378    0.0000 N   0  0  0  0  0  0  0  0  0  0  0  0
    3.1128   -0.2253    0.0000 C   0  0  0  0  0  0  0  0  0  0  0  0
    3.1128    0.5997    0.0000 C   0  0  0  0  0  0  0  0  0  0  0  0
    3.8273   -0.6378    0.0000 C   0  0  0  0  0  0  0  0  0  0  0  0
    1.6839   -1.8753    0.0000 N   0  0  0  0  0  0  0  0  0  0  0  0
    1.6839   -2.7003    0.0000 C   0  0  0  0  0  0  0  0  0  0  0  0
    0.9694   -3.1128    0.0000 N   0  0  0  0  0  0  0  0  0  0  0  0
    0.2549   -2.7003    0.0000 C   0  0  0  0  0  0  0  0  0  0  0  0
   -0.4596   -3.1128    0.0000 C   0  0  0  0  0  0  0  0  0  0  0  0
    0.2549   -1.8753    0.0000 C   0  0  0  0  0  0  0  0  0  0  0  0
    2.3983   -3.1128    0.0000 N   0  0  0  0  0  0  0  0  0  0  0  0
  1  2  1  0  0  0  0
  3  2  1  0  0  0  0
  4  3  2  0  0  0  0
  4  5  1  0  0  0  0
  5  6  1  0  0  0  0
  6  7  1  0  0  0  0
  6  8  1  0  0  0  0
  9  4  1  0  0  0  0
 10  9  2  0  0  0  0
 10 11  1  0  0  0  0
 11 12  1  0  0  0  0
 12 13  1  0  0  0  0
 12 14  1  0  0  0  0
 15 10  1  0  0  0  0
  2 15  2  0  0  0  0
M  END
> <ChemID>
10164

> <CAS>
139-40-2

> <Original_SMILES>
CC(C)Nc1[n]c(Cl)[n]c(NC(C)C)[n]1

> <preferred_name>
Propazine

> <dsstox_substance_id>
DTXSID3021196

> <dsstox_compound_id>
DTXCID401196

> <Canonical_QSARr>
CC(C)NC1=NC(Cl)=NC(NC(C)C)=N1

> <InChI_Code_QSARr>
InChI=1S/C9H16ClN5/c1-5(2)11-8-13-7(10)14-9(15-8)12-6(3)4/h5-6H,1-4H3,(H2,11,12,13,14,15)

> <InChI Key_QSARr>
WJNRPILHGGKWCK-UHFFFAOYSA-N

> <Salt_Solvent>


> <Salt_Solvent_ID>
0

> <Clint>
1.1643528557844371

> <Tr_1_Tst_0>
0

$$$$
Row171
  Mrv171c012261910192D          

 12 14  0  0  0  0            999 V2000
    0.0158   -0.8857    0.0000 C   0  0  0  0  0  0  0  0  0  0  0  0
    0.7694   -0.5501    0.0000 C   0  0  0  0  0  0  0  0  0  0  0  0
    1.0244    0.2345    0.0000 C   0  0  0  0  0  0  0  0  0  0  0  0
    1.8494    0.2345    0.0000 C   0  0  0  0  0  0  0  0  0  0  0  0
    2.1043   -0.5501    0.0000 C   0  0  0  0  0  0  0  0  0  0  0  0
    1.4369   -1.0350    0.0000 C   0  0  0  0  0  0  0  0  0  0  0  0
    1.3506   -1.8555    0.0000 C   0  0  0  0  0  0  0  0  0  0  0  0
    2.2768   -2.1911    0.0000 C   0  0  0  0  0  0  0  0  0  0  0  0
    2.9442   -1.7061    0.0000 C   0  0  0  0  0  0  0  0  0  0  0  0
    2.8580   -0.8857    0.0000 C   0  0  0  0  0  0  0  0  0  0  0  0
    0.5970   -2.1911    0.0000 C   0  0  0  0  0  0  0  0  0  0  0  0
   -0.0705   -1.7061    0.0000 C   0  0  0  0  0  0  0  0  0  0  0  0
  2  1  1  0  0  0  0
  2  3  1  0  0  0  0
  3  4  1  0  0  0  0
  4  5  1  0  0  0  0
  5  6  1  0  0  0  0
  6  2  2  0  0  0  0
  6  7  1  0  0  0  0
  7  8  1  0  0  0  0
  8  9  2  0  0  0  0
  9 10  1  0  0  0  0
 10  5  2  0  0  0  0
 11  7  2  0  0  0  0
 12 11  1  0  0  0  0
  1 12  2  0  0  0  0
M  END
> <ChemID>
10165

> <CAS>
83-32-9

> <Original_SMILES>
C1Cc2cccc3cccc1c23

> <preferred_name>
Acenaphthene

> <dsstox_substance_id>
DTXSID3021774

> <dsstox_compound_id>
DTXCID201774

> <Canonical_QSARr>
C1CC2=CC=CC3=CC=CC1=C23

> <InChI_Code_QSARr>
InChI=1S/C12H10/c1-3-9-4-2-6-11-8-7-10(5-1)12(9)11/h1-6H,7-8H2

> <InChI Key_QSARr>
CWRYPZZKDGJXCA-UHFFFAOYSA-N

> <Salt_Solvent>


> <Salt_Solvent_ID>
0

> <Clint>
0.6853834098014874

> <Tr_1_Tst_0>
1

$$$$
Row29
  Mrv171c012261910192D          

 17 16  0  0  0  0            999 V2000
    0.1316   -3.5849    0.0000 C   0  0  0  0  0  0  0  0  0  0  0  0
    0.5441   -2.8704    0.0000 C   0  0  0  0  0  0  0  0  0  0  0  0
    1.3691   -2.8704    0.0000 C   0  0  0  0  0  0  0  0  0  0  0  0
    1.7816   -2.1559    0.0000 C   0  0  0  0  0  0  0  0  0  0  0  0
    2.6066   -2.1559    0.0000 O   0  0  0  0  0  0  0  0  0  0  0  0
    3.0191   -1.4415    0.0000 P   0  0  0  0  0  0  0  0  0  0  0  0
    3.4316   -0.7270    0.0000 O   0  0  0  0  0  0  0  0  0  0  0  0
    4.2566   -0.7270    0.0000 C   0  0  0  0  0  0  0  0  0  0  0  0
    4.6691   -0.0125    0.0000 C   0  0  0  0  0  0  0  0  0  0  0  0
    5.4941   -0.0125    0.0000 C   0  0  0  0  0  0  0  0  0  0  0  0
    5.9066    0.7019    0.0000 C   0  0  0  0  0  0  0  0  0  0  0  0
    3.7336   -1.8540    0.0000 O   0  0  0  0  0  0  0  0  0  0  0  0
    4.4480   -1.4415    0.0000 C   0  0  0  0  0  0  0  0  0  0  0  0
    5.1625   -1.8540    0.0000 C   0  0  0  0  0  0  0  0  0  0  0  0
    5.8770   -1.4415    0.0000 C   0  0  0  0  0  0  0  0  0  0  0  0
    6.5914   -1.8540    0.0000 C   0  0  0  0  0  0  0  0  0  0  0  0
    2.3046   -1.0290    0.0000 O   0  0  0  0  0  0  0  0  0  0  0  0
  1  2  1  0  0  0  0
  2  3  1  0  0  0  0
  3  4  1  0  0  0  0
  4  5  1  0  0  0  0
  5  6  1  0  0  0  0
  6  7  1  0  0  0  0
  7  8  1  0  0  0  0
  8  9  1  0  0  0  0
  9 10  1  0  0  0  0
 10 11  1  0  0  0  0
  6 12  1  0  0  0  0
 12 13  1  0  0  0  0
 13 14  1  0  0  0  0
 14 15  1  0  0  0  0
 15 16  1  0  0  0  0
  6 17  2  0  0  0  0
M  END
> <ChemID>
10166

> <CAS>
126-73-8

> <Original_SMILES>
CCCCOP(=O)(OCCCC)OCCCC

> <preferred_name>
Tributyl phosphate

> <dsstox_substance_id>
DTXSID3021986

> <dsstox_compound_id>
DTXCID701986

> <Canonical_QSARr>
CCCCOP(=O)(OCCCC)OCCCC

> <InChI_Code_QSARr>
InChI=1S/C12H27O4P/c1-4-7-10-14-17(13,15-11-8-5-2)16-12-9-6-3/h4-12H2,1-3H3

> <InChI Key_QSARr>
STCOOQWBFONSKY-UHFFFAOYSA-N

> <Salt_Solvent>


> <Salt_Solvent_ID>
0

> <Clint>
-7.0

> <Tr_1_Tst_0>
1

$$$$
Row211
  Mrv171c012261910192D          

 11 11  0  0  0  0            999 V2000
    2.4395   -1.0928    0.0000 C   0  0  0  0  0  0  0  0  0  0  0  0
    1.7250   -0.6803    0.0000 C   0  0  0  0  0  0  0  0  0  0  0  0
    1.7250    0.1447    0.0000 C   0  0  0  0  0  0  0  0  0  0  0  0
    1.7250    0.9697    0.0000 N   0  0  0  0  0  0  0  0  0  0  0  0
    1.0105   -1.0928    0.0000 C   0  0  0  0  0  0  0  0  0  0  0  0
    1.0105   -1.9178    0.0000 C   0  0  0  0  0  0  0  0  0  0  0  0
    0.2961   -2.3303    0.0000 Br  0  0  0  0  0  0  0  0  0  0  0  0
    1.7250   -2.3303    0.0000 C   0  0  0  0  0  0  0  0  0  0  0  0
    1.7250   -3.1553    0.0000 O   0  0  0  0  0  0  0  0  0  0  0  0
    2.4395   -1.9178    0.0000 C   0  0  0  0  0  0  0  0  0  0  0  0
    3.1540   -2.3303    0.0000 Br  0  0  0  0  0  0  0  0  0  0  0  0
  2  1  1  0  0  0  0
  2  3  1  0  0  0  0
  3  4  3  0  0  0  0
  5  2  2  0  0  0  0
  6  5  1  0  0  0  0
  6  7  1  0  0  0  0
  8  6  2  0  0  0  0
  8  9  1  0  0  0  0
 10  8  1  0  0  0  0
  1 10  2  0  0  0  0
 10 11  1  0  0  0  0
M  END
> <ChemID>
10167

> <CAS>
1689-84-5

> <Original_SMILES>
N#Cc1cc(Br)c(O)c(Br)c1

> <preferred_name>
Bromoxynil

> <dsstox_substance_id>
DTXSID3022162

> <dsstox_compound_id>
DTXCID002162

> <Canonical_QSARr>
N#CC1=CC(Br)=C(O)C(Br)=C1

> <InChI_Code_QSARr>
InChI=1S/C7H3Br2NO/c8-5-1-4(3-10)2-6(9)7(5)11/h1-2,11H

> <InChI Key_QSARr>
UPMXNNIRAGDFEH-UHFFFAOYSA-N

> <Salt_Solvent>


> <Salt_Solvent_ID>
0

> <Clint>
0.8959747323590644

> <Tr_1_Tst_0>
1

$$$$
Row352
  Mrv171c012261910192D          

 23 26  0  0  0  0            999 V2000
    1.3862    0.0067    0.0000 C   0  0  0  0  0  0  0  0  0  0  0  0
    1.7461    0.7490    0.0000 C   0  0  0  0  0  0  0  0  0  0  0  0
    2.2108   -0.0201    0.0000 C   0  0  0  0  0  0  0  0  0  0  0  0
    2.7171    0.6312    0.0000 C   0  0  0  0  0  0  0  0  0  0  0  0
    3.5344    0.5183    0.0000 C   0  0  0  0  0  0  0  0  0  0  0  0
    2.4063    1.3954    0.0000 O   0  0  0  0  0  0  0  0  0  0  0  0
    2.4401   -0.8126    0.0000 C   0  0  0  0  0  0  0  0  0  0  0  0
    1.7573   -1.2756    0.0000 C   0  0  0  0  0  0  0  0  0  0  0  0
    1.1059   -0.7693    0.0000 C   0  0  0  0  0  0  0  0  0  0  0  0
    0.2938   -0.9145    0.0000 C   0  0  0  0  0  0  0  0  0  0  0  0
   -0.2380   -0.2838    0.0000 C   0  0  0  0  0  0  0  0  0  0  0  0
   -1.0501   -0.4290    0.0000 C   0  0  0  0  0  0  0  0  0  0  0  0
   -0.7698    0.3469    0.0000 C   0  0  0  0  0  0  0  0  0  0  0  0
   -1.5820    0.2017    0.0000 C   0  0  0  0  0  0  0  0  0  0  0  0
   -2.3941    0.0565    0.0000 C   0  0  0  0  0  0  0  0  0  0  0  0
   -2.6744   -0.7194    0.0000 C   0  0  0  0  0  0  0  0  0  0  0  0
   -3.4865   -0.8646    0.0000 O   0  0  0  0  0  0  0  0  0  0  0  0
   -2.1426   -1.3501    0.0000 C   0  0  0  0  0  0  0  0  0  0  0  0
   -1.3304   -1.2049    0.0000 C   0  0  0  0  0  0  0  0  0  0  0  0
   -0.7986   -1.8356    0.0000 C   0  0  0  0  0  0  0  0  0  0  0  0
    0.0135   -1.6904    0.0000 C   0  0  0  0  0  0  0  0  0  0  0  0
    0.0423    0.4922    0.0000 C   0  0  0  0  0  0  0  0  0  0  0  0
    0.8544    0.6374    0.0000 C   0  0  0  0  0  0  0  0  0  0  0  0
  1  2  1  0  0  0  0
  3  1  1  0  0  0  0
  3  4  1  0  0  0  0
  4  5  1  0  0  0  0
  4  6  2  0  0  0  0
  7  3  1  0  0  0  0
  8  7  1  0  0  0  0
  9  8  1  0  0  0  0
  9  1  1  0  0  0  0
 10  9  1  0  0  0  0
 10 11  1  0  0  0  0
 11 12  1  0  0  0  0
 12 13  1  0  0  0  0
 14 12  1  0  0  0  0
 15 14  1  0  0  0  0
 16 15  1  0  0  0  0
 16 17  2  0  0  0  0
 18 16  1  0  0  0  0
 19 18  2  0  0  0  0
 12 19  1  0  0  0  0
 19 20  1  0  0  0  0
 20 21  1  0  0  0  0
 21 10  1  0  0  0  0
 22 11  1  0  0  0  0
 23 22  1  0  0  0  0
  1 23  1  0  0  0  0
M  END
> <ChemID>
10168

> <CAS>
57-83-0

> <Original_SMILES>
CC(=O)[C@H]1CC[C@H]2[C@@H]3CCC4=CC(=O)CC[C@]4(C)[C@H]3CC[C@@]21C

> <preferred_name>
Progesterone

> <dsstox_substance_id>
DTXSID3022370

> <dsstox_compound_id>
DTXCID902370

> <Canonical_QSARr>
CC(=O)C1CCC2C3CCC4=CC(=O)CCC4(C)C3CCC21C

> <InChI_Code_QSARr>
InChI=1S/C21H30O2/c1-13(22)17-6-7-18-16-5-4-14-12-15(23)8-10-20(14,2)19(16)9-11-21(17,18)3/h12,16-19H,4-11H2,1-3H3

> <InChI Key_QSARr>
RJKFOVLPORLFTN-UHFFFAOYSA-N

> <Salt_Solvent>


> <Salt_Solvent_ID>
0

> <Clint>
1.5276299008713385

> <Tr_1_Tst_0>
1

$$$$
Row518
  Mrv171c012261910192D          

 14 14  0  0  0  0            999 V2000
    1.5038   -2.3082    0.0000 C   0  0  0  0  0  0  0  0  0  0  0  0
    0.7893   -1.8957    0.0000 C   0  0  0  0  0  0  0  0  0  0  0  0
    0.0748   -2.3082    0.0000 O   0  0  0  0  0  0  0  0  0  0  0  0
   -0.6397   -1.8957    0.0000 C   0  0  0  0  0  0  0  0  0  0  0  0
    0.7893   -1.0707    0.0000 O   0  0  0  0  0  0  0  0  0  0  0  0
    1.5038   -3.1332    0.0000 C   0  0  0  0  0  0  0  0  0  0  0  0
    2.2182   -3.5457    0.0000 C   0  0  0  0  0  0  0  0  0  0  0  0
    2.9327   -3.1332    0.0000 C   0  0  0  0  0  0  0  0  0  0  0  0
    2.9327   -2.3082    0.0000 C   0  0  0  0  0  0  0  0  0  0  0  0
    2.2182   -1.8957    0.0000 C   0  0  0  0  0  0  0  0  0  0  0  0
    2.2182   -1.0707    0.0000 C   0  0  0  0  0  0  0  0  0  0  0  0
    2.9327   -0.6582    0.0000 O   0  0  0  0  0  0  0  0  0  0  0  0
    2.9327    0.1668    0.0000 C   0  0  0  0  0  0  0  0  0  0  0  0
    1.5038   -0.6582    0.0000 O   0  0  0  0  0  0  0  0  0  0  0  0
  1  2  1  0  0  0  0
  2  3  1  0  0  0  0
  3  4  1  0  0  0  0
  2  5  2  0  0  0  0
  6  1  1  0  0  0  0
  7  6  2  0  0  0  0
  8  7  1  0  0  0  0
  9  8  2  0  0  0  0
 10  9  1  0  0  0  0
  1 10  2  0  0  0  0
 10 11  1  0  0  0  0
 11 12  1  0  0  0  0
 12 13  1  0  0  0  0
 11 14  2  0  0  0  0
M  END
> <ChemID>
10169

> <CAS>
131-11-3

> <Original_SMILES>
COC(=O)c1ccccc1C(=O)OC

> <preferred_name>
Dimethyl phthalate

> <dsstox_substance_id>
DTXSID3022455

> <dsstox_compound_id>
DTXCID502455

> <Canonical_QSARr>
COC(=O)C1C=CC=CC=1C(=O)OC

> <InChI_Code_QSARr>
InChI=1S/C10H10O4/c1-13-9(11)7-5-3-4-6-8(7)10(12)14-2/h3-6H,1-2H3

> <InChI Key_QSARr>
NIQCNGHVCWTJSM-UHFFFAOYSA-N

> <Salt_Solvent>


> <Salt_Solvent_ID>
0

> <Clint>
1.3475251599986895

> <Tr_1_Tst_0>
0

$$$$
Row58
  Mrv171c012261910192D          

 32 34  0  0  0  0            999 V2000
    1.2753   -5.7844    0.0000 N   0  0  0  0  0  0  0  0  0  0  0  0
    0.5608   -5.3719    0.0000 C   0  0  0  0  0  0  0  0  0  0  0  0
   -0.1536   -5.7844    0.0000 N   0  0  0  0  0  0  0  0  0  0  0  0
    0.5608   -4.5469    0.0000 N   0  0  0  0  0  0  0  0  0  0  0  0
    1.2753   -4.1344    0.0000 C   0  0  0  0  0  0  0  0  0  0  0  0
    1.2753   -3.3094    0.0000 N   0  0  0  0  0  0  0  0  0  0  0  0
    1.9898   -2.8969    0.0000 C   0  0  0  0  0  0  0  0  0  0  0  0
    2.7042   -3.3094    0.0000 C   0  0  0  0  0  0  0  0  0  0  0  0
    3.4187   -2.8969    0.0000 C   0  0  0  0  0  0  0  0  0  0  0  0
    4.1332   -3.3094    0.0000 N   0  0  0  0  0  0  0  0  0  0  0  0
    4.8476   -2.8969    0.0000 C   0  0  0  0  0  0  0  0  0  0  0  0
    5.5621   -3.3094    0.0000 C   0  0  0  0  0  0  0  0  0  0  0  0
    6.2766   -2.8969    0.0000 C   0  0  0  0  0  0  0  0  0  0  0  0
    6.2766   -2.0719    0.0000 C   0  0  0  0  0  0  0  0  0  0  0  0
    6.9911   -1.6594    0.0000 C   0  0  0  0  0  0  0  0  0  0  0  0
    6.9911   -0.8344    0.0000 O   0  0  0  0  0  0  0  0  0  0  0  0
    7.7055   -2.0719    0.0000 N   0  0  0  0  0  0  0  0  0  0  0  0
    8.4200   -1.6594    0.0000 C   0  0  0  0  0  0  0  0  0  0  0  0
    9.1345   -2.0719    0.0000 C   0  0  0  0  0  0  0  0  0  0  0  0
    9.8489   -1.6594    0.0000 C   0  0  0  0  0  0  0  0  0  0  0  0
   10.5634   -2.0719    0.0000 C   0  0  0  0  0  0  0  0  0  0  0  0
   11.2779   -1.6594    0.0000 O   0  0  0  0  0  0  0  0  0  0  0  0
   10.5634   -2.8969    0.0000 O   0  0  0  0  0  0  0  0  0  0  0  0
    8.4200   -0.8344    0.0000 C   0  0  0  0  0  0  0  0  0  0  0  0
    9.1345   -0.4219    0.0000 O   0  0  0  0  0  0  0  0  0  0  0  0
    7.7055   -0.4219    0.0000 O   0  0  0  0  0  0  0  0  0  0  0  0
    5.5621   -1.6594    0.0000 C   0  0  0  0  0  0  0  0  0  0  0  0
    4.8476   -2.0719    0.0000 C   0  0  0  0  0  0  0  0  0  0  0  0
    2.7042   -4.1344    0.0000 N   0  0  0  0  0  0  0  0  0  0  0  0
    1.9898   -4.5469    0.0000 C   0  0  0  0  0  0  0  0  0  0  0  0
    1.9898   -5.3719    0.0000 C   0  0  0  0  0  0  0  0  0  0  0  0
    2.7042   -5.7844    0.0000 N   0  0  0  0  0  0  0  0  0  0  0  0
  2  1  2  0  0  0  0
  2  3  1  0  0  0  0
  4  2  1  0  0  0  0
  5  4  2  0  0  0  0
  5  6  1  0  0  0  0
  6  7  2  0  0  0  0
  7  8  1  0  0  0  0
  8  9  1  0  0  0  0
  9 10  1  0  0  0  0
 10 11  1  0  0  0  0
 12 11  1  0  0  0  0
 13 12  2  0  0  0  0
 14 13  1  0  0  0  0
 14 15  1  0  0  0  0
 15 16  2  0  0  0  0
 15 17  1  0  0  0  0
 17 18  1  0  0  0  0
 18 19  1  0  0  0  0
 19 20  1  0  0  0  0
 20 21  1  0  0  0  0
 21 22  1  0  0  0  0
 21 23  2  0  0  0  0
 18 24  1  0  0  0  0
 24 25  1  0  0  0  0
 24 26  2  0  0  0  0
 27 14  2  0  0  0  0
 28 27  1  0  0  0  0
 11 28  2  0  0  0  0
  8 29  2  0  0  0  0
 29 30  1  0  0  0  0
 30  5  1  0  0  0  0
 31 30  2  0  0  0  0
  1 31  1  0  0  0  0
 31 32  1  0  0  0  0
M  END
> <ChemID>
10170

> <CAS>
54-62-6

> <Original_SMILES>
Nc1[n]c2[n]cc(CNc3ccc(cc3)C(=O)N[C@@H](CCC(O)=O)C(O)=O)[n]c2c(N)[n]1

> <preferred_name>
4-Aminofolic acid

> <dsstox_substance_id>
DTXSID3022588

> <dsstox_compound_id>
DTXCID802588

> <Canonical_QSARr>
NC1N=C(N)N=C2N=CC(CNC3C=CC(=CC=3)C(=O)NC(CCC(O)=O)C(O)=O)=NC=12

> <InChI_Code_QSARr>
InChI=1S/C19H20N8O5/c20-15-14-16(27-19(21)26-15)23-8-11(24-14)7-22-10-3-1-9(2-4-10)17(30)25-12(18(31)32)5-6-13(28)29/h1-4,8,12,22H,5-7H2,(H,25,30)(H,28,29)(H,31,32)(H4,20,21,23,26,27)

> <InChI Key_QSARr>
TVZGACDUOSZQKY-UHFFFAOYSA-N

> <Salt_Solvent>


> <Salt_Solvent_ID>
0

> <Clint>
-7.0

> <Tr_1_Tst_0>
1

$$$$
Row121
  Mrv171c012261910192D          

 27 29  0  0  0  0            999 V2000
    2.7975   -1.7468    0.0000 N   0  0  0  0  0  0  0  0  0  0  0  0
    2.6257   -2.5537    0.0000 C   0  0  0  0  0  0  0  0  0  0  0  0
    1.8410   -2.8083    0.0000 C   0  0  0  0  0  0  0  0  0  0  0  0
    1.6691   -3.6152    0.0000 C   0  0  0  0  0  0  0  0  0  0  0  0
    2.2820   -4.1675    0.0000 C   0  0  0  0  0  0  0  0  0  0  0  0
    3.0667   -3.9128    0.0000 C   0  0  0  0  0  0  0  0  0  0  0  0
    3.2386   -3.1059    0.0000 C   0  0  0  0  0  0  0  0  0  0  0  0
    2.1847   -1.1945    0.0000 C   0  0  0  0  0  0  0  0  0  0  0  0
    1.3999   -1.4491    0.0000 C   0  0  0  0  0  0  0  0  0  0  0  0
    0.7871   -0.8969    0.0000 C   0  0  0  0  0  0  0  0  0  0  0  0
    0.0023   -1.1515    0.0000 C   0  0  0  0  0  0  0  0  0  0  0  0
   -0.1695   -1.9584    0.0000 C   0  0  0  0  0  0  0  0  0  0  0  0
    0.4434   -2.5107    0.0000 C   0  0  0  0  0  0  0  0  0  0  0  0
    1.2281   -2.2560    0.0000 C   0  0  0  0  0  0  0  0  0  0  0  0
    3.5823   -1.4921    0.0000 C   0  0  0  0  0  0  0  0  0  0  0  0
    4.1951   -2.0444    0.0000 C   0  0  0  0  0  0  0  0  0  0  0  0
    4.8628   -1.5597    0.0000 C   0  0  0  0  0  0  0  0  0  0  0  0
    5.6163   -1.8956    0.0000 O   0  0  0  0  0  0  0  0  0  0  0  0
    6.2839   -1.4109    0.0000 C   0  0  0  0  0  0  0  0  0  0  0  0
    7.0375   -1.7468    0.0000 C   0  0  0  0  0  0  0  0  0  0  0  0
    7.7051   -1.2621    0.0000 C   0  0  0  0  0  0  0  0  0  0  0  0
    7.1234   -2.5673    0.0000 C   0  0  0  0  0  0  0  0  0  0  0  0
    4.2811   -2.8649    0.0000 N   0  0  0  0  0  0  0  0  0  0  0  0
    3.6677   -3.4167    0.0000 C   0  0  0  0  0  0  0  0  0  0  0  0
    4.0030   -4.1705    0.0000 C   0  0  0  0  0  0  0  0  0  0  0  0
    4.8235   -4.0846    0.0000 C   0  0  0  0  0  0  0  0  0  0  0  0
    4.9954   -3.2777    0.0000 C   0  0  0  0  0  0  0  0  0  0  0  0
  1  2  1  0  0  0  0
  3  2  2  0  0  0  0
  4  3  1  0  0  0  0
  5  4  2  0  0  0  0
  6  5  1  0  0  0  0
  7  6  2  0  0  0  0
  2  7  1  0  0  0  0
  1  8  1  0  0  0  0
  8  9  1  0  0  0  0
 10  9  1  0  0  0  0
 11 10  2  0  0  0  0
 12 11  1  0  0  0  0
 13 12  2  0  0  0  0
 14 13  1  0  0  0  0
  9 14  2  0  0  0  0
  1 15  1  0  0  0  0
 15 16  1  0  0  0  0
 16 17  1  0  0  0  0
 17 18  1  0  0  0  0
 18 19  1  0  0  0  0
 19 20  1  0  0  0  0
 20 21  1  0  0  0  0
 20 22  1  0  0  0  0
 16 23  1  0  0  0  0
 24 23  1  0  0  0  0
 25 24  1  0  0  0  0
 26 25  1  0  0  0  0
 27 26  1  0  0  0  0
 23 27  1  0  0  0  0
M  END
> <ChemID>
10171

> <CAS>
64706-54-3

> <Original_SMILES>
CC(C)COCC(CN(Cc1ccccc1)c1ccccc1)N1CCCC1

> <preferred_name>
Bepridil

> <dsstox_substance_id>
DTXSID3022663

> <dsstox_compound_id>
DTXCID402663

> <Canonical_QSARr>
CC(C)COCC(CN(CC1=CC=CC=C1)C1=CC=CC=C1)N1CCCC1

> <InChI_Code_QSARr>
InChI=1S/C24H34N2O/c1-21(2)19-27-20-24(25-15-9-10-16-25)18-26(23-13-7-4-8-14-23)17-22-11-5-3-6-12-22/h3-8,11-14,21,24H,9-10,15-20H2,1-2H3

> <InChI Key_QSARr>
UIEATEWHFDRYRU-UHFFFAOYSA-N

> <Salt_Solvent>


> <Salt_Solvent_ID>
0

> <Clint>
0.30102999566398114

> <Tr_1_Tst_0>
1

$$$$
Row208
  Mrv171c012261910192D          

 20 23  0  0  0  0            999 V2000
    1.4669   -2.5401    0.0000 C   0  0  0  0  0  0  0  0  0  0  0  0
    2.2022   -2.9142    0.0000 C   0  0  0  0  0  0  0  0  0  0  0  0
    3.1261   -2.4865    0.0000 C   0  0  0  0  0  0  0  0  0  0  0  0
    2.8501   -1.6406    0.0000 C   0  0  0  0  0  0  0  0  0  0  0  0
    2.0927   -1.4988    0.0000 C   0  0  0  0  0  0  0  0  0  0  0  0
    1.4232   -1.7163    0.0000 C   0  0  0  0  0  0  0  0  0  0  0  0
    0.8339   -0.4793    0.0000 C   0  0  0  0  0  0  0  0  0  0  0  0
    0.1980   -1.0049    0.0000 N   0  0  0  0  0  0  0  0  0  0  0  0
   -0.5309   -0.6185    0.0000 C   0  0  0  0  0  0  0  0  0  0  0  0
    0.1200   -1.8262    0.0000 C   0  0  0  0  0  0  0  0  0  0  0  0
    0.6456   -2.4621    0.0000 C   0  0  0  0  0  0  0  0  0  0  0  0
    1.6552   -0.5573    0.0000 C   0  0  0  0  0  0  0  0  0  0  0  0
    2.1808   -1.1933    0.0000 C   0  0  0  0  0  0  0  0  0  0  0  0
    2.9311   -0.8502    0.0000 C   0  0  0  0  0  0  0  0  0  0  0  0
    3.6034   -1.3284    0.0000 C   0  0  0  0  0  0  0  0  0  0  0  0
    3.5253   -2.1497    0.0000 C   0  0  0  0  0  0  0  0  0  0  0  0
    4.1976   -2.6279    0.0000 O   0  0  0  0  0  0  0  0  0  0  0  0
    4.9479   -2.2849    0.0000 C   0  0  0  0  0  0  0  0  0  0  0  0
    2.7750   -2.4928    0.0000 C   0  0  0  0  0  0  0  0  0  0  0  0
    2.1028   -2.0146    0.0000 C   0  0  0  0  0  0  0  0  0  0  0  0
  2  1  1  0  0  0  0
  3  2  1  0  0  0  0
  4  3  1  0  0  0  0
  5  4  1  0  0  0  0
  6  5  1  0  0  0  0
  6  1  1  0  0  0  0
  7  6  1  0  0  0  0
  7  8  1  0  0  0  0
  8  9  1  0  0  0  0
  8 10  1  0  0  0  0
 10 11  1  0  0  0  0
 11  1  1  0  0  0  0
 12  7  1  0  0  0  0
 13 12  1  0  0  0  0
 13 14  1  0  0  0  0
 14 15  2  0  0  0  0
 15 16  1  0  0  0  0
 16 17  1  0  0  0  0
 17 18  1  0  0  0  0
 16 19  2  0  0  0  0
 19 20  1  0  0  0  0
  1 20  1  0  0  0  0
 20 13  2  0  0  0  0
M  END
> <ChemID>
10172

> <CAS>
125-71-3

> <Original_SMILES>
CN1CC[C@@]23CCCC[C@@H]2[C@@H]1Cc1ccc(cc31)OC

> <preferred_name>
Dextromethorphan

> <dsstox_substance_id>
DTXSID3022908

> <dsstox_compound_id>
DTXCID202908

> <Canonical_QSARr>
COC1C=CC2CC3C4CCCCC4(CCN3C)C=2C=1

> <InChI_Code_QSARr>
InChI=1S/C18H25NO/c1-19-10-9-18-8-4-3-5-15(18)17(19)11-13-6-7-14(20-2)12-16(13)18/h6-7,12,15,17H,3-5,8-11H2,1-2H3

> <InChI Key_QSARr>
MKXZASYAUGDDCJ-UHFFFAOYSA-N

> <Salt_Solvent>


> <Salt_Solvent_ID>
0

> <Clint>
0.8808135922807911

> <Tr_1_Tst_0>
1

$$$$
Row61
  Mrv171c012261910192D          

 22 23  0  0  0  0            999 V2000
    4.5374   -2.8861    0.0000 C   0  0  0  0  0  0  0  0  0  0  0  0
    3.8229   -2.4736    0.0000 C   0  0  0  0  0  0  0  0  0  0  0  0
    3.8229   -1.6486    0.0000 O   0  0  0  0  0  0  0  0  0  0  0  0
    3.1085   -1.2361    0.0000 C   0  0  0  0  0  0  0  0  0  0  0  0
    3.1085   -0.4111    0.0000 C   0  0  0  0  0  0  0  0  0  0  0  0
    3.8229    0.0014    0.0000 O   0  0  0  0  0  0  0  0  0  0  0  0
    2.3940    0.0014    0.0000 C   0  0  0  0  0  0  0  0  0  0  0  0
    2.3940    0.8264    0.0000 N   0  0  0  0  0  0  0  0  0  0  0  0
    1.6795    1.2389    0.0000 C   0  0  0  0  0  0  0  0  0  0  0  0
    0.9651    1.6514    0.0000 C   0  0  0  0  0  0  0  0  0  0  0  0
    1.2670    0.5244    0.0000 C   0  0  0  0  0  0  0  0  0  0  0  0
    2.0920    1.9534    0.0000 C   0  0  0  0  0  0  0  0  0  0  0  0
    3.1085   -2.8861    0.0000 C   0  0  0  0  0  0  0  0  0  0  0  0
    3.1085   -3.7111    0.0000 C   0  0  0  0  0  0  0  0  0  0  0  0
    3.8229   -4.1236    0.0000 C   0  0  0  0  0  0  0  0  0  0  0  0
    4.5374   -3.7111    0.0000 C   0  0  0  0  0  0  0  0  0  0  0  0
    5.2519   -4.1236    0.0000 C   0  0  0  0  0  0  0  0  0  0  0  0
    5.9664   -3.7111    0.0000 C   0  0  0  0  0  0  0  0  0  0  0  0
    6.6808   -4.1236    0.0000 O   0  0  0  0  0  0  0  0  0  0  0  0
    5.9664   -2.8861    0.0000 C   0  0  0  0  0  0  0  0  0  0  0  0
    6.6808   -2.4736    0.0000 O   0  0  0  0  0  0  0  0  0  0  0  0
    5.2519   -2.4736    0.0000 C   0  0  0  0  0  0  0  0  0  0  0  0
  2  1  1  0  0  0  0
  2  3  1  0  0  0  0
  3  4  1  0  0  0  0
  4  5  1  0  0  0  0
  5  6  1  0  0  0  0
  5  7  1  0  0  0  0
  7  8  1  0  0  0  0
  8  9  1  0  0  0  0
  9 10  1  0  0  0  0
  9 11  1  0  0  0  0
  9 12  1  0  0  0  0
 13  2  2  0  0  0  0
 14 13  1  0  0  0  0
 15 14  2  0  0  0  0
 16 15  1  0  0  0  0
 16  1  2  0  0  0  0
 17 16  1  0  0  0  0
 18 17  1  0  0  0  0
 18 19  1  0  0  0  0
 20 18  1  0  0  0  0
 20 21  1  0  0  0  0
 22 20  1  0  0  0  0
  1 22  1  0  0  0  0
M  END
> <ChemID>
10173

> <CAS>
42200-33-9

> <Original_SMILES>
CC(C)(C)NCC(O)COc1cccc2C[C@@H](O)[C@@H](O)Cc21

> <preferred_name>
Nadolol

> <dsstox_substance_id>
DTXSID3023342

> <dsstox_compound_id>
DTXCID903342

> <Canonical_QSARr>
CC(C)(C)NCC(O)COC1=CC=CC2CC(O)C(O)CC=21

> <InChI_Code_QSARr>
InChI=1S/C17H27NO4/c1-17(2,3)18-9-12(19)10-22-16-6-4-5-11-7-14(20)15(21)8-13(11)16/h4-6,12,14-15,18-21H,7-10H2,1-3H3

> <InChI Key_QSARr>
VWPOSFSPZNDTMJ-UHFFFAOYSA-N

> <Salt_Solvent>


> <Salt_Solvent_ID>
0

> <Clint>
-6.443697499232711

> <Tr_1_Tst_0>
1

$$$$
Row442
  Mrv171c012261910192D          

 20 21  0  0  0  0            999 V2000
    3.1538   -3.6499    0.0000 C   0  0  0  0  0  0  0  0  0  0  0  0
    3.1538   -2.8249    0.0000 C   0  0  0  0  0  0  0  0  0  0  0  0
    3.8683   -2.4124    0.0000 C   0  0  0  0  0  0  0  0  0  0  0  0
    2.4394   -2.4124    0.0000 C   0  0  0  0  0  0  0  0  0  0  0  0
    2.4394   -1.5874    0.0000 C   0  0  0  0  0  0  0  0  0  0  0  0
    1.7249   -1.1749    0.0000 C   0  0  0  0  0  0  0  0  0  0  0  0
    1.7249   -0.3499    0.0000 C   0  0  0  0  0  0  0  0  0  0  0  0
    1.0104    0.0626    0.0000 C   0  0  0  0  0  0  0  0  0  0  0  0
    0.2959   -0.3499    0.0000 C   0  0  0  0  0  0  0  0  0  0  0  0
    0.2959   -1.1749    0.0000 C   0  0  0  0  0  0  0  0  0  0  0  0
    1.0104   -1.5874    0.0000 C   0  0  0  0  0  0  0  0  0  0  0  0
    3.1538   -1.1749    0.0000 O   0  0  0  0  0  0  0  0  0  0  0  0
    3.8683   -1.5874    0.0000 C   0  0  0  0  0  0  0  0  0  0  0  0
    4.5828   -1.1749    0.0000 C   0  0  0  0  0  0  0  0  0  0  0  0
    5.2972   -1.5874    0.0000 N   0  0  0  0  0  0  0  0  0  0  0  0
    6.0117   -1.1749    0.0000 C   0  0  0  0  0  0  0  0  0  0  0  0
    5.2972   -2.4124    0.0000 C   0  0  0  0  0  0  0  0  0  0  0  0
    1.7249   -2.8249    0.0000 C   0  0  0  0  0  0  0  0  0  0  0  0
    1.7249   -3.6499    0.0000 C   0  0  0  0  0  0  0  0  0  0  0  0
    2.4394   -4.0624    0.0000 C   0  0  0  0  0  0  0  0  0  0  0  0
  2  1  1  0  0  0  0
  2  3  1  0  0  0  0
  4  2  2  0  0  0  0
  4  5  1  0  0  0  0
  5  6  1  0  0  0  0
  7  6  1  0  0  0  0
  8  7  2  0  0  0  0
  9  8  1  0  0  0  0
 10  9  2  0  0  0  0
 11 10  1  0  0  0  0
  6 11  2  0  0  0  0
  5 12  1  0  0  0  0
 12 13  1  0  0  0  0
 13 14  1  0  0  0  0
 14 15  1  0  0  0  0
 15 16  1  0  0  0  0
 15 17  1  0  0  0  0
 18  4  1  0  0  0  0
 19 18  2  0  0  0  0
 20 19  1  0  0  0  0
  1 20  2  0  0  0  0
M  END
> <ChemID>
10174

> <CAS>
83-98-7

> <Original_SMILES>
Cc1ccccc1C(OCCN(C)C)c1ccccc1

> <preferred_name>
Orphenadrine

> <dsstox_substance_id>
DTXSID3023396

> <dsstox_compound_id>
DTXCID003396

> <Canonical_QSARr>
CC1C=CC=CC=1C(OCCN(C)C)C1C=CC=CC=1

> <InChI_Code_QSARr>
InChI=1S/C18H23NO/c1-15-9-7-8-12-17(15)18(20-14-13-19(2)3)16-10-5-4-6-11-16/h4-12,18H,13-14H2,1-3H3

> <InChI Key_QSARr>
QVYRGXJJSLMXQH-UHFFFAOYSA-N

> <Salt_Solvent>


> <Salt_Solvent_ID>
0

> <Clint>
-0.1408617027054692

> <Tr_1_Tst_0>
0

$$$$
Row111
  Mrv171c012261910192D          

 20 22  0  0  0  0            999 V2000
    4.7280   -1.4102    0.0000 C   0  0  0  0  0  0  0  0  0  0  0  0
    4.4577   -0.6307    0.0000 C   0  0  0  0  0  0  0  0  0  0  0  0
    5.3858   -0.9122    0.0000 C   0  0  0  0  0  0  0  0  0  0  0  0
    6.0626   -1.3839    0.0000 C   0  0  0  0  0  0  0  0  0  0  0  0
    5.8232   -2.1733    0.0000 N   0  0  0  0  0  0  0  0  0  0  0  0
    6.3212   -2.8311    0.0000 C   0  0  0  0  0  0  0  0  0  0  0  0
    4.9984   -2.1896    0.0000 C   0  0  0  0  0  0  0  0  0  0  0  0
    4.3406   -2.6876    0.0000 N   0  0  0  0  0  0  0  0  0  0  0  0
    4.3569   -3.5124    0.0000 C   0  0  0  0  0  0  0  0  0  0  0  0
    3.6638   -2.2159    0.0000 C   0  0  0  0  0  0  0  0  0  0  0  0
    2.8603   -2.4033    0.0000 C   0  0  0  0  0  0  0  0  0  0  0  0
    2.2963   -1.8012    0.0000 C   0  0  0  0  0  0  0  0  0  0  0  0
    2.5357   -1.0117    0.0000 C   0  0  0  0  0  0  0  0  0  0  0  0
    1.9717   -0.4096    0.0000 O   0  0  0  0  0  0  0  0  0  0  0  0
    1.1683   -0.5970    0.0000 C   0  0  0  0  0  0  0  0  0  0  0  0
    0.6043    0.0050    0.0000 N   0  0  0  0  0  0  0  0  0  0  0  0
   -0.1991   -0.1824    0.0000 C   0  0  0  0  0  0  0  0  0  0  0  0
    0.9289   -1.3865    0.0000 O   0  0  0  0  0  0  0  0  0  0  0  0
    3.3392   -0.8243    0.0000 C   0  0  0  0  0  0  0  0  0  0  0  0
    3.9032   -1.4264    0.0000 C   0  0  0  0  0  0  0  0  0  0  0  0
  1  2  1  0  0  0  0
  3  1  1  0  0  0  0
  4  3  1  0  0  0  0
  5  4  1  0  0  0  0
  5  6  1  0  0  0  0
  7  5  1  0  0  0  0
  7  1  1  0  0  0  0
  8  7  1  0  0  0  0
  8  9  1  0  0  0  0
 10  8  1  0  0  0  0
 10 11  1  0  0  0  0
 11 12  2  0  0  0  0
 12 13  1  0  0  0  0
 13 14  1  0  0  0  0
 14 15  1  0  0  0  0
 15 16  1  0  0  0  0
 16 17  1  0  0  0  0
 15 18  2  0  0  0  0
 13 19  2  0  0  0  0
 19 20  1  0  0  0  0
  1 20  1  0  0  0  0
 20 10  2  0  0  0  0
M  END
> <ChemID>
10175

> <CAS>
57-47-6

> <Original_SMILES>
CN1CC[C@]2(C)[C@H]1N(C)c1ccc(cc21)OC(=O)NC

> <preferred_name>
Physostigmine

> <dsstox_substance_id>
DTXSID3023471

> <dsstox_compound_id>
DTXCID603471

> <Canonical_QSARr>
CN1CCC2(C)C1N(C)C1C=CC(=CC2=1)OC(=O)NC

> <InChI_Code_QSARr>
InChI=1S/C15H21N3O2/c1-15-7-8-17(3)13(15)18(4)12-6-5-10(9-11(12)15)20-14(19)16-2/h5-6,9,13H,7-8H2,1-4H3,(H,16,19)

> <InChI Key_QSARr>
PIJVFDBKTWXHHD-UHFFFAOYSA-N

> <Salt_Solvent>


> <Salt_Solvent_ID>
0

> <Clint>
0.21484384804769785

> <Tr_1_Tst_0>
1

$$$$
Row167
  Mrv171c012261910192D          

 21 23  0  0  0  0            999 V2000
   -0.1067    2.4134    0.0000 C   0  0  0  0  0  0  0  0  0  0  0  0
    0.6078    2.0009    0.0000 C   0  0  0  0  0  0  0  0  0  0  0  0
    1.3222    2.4134    0.0000 C   0  0  0  0  0  0  0  0  0  0  0  0
    2.0367    2.0009    0.0000 C   0  0  0  0  0  0  0  0  0  0  0  0
    2.0367    1.1759    0.0000 C   0  0  0  0  0  0  0  0  0  0  0  0
    1.3222    0.7634    0.0000 C   0  0  0  0  0  0  0  0  0  0  0  0
    0.6078    1.1759    0.0000 C   0  0  0  0  0  0  0  0  0  0  0  0
    2.7512    0.7634    0.0000 C   0  0  0  0  0  0  0  0  0  0  0  0
    2.7512   -0.0616    0.0000 C   0  0  0  0  0  0  0  0  0  0  0  0
    3.4656   -0.4741    0.0000 C   0  0  0  0  0  0  0  0  0  0  0  0
    3.4656   -1.2991    0.0000 N   0  0  0  0  0  0  0  0  0  0  0  0
    4.1331   -1.7840    0.0000 C   0  0  0  0  0  0  0  0  0  0  0  0
    3.8781   -2.5687    0.0000 C   0  0  0  0  0  0  0  0  0  0  0  0
    3.0531   -2.5687    0.0000 C   0  0  0  0  0  0  0  0  0  0  0  0
    2.7982   -1.7840    0.0000 C   0  0  0  0  0  0  0  0  0  0  0  0
    3.4656    1.1759    0.0000 C   0  0  0  0  0  0  0  0  0  0  0  0
    3.4656    2.0009    0.0000 C   0  0  0  0  0  0  0  0  0  0  0  0
    4.1801    2.4134    0.0000 C   0  0  0  0  0  0  0  0  0  0  0  0
    4.8946    2.0009    0.0000 C   0  0  0  0  0  0  0  0  0  0  0  0
    4.8946    1.1759    0.0000 C   0  0  0  0  0  0  0  0  0  0  0  0
    4.1801    0.7634    0.0000 N   0  0  0  0  0  0  0  0  0  0  0  0
  1  2  1  0  0  0  0
  2  3  2  0  0  0  0
  3  4  1  0  0  0  0
  4  5  2  0  0  0  0
  5  6  1  0  0  0  0
  6  7  2  0  0  0  0
  2  7  1  0  0  0  0
  5  8  1  0  0  0  0
  8  9  2  0  0  0  0
  9 10  1  4  0  0  0
 10 11  1  0  0  0  0
 11 12  1  0  0  0  0
 12 13  1  0  0  0  0
 13 14  1  0  0  0  0
 14 15  1  0  0  0  0
 11 15  1  0  0  0  0
  8 16  1  0  0  0  0
 16 17  2  0  0  0  0
 17 18  1  0  0  0  0
 18 19  2  0  0  0  0
 19 20  1  0  0  0  0
 20 21  2  0  0  0  0
 16 21  1  0  0  0  0
M  END
> <ChemID>
10176

> <CAS>
486-12-4

> <Original_SMILES>
Cc1ccc(cc1)/C(=C\CN1CCCC1)/c1cccc[n]1

> <preferred_name>
Triprolidine

> <dsstox_substance_id>
DTXSID3023718

> <dsstox_compound_id>
DTXCID203718

> <Canonical_QSARr>
CC1=CC=C(C=C1)C(=CCN1CCCC1)C1=CC=CC=N1

> <InChI_Code_QSARr>
InChI=1S/C19H22N2/c1-16-7-9-17(10-8-16)18(19-6-2-3-12-20-19)11-15-21-13-4-5-14-21/h2-3,6-12H,4-5,13-15H2,1H3

> <InChI Key_QSARr>
CBEQULMOCCWAQT-UHFFFAOYSA-N

> <Salt_Solvent>


> <Salt_Solvent_ID>
0

> <Clint>
0.6334684555795864

> <Tr_1_Tst_0>
1

$$$$
Row495
  Mrv171c012261910192D          

 12 14  0  0  0  0            999 V2000
    1.0219   -0.0469    0.0000 C   0  0  0  0  0  0  0  0  0  0  0  0
    0.7670   -0.8315    0.0000 C   0  0  0  0  0  0  0  0  0  0  0  0
    1.4344   -1.3165    0.0000 C   0  0  0  0  0  0  0  0  0  0  0  0
    1.3482   -2.1369    0.0000 C   0  0  0  0  0  0  0  0  0  0  0  0
    0.5945   -2.4725    0.0000 C   0  0  0  0  0  0  0  0  0  0  0  0
   -0.0729   -1.9876    0.0000 C   0  0  0  0  0  0  0  0  0  0  0  0
    0.0133   -1.1671    0.0000 C   0  0  0  0  0  0  0  0  0  0  0  0
    2.2743   -2.4725    0.0000 C   0  0  0  0  0  0  0  0  0  0  0  0
    2.9418   -1.9876    0.0000 C   0  0  0  0  0  0  0  0  0  0  0  0
    2.8555   -1.1671    0.0000 C   0  0  0  0  0  0  0  0  0  0  0  0
    2.1019   -0.8315    0.0000 C   0  0  0  0  0  0  0  0  0  0  0  0
    1.8469   -0.0469    0.0000 C   0  0  0  0  0  0  0  0  0  0  0  0
  2  1  1  0  0  0  0
  2  3  2  0  0  0  0
  3  4  1  0  0  0  0
  4  5  2  0  0  0  0
  5  6  1  0  0  0  0
  6  7  2  0  0  0  0
  7  2  1  0  0  0  0
  4  8  1  0  0  0  0
  8  9  2  0  0  0  0
  9 10  1  0  0  0  0
 10 11  2  0  0  0  0
 11  3  1  0  0  0  0
 12 11  1  0  0  0  0
  1 12  2  0  0  0  0
M  END
> <ChemID>
10177

> <CAS>
208-96-8

> <Original_SMILES>
c1ccc2C=Cc3cccc1c32

> <preferred_name>
Acenaphthylene

> <dsstox_substance_id>
DTXSID3023845

> <dsstox_compound_id>
DTXCID103845

> <Canonical_QSARr>
C1=CC=C2C=CC=C3C=CC1=C32

> <InChI_Code_QSARr>
InChI=1S/C12H8/c1-3-9-4-2-6-11-8-7-10(5-1)12(9)11/h1-8H

> <InChI Key_QSARr>
HXGDTGSAIMULJN-UHFFFAOYSA-N

> <Salt_Solvent>


> <Salt_Solvent_ID>
0

> <Clint>
1.0928609433388172

> <Tr_1_Tst_0>
0

$$$$
Row269
  Mrv171c012261910192D          

 20 21  0  0  0  0            999 V2000
    2.1472   -1.2559    0.0000 C   0  0  0  0  0  0  0  0  0  0  0  0
    2.8617   -0.8434    0.0000 O   0  0  0  0  0  0  0  0  0  0  0  0
    3.5761   -1.2559    0.0000 C   0  0  0  0  0  0  0  0  0  0  0  0
    3.5761   -2.0809    0.0000 C   0  0  0  0  0  0  0  0  0  0  0  0
    4.2906   -2.4934    0.0000 C   0  0  0  0  0  0  0  0  0  0  0  0
    5.0051   -2.0809    0.0000 C   0  0  0  0  0  0  0  0  0  0  0  0
    5.7195   -2.4934    0.0000 Cl  0  0  0  0  0  0  0  0  0  0  0  0
    5.0051   -1.2559    0.0000 C   0  0  0  0  0  0  0  0  0  0  0  0
    4.2906   -0.8434    0.0000 C   0  0  0  0  0  0  0  0  0  0  0  0
    1.4327   -0.8434    0.0000 C   0  0  0  0  0  0  0  0  0  0  0  0
    1.4327   -0.0184    0.0000 O   0  0  0  0  0  0  0  0  0  0  0  0
    0.7183   -1.2559    0.0000 C   0  0  0  0  0  0  0  0  0  0  0  0
    0.0038   -1.6684    0.0000 C   0  0  0  0  0  0  0  0  0  0  0  0
    0.3058   -0.5414    0.0000 C   0  0  0  0  0  0  0  0  0  0  0  0
    1.1308   -1.9703    0.0000 C   0  0  0  0  0  0  0  0  0  0  0  0
    2.1472   -2.0809    0.0000 N   0  0  0  0  0  0  0  0  0  0  0  0
    1.4798   -2.5658    0.0000 C   0  0  0  0  0  0  0  0  0  0  0  0
    1.7347   -3.3504    0.0000 N   0  0  0  0  0  0  0  0  0  0  0  0
    2.5597   -3.3504    0.0000 C   0  0  0  0  0  0  0  0  0  0  0  0
    2.8146   -2.5658    0.0000 N   0  0  0  0  0  0  0  0  0  0  0  0
  1  2  1  0  0  0  0
  2  3  1  0  0  0  0
  4  3  2  0  0  0  0
  5  4  1  0  0  0  0
  6  5  2  0  0  0  0
  6  7  1  0  0  0  0
  8  6  1  0  0  0  0
  9  8  2  0  0  0  0
  3  9  1  0  0  0  0
  1 10  1  0  0  0  0
 10 11  2  0  0  0  0
 10 12  1  0  0  0  0
 12 13  1  0  0  0  0
 12 14  1  0  0  0  0
 12 15  1  0  0  0  0
  1 16  1  0  0  0  0
 17 16  1  0  0  0  0
 18 17  2  0  0  0  0
 19 18  1  0  0  0  0
 20 19  2  0  0  0  0
 16 20  1  0  0  0  0
M  END
> <ChemID>
10178

> <CAS>
43121-43-3

> <Original_SMILES>
CC(C)(C)C(=O)C(Oc1ccc(Cl)cc1)[n]1c[n]c[n]1

> <preferred_name>
Triadimefon

> <dsstox_substance_id>
DTXSID3023897

> <dsstox_compound_id>
DTXCID403897

> <Canonical_QSARr>
CC(C)(C)C(=O)C(OC1C=CC(Cl)=CC=1)N1C=NC=N1

> <InChI_Code_QSARr>
InChI=1S/C14H16ClN3O2/c1-14(2,3)12(19)13(18-9-16-8-17-18)20-11-6-4-10(15)5-7-11/h4-9,13H,1-3H3

> <InChI Key_QSARr>
WURBVZBTWMNKQT-UHFFFAOYSA-N

> <Salt_Solvent>


> <Salt_Solvent_ID>
0

> <Clint>
1.1640552918934515

> <Tr_1_Tst_0>
1

$$$$
Row508
  Mrv171c012261910192D          

 23 23  0  0  0  0            999 V2000
    3.7441   -1.9127    0.0000 C   0  0  0  0  0  0  0  0  0  0  0  0
    4.1566   -1.1982    0.0000 C   0  0  0  0  0  0  0  0  0  0  0  0
    3.7441   -0.4838    0.0000 C   0  0  0  0  0  0  0  0  0  0  0  0
    4.1566    0.2307    0.0000 C   0  0  0  0  0  0  0  0  0  0  0  0
    4.5691    0.9452    0.0000 F   0  0  0  0  0  0  0  0  0  0  0  0
    3.4421    0.6432    0.0000 F   0  0  0  0  0  0  0  0  0  0  0  0
    4.8711   -0.1818    0.0000 F   0  0  0  0  0  0  0  0  0  0  0  0
    2.9191   -0.4838    0.0000 C   0  0  0  0  0  0  0  0  0  0  0  0
    2.5066   -1.1982    0.0000 C   0  0  0  0  0  0  0  0  0  0  0  0
    1.6816   -1.1982    0.0000 N   0  3  0  0  0  0  0  0  0  0  0  0
    1.2691   -1.9127    0.0000 O   0  0  0  0  0  0  0  0  0  0  0  0
    1.2691   -0.4838    0.0000 O   0  5  0  0  0  0  0  0  0  0  0  0
    2.9191   -1.9127    0.0000 C   0  0  0  0  0  0  0  0  0  0  0  0
    2.5066   -2.6272    0.0000 N   0  0  0  0  0  0  0  0  0  0  0  0
    1.6816   -2.6272    0.0000 C   0  0  0  0  0  0  0  0  0  0  0  0
    1.2691   -3.3416    0.0000 C   0  0  0  0  0  0  0  0  0  0  0  0
    0.4441   -3.3416    0.0000 C   0  0  0  0  0  0  0  0  0  0  0  0
    0.0316   -4.0561    0.0000 C   0  0  0  0  0  0  0  0  0  0  0  0
    2.9191   -3.3416    0.0000 C   0  0  0  0  0  0  0  0  0  0  0  0
    2.5066   -4.0561    0.0000 C   0  0  0  0  0  0  0  0  0  0  0  0
    4.1566   -2.6272    0.0000 N   0  3  0  0  0  0  0  0  0  0  0  0
    3.7441   -3.3416    0.0000 O   0  0  0  0  0  0  0  0  0  0  0  0
    4.9816   -2.6272    0.0000 O   0  5  0  0  0  0  0  0  0  0  0  0
  2  1  1  0  0  0  0
  3  2  2  0  0  0  0
  3  4  1  0  0  0  0
  4  5  1  0  0  0  0
  4  6  1  0  0  0  0
  4  7  1  0  0  0  0
  8  3  1  0  0  0  0
  9  8  2  0  0  0  0
  9 10  1  0  0  0  0
 10 11  2  0  0  0  0
 10 12  1  0  0  0  0
 13  9  1  0  0  0  0
  1 13  2  0  0  0  0
 13 14  1  0  0  0  0
 14 15  1  0  0  0  0
 15 16  1  0  0  0  0
 16 17  1  0  0  0  0
 17 18  1  0  0  0  0
 14 19  1  0  0  0  0
 19 20  1  0  0  0  0
  1 21  1  0  0  0  0
 21 22  2  0  0  0  0
 21 23  1  0  0  0  0
M  CHG  4  10   1  12  -1  21   1  23  -1
M  END
> <ChemID>
10179

> <CAS>
1861-40-1

> <Original_SMILES>
CCCCN(CC)c1c(cc(cc1[N+]([O-])=O)C(F)(F)F)[N+]([O-])=O

> <preferred_name>
Benfluralin

> <dsstox_substance_id>
DTXSID3023899

> <dsstox_compound_id>
DTXCID203899

> <Canonical_QSARr>
CCCCN(CC)C1C(=CC(=CC=1[N+]([O-])=O)C(F)(F)F)[N+]([O-])=O

> <InChI_Code_QSARr>
InChI=1S/C13H16F3N3O4/c1-3-5-6-17(4-2)12-10(18(20)21)7-9(13(14,15)16)8-11(12)19(22)23/h7-8H,3-6H2,1-2H3

> <InChI Key_QSARr>
SMDHCQAYESWHAE-UHFFFAOYSA-N

> <Salt_Solvent>


> <Salt_Solvent_ID>
0

> <Clint>
1.2390490931401914

> <Tr_1_Tst_0>
0

$$$$
Row541
  Mrv171c012261910192D          

 19 19  0  0  0  0            999 V2000
    2.9069   -3.8517    0.0000 P   0  0  0  0  0  0  0  0  0  0  0  0
    2.1924   -4.2642    0.0000 O   0  0  0  0  0  0  0  0  0  0  0  0
    2.1924   -5.0892    0.0000 C   0  0  0  0  0  0  0  0  0  0  0  0
    1.4779   -5.5017    0.0000 C   0  0  0  0  0  0  0  0  0  0  0  0
    3.3194   -4.5661    0.0000 O   0  0  0  0  0  0  0  0  0  0  0  0
    3.6214   -3.4392    0.0000 O   0  0  0  0  0  0  0  0  0  0  0  0
    3.6214   -2.6142    0.0000 C   0  0  0  0  0  0  0  0  0  0  0  0
    4.3358   -2.2017    0.0000 C   0  0  0  0  0  0  0  0  0  0  0  0
    4.3358   -1.3767    0.0000 C   0  0  0  0  0  0  0  0  0  0  0  0
    3.6214   -0.9642    0.0000 C   0  0  0  0  0  0  0  0  0  0  0  0
    3.6214   -0.1392    0.0000 S   0  0  0  0  0  0  0  0  0  0  0  0
    2.9069    0.2733    0.0000 C   0  0  0  0  0  0  0  0  0  0  0  0
    2.9069   -1.3767    0.0000 C   0  0  0  0  0  0  0  0  0  0  0  0
    2.1924   -0.9642    0.0000 C   0  0  0  0  0  0  0  0  0  0  0  0
    2.9069   -2.2017    0.0000 C   0  0  0  0  0  0  0  0  0  0  0  0
    2.4944   -3.1372    0.0000 N   0  0  0  0  0  0  0  0  0  0  0  0
    1.6694   -3.1372    0.0000 C   0  0  0  0  0  0  0  0  0  0  0  0
    1.2569   -2.4227    0.0000 C   0  0  0  0  0  0  0  0  0  0  0  0
    1.2569   -3.8517    0.0000 C   0  0  0  0  0  0  0  0  0  0  0  0
  1  2  1  0  0  0  0
  2  3  1  0  0  0  0
  3  4  1  0  0  0  0
  1  5  2  0  0  0  0
  1  6  1  0  0  0  0
  6  7  1  0  0  0  0
  8  7  2  0  0  0  0
  9  8  1  0  0  0  0
 10  9  2  0  0  0  0
 10 11  1  0  0  0  0
 11 12  1  0  0  0  0
 13 10  1  0  0  0  0
 13 14  1  0  0  0  0
 15 13  2  0  0  0  0
  7 15  1  0  0  0  0
  1 16  1  0  0  0  0
 16 17  1  0  0  0  0
 17 18  1  0  0  0  0
 17 19  1  0  0  0  0
M  END
> <ChemID>
10180

> <CAS>
22224-92-6

> <Original_SMILES>
Cc1cc(ccc1SC)OP(=O)(NC(C)C)OCC

> <preferred_name>
Fenamiphos

> <dsstox_substance_id>
DTXSID3024102

> <dsstox_compound_id>
DTXCID404102

> <Canonical_QSARr>
CC1=CC(=CC=C1SC)OP(=O)(NC(C)C)OCC

> <InChI_Code_QSARr>
InChI=1S/C13H22NO3PS/c1-6-16-18(15,14-10(2)3)17-12-7-8-13(19-5)11(4)9-12/h7-10H,6H2,1-5H3,(H,14,15)

> <InChI Key_QSARr>
ZCJPOPBZHLUFHF-UHFFFAOYSA-N

> <Salt_Solvent>


> <Salt_Solvent_ID>
0

> <Clint>
1.7931615292455507

> <Tr_1_Tst_0>
0

$$$$
Row483
  Mrv171c012261910192D          

 16 19  0  0  0  0            999 V2000
    1.7518   -1.4991    0.0000 C   0  0  0  0  0  0  0  0  0  0  0  0
    2.0068   -2.2837    0.0000 C   0  0  0  0  0  0  0  0  0  0  0  0
    2.8318   -2.2837    0.0000 C   0  0  0  0  0  0  0  0  0  0  0  0
    3.0867   -1.4991    0.0000 C   0  0  0  0  0  0  0  0  0  0  0  0
    2.4193   -1.0142    0.0000 C   0  0  0  0  0  0  0  0  0  0  0  0
    2.3330   -0.1937    0.0000 C   0  0  0  0  0  0  0  0  0  0  0  0
    1.5794    0.1419    0.0000 C   0  0  0  0  0  0  0  0  0  0  0  0
    0.9119   -0.3430    0.0000 C   0  0  0  0  0  0  0  0  0  0  0  0
    0.9449   -1.3276    0.0000 C   0  0  0  0  0  0  0  0  0  0  0  0
    0.3928   -1.9407    0.0000 C   0  0  0  0  0  0  0  0  0  0  0  0
    0.6478   -2.7253    0.0000 C   0  0  0  0  0  0  0  0  0  0  0  0
    1.4547   -2.8968    0.0000 C   0  0  0  0  0  0  0  0  0  0  0  0
    3.8937   -1.3276    0.0000 C   0  0  0  0  0  0  0  0  0  0  0  0
    4.4457   -1.9407    0.0000 C   0  0  0  0  0  0  0  0  0  0  0  0
    4.1908   -2.7253    0.0000 C   0  0  0  0  0  0  0  0  0  0  0  0
    3.3838   -2.8968    0.0000 C   0  0  0  0  0  0  0  0  0  0  0  0
  2  1  1  0  0  0  0
  2  3  1  0  0  0  0
  4  3  2  0  0  0  0
  4  5  1  0  0  0  0
  5  1  2  0  0  0  0
  5  6  1  0  0  0  0
  6  7  2  0  0  0  0
  7  8  1  0  0  0  0
  8  9  2  0  0  0  0
  1  9  1  0  0  0  0
  9 10  1  0  0  0  0
 10 11  2  0  0  0  0
 11 12  1  0  0  0  0
 12  2  2  0  0  0  0
 13  4  1  0  0  0  0
 14 13  2  0  0  0  0
 15 14  1  0  0  0  0
 16 15  2  0  0  0  0
  3 16  1  0  0  0  0
M  END
> <ChemID>
10181

> <CAS>
206-44-0

> <Original_SMILES>
c1ccc2c3c(cccc31)-c1ccccc1-2

> <preferred_name>
Fluoranthene

> <dsstox_substance_id>
DTXSID3024104

> <dsstox_compound_id>
DTXCID204104

> <Canonical_QSARr>
C1=CC=C2C3=C(C=CC=C31)C1C=CC=CC=12

> <InChI_Code_QSARr>
InChI=1S/C16H10/c1-2-8-13-12(7-1)14-9-3-5-11-6-4-10-15(13)16(11)14/h1-10H

> <InChI Key_QSARr>
GVEPBJHOBDJJJI-UHFFFAOYSA-N

> <Salt_Solvent>


> <Salt_Solvent_ID>
0

> <Clint>
0.9065505191014499

> <Tr_1_Tst_0>
0

$$$$
Row133
  Mrv171c012261910192D          

 23 25  0  0  0  0            999 V2000
    2.8593   -1.6330    0.0000 C   0  0  0  0  0  0  0  0  0  0  0  0
    3.5738   -2.0455    0.0000 C   0  0  0  0  0  0  0  0  0  0  0  0
    4.2883   -1.6330    0.0000 N   0  0  0  0  0  0  0  0  0  0  0  0
    5.0028   -2.0455    0.0000 C   0  0  0  0  0  0  0  0  0  0  0  0
    5.7172   -1.6330    0.0000 C   0  0  0  0  0  0  0  0  0  0  0  0
    6.4317   -2.0455    0.0000 C   0  0  0  0  0  0  0  0  0  0  0  0
    6.4317   -2.8705    0.0000 C   0  0  0  0  0  0  0  0  0  0  0  0
    5.7172   -3.2830    0.0000 C   0  0  0  0  0  0  0  0  0  0  0  0
    5.0028   -2.8705    0.0000 C   0  0  0  0  0  0  0  0  0  0  0  0
    4.2883   -3.2830    0.0000 C   0  0  0  0  0  0  0  0  0  0  0  0
    3.5738   -2.8705    0.0000 C   0  0  0  0  0  0  0  0  0  0  0  0
    2.8593   -3.2830    0.0000 C   0  0  0  0  0  0  0  0  0  0  0  0
    2.1449   -2.8705    0.0000 O   0  0  0  0  0  0  0  0  0  0  0  0
    2.8593   -4.1080    0.0000 O   0  0  0  0  0  0  0  0  0  0  0  0
    2.7731   -0.8125    0.0000 N   0  0  0  0  0  0  0  0  0  0  0  0
    1.9661   -0.6410    0.0000 C   0  0  0  0  0  0  0  0  0  0  0  0
    1.6306    0.1127    0.0000 O   0  0  0  0  0  0  0  0  0  0  0  0
    1.5536   -1.3554    0.0000 C   0  0  0  0  0  0  0  0  0  0  0  0
    0.8862   -0.8705    0.0000 C   0  0  0  0  0  0  0  0  0  0  0  0
    1.0016   -1.9685    0.0000 C   0  0  0  0  0  0  0  0  0  0  0  0
    1.2565   -2.7531    0.0000 C   0  0  0  0  0  0  0  0  0  0  0  0
    0.1946   -1.7970    0.0000 C   0  0  0  0  0  0  0  0  0  0  0  0
    2.1057   -1.9685    0.0000 N   0  0  0  0  0  0  0  0  0  0  0  0
  1  2  1  0  0  0  0
  3  2  2  0  0  0  0
  4  3  1  0  0  0  0
  4  5  1  0  0  0  0
  5  6  2  0  0  0  0
  6  7  1  0  0  0  0
  7  8  2  0  0  0  0
  8  9  1  0  0  0  0
  9  4  2  0  0  0  0
 10  9  1  0  0  0  0
 11 10  2  0  0  0  0
  2 11  1  0  0  0  0
 11 12  1  0  0  0  0
 12 13  1  0  0  0  0
 12 14  2  0  0  0  0
 15  1  1  0  0  0  0
 16 15  1  0  0  0  0
 16 17  2  0  0  0  0
 18 16  1  0  0  0  0
 18 19  1  0  0  0  0
 18 20  1  0  0  0  0
 20 21  1  0  0  0  0
 20 22  1  0  0  0  0
 23 18  1  0  0  0  0
  1 23  2  0  0  0  0
M  END
> <ChemID>
10182

> <CAS>
81335-37-7

> <Original_SMILES>
CC(C)C1(C)N=C(NC1=O)c1[n]c2ccccc2cc1C(O)=O

> <preferred_name>
Imazaquin

> <dsstox_substance_id>
DTXSID3024152

> <dsstox_compound_id>
DTXCID904152

> <Canonical_QSARr>
CC1(N=C(NC1=O)C1=NC2C=CC=CC=2C=C1C(O)=O)C(C)C

> <InChI_Code_QSARr>
InChI=1S/C17H17N3O3/c1-9(2)17(3)16(23)19-14(20-17)13-11(15(21)22)8-10-6-4-5-7-12(10)18-13/h4-9H,1-3H3,(H,21,22)(H,19,20,23)

> <InChI Key_QSARr>
CABMTIJINOIHOD-UHFFFAOYSA-N

> <Salt_Solvent>


> <Salt_Solvent_ID>
0

> <Clint>
0.3909351071033791

> <Tr_1_Tst_0>
1

$$$$
Row493
  Mrv171c012261910192D          

 21 22  0  0  0  0            999 V2000
    4.1746   -2.3035    0.0000 N   0  0  0  0  0  0  0  0  0  0  0  0
    4.4296   -1.5189    0.0000 C   0  0  0  0  0  0  0  0  0  0  0  0
    3.7621   -1.0340    0.0000 C   0  0  0  0  0  0  0  0  0  0  0  0
    3.7621   -0.2090    0.0000 O   0  0  0  0  0  0  0  0  0  0  0  0
    3.0947   -1.5189    0.0000 N   0  0  0  0  0  0  0  0  0  0  0  0
    2.3101   -1.2640    0.0000 C   0  0  0  0  0  0  0  0  0  0  0  0
    2.1385   -0.4570    0.0000 C   0  0  0  0  0  0  0  0  0  0  0  0
    1.3539   -0.2021    0.0000 C   0  0  0  0  0  0  0  0  0  0  0  0
    1.1824    0.6049    0.0000 Cl  0  0  0  0  0  0  0  0  0  0  0  0
    0.7408   -0.7541    0.0000 C   0  0  0  0  0  0  0  0  0  0  0  0
    0.9123   -1.5611    0.0000 C   0  0  0  0  0  0  0  0  0  0  0  0
    0.2992   -2.1131    0.0000 Cl  0  0  0  0  0  0  0  0  0  0  0  0
    1.6970   -1.8160    0.0000 C   0  0  0  0  0  0  0  0  0  0  0  0
    3.3496   -2.3035    0.0000 C   0  0  0  0  0  0  0  0  0  0  0  0
    2.8647   -2.9710    0.0000 O   0  0  0  0  0  0  0  0  0  0  0  0
    4.6595   -2.9710    0.0000 C   0  0  0  0  0  0  0  0  0  0  0  0
    4.3240   -3.7247    0.0000 O   0  0  0  0  0  0  0  0  0  0  0  0
    5.4800   -2.8847    0.0000 N   0  0  0  0  0  0  0  0  0  0  0  0
    5.9649   -3.5522    0.0000 C   0  0  0  0  0  0  0  0  0  0  0  0
    6.7854   -3.4659    0.0000 C   0  0  0  0  0  0  0  0  0  0  0  0
    5.6294   -4.3059    0.0000 C   0  0  0  0  0  0  0  0  0  0  0  0
  2  1  1  0  0  0  0
  3  2  1  0  0  0  0
  3  4  2  0  0  0  0
  5  3  1  0  0  0  0
  5  6  1  0  0  0  0
  7  6  2  0  0  0  0
  8  7  1  0  0  0  0
  8  9  1  0  0  0  0
 10  8  2  0  0  0  0
 11 10  1  0  0  0  0
 11 12  1  0  0  0  0
 13 11  2  0  0  0  0
  6 13  1  0  0  0  0
 14  5  1  0  0  0  0
  1 14  1  0  0  0  0
 14 15  2  0  0  0  0
  1 16  1  0  0  0  0
 16 17  2  0  0  0  0
 16 18  1  0  0  0  0
 18 19  1  0  0  0  0
 19 20  1  0  0  0  0
 19 21  1  0  0  0  0
M  END
> <ChemID>
10183

> <CAS>
36734-19-7

> <Original_SMILES>
CC(C)NC(=O)N1CC(=O)N(c2cc(Cl)cc(Cl)c2)C1=O

> <preferred_name>
Iprodione

> <dsstox_substance_id>
DTXSID3024154

> <dsstox_compound_id>
DTXCID704154

> <Canonical_QSARr>
CC(C)NC(=O)N1CC(=O)N(C2C=C(Cl)C=C(Cl)C=2)C1=O

> <InChI_Code_QSARr>
InChI=1S/C13H13Cl2N3O3/c1-7(2)16-12(20)17-6-11(19)18(13(17)21)10-4-8(14)3-9(15)5-10/h3-5,7H,6H2,1-2H3,(H,16,20)

> <InChI Key_QSARr>
ONUFESLQCSAYKA-UHFFFAOYSA-N

> <Salt_Solvent>


> <Salt_Solvent_ID>
0

> <Clint>
1.0681858617461615

> <Tr_1_Tst_0>
0

$$$$
Row198
  Mrv171c012261910192D          

 22 24  0  0  0  0            999 V2000
    3.8411   -3.8635    0.0000 N   0  0  0  0  0  0  0  0  0  0  0  0
    4.5085   -4.3484    0.0000 C   0  0  0  0  0  0  0  0  0  0  0  0
    4.2536   -5.1330    0.0000 N   0  0  0  0  0  0  0  0  0  0  0  0
    3.4286   -5.1330    0.0000 C   0  0  0  0  0  0  0  0  0  0  0  0
    3.1736   -4.3484    0.0000 N   0  0  0  0  0  0  0  0  0  0  0  0
    3.8411   -3.0385    0.0000 C   0  0  0  0  0  0  0  0  0  0  0  0
    3.1266   -2.6260    0.0000 Si  0  0  0  0  0  0  0  0  0  0  0  0
    2.7141   -3.3405    0.0000 C   0  0  0  0  0  0  0  0  0  0  0  0
    3.5391   -1.9115    0.0000 C   0  0  0  0  0  0  0  0  0  0  0  0
    4.3641   -1.9115    0.0000 C   0  0  0  0  0  0  0  0  0  0  0  0
    4.7766   -1.1971    0.0000 C   0  0  0  0  0  0  0  0  0  0  0  0
    4.3641   -0.4826    0.0000 C   0  0  0  0  0  0  0  0  0  0  0  0
    4.7766    0.2319    0.0000 F   0  0  0  0  0  0  0  0  0  0  0  0
    3.5391   -0.4826    0.0000 C   0  0  0  0  0  0  0  0  0  0  0  0
    3.1266   -1.1971    0.0000 C   0  0  0  0  0  0  0  0  0  0  0  0
    2.4121   -2.2135    0.0000 C   0  0  0  0  0  0  0  0  0  0  0  0
    2.4121   -1.3885    0.0000 C   0  0  0  0  0  0  0  0  0  0  0  0
    1.6976   -0.9760    0.0000 C   0  0  0  0  0  0  0  0  0  0  0  0
    0.9832   -1.3885    0.0000 C   0  0  0  0  0  0  0  0  0  0  0  0
    0.2687   -0.9760    0.0000 F   0  0  0  0  0  0  0  0  0  0  0  0
    0.9832   -2.2135    0.0000 C   0  0  0  0  0  0  0  0  0  0  0  0
    1.6976   -2.6260    0.0000 C   0  0  0  0  0  0  0  0  0  0  0  0
  2  1  1  0  0  0  0
  3  2  2  0  0  0  0
  4  3  1  0  0  0  0
  5  4  2  0  0  0  0
  1  5  1  0  0  0  0
  1  6  1  0  0  0  0
  6  7  1  0  0  0  0
  7  8  1  0  0  0  0
  7  9  1  0  0  0  0
 10  9  1  0  0  0  0
 11 10  2  0  0  0  0
 12 11  1  0  0  0  0
 12 13  1  0  0  0  0
 14 12  2  0  0  0  0
 15 14  1  0  0  0  0
  9 15  2  0  0  0  0
  7 16  1  0  0  0  0
 17 16  1  0  0  0  0
 18 17  2  0  0  0  0
 19 18  1  0  0  0  0
 19 20  1  0  0  0  0
 21 19  2  0  0  0  0
 22 21  1  0  0  0  0
 16 22  2  0  0  0  0
M  END
> <ChemID>
10184

> <CAS>
85509-19-9

> <Original_SMILES>
C[Si](C[n]1c[n]c[n]1)(c1ccc(F)cc1)c1ccc(F)cc1

> <preferred_name>
Flusilazole

> <dsstox_substance_id>
DTXSID3024235

> <dsstox_compound_id>
DTXCID704235

> <Canonical_QSARr>
C[Si](CN1C=NC=N1)(C1C=CC(F)=CC=1)C1C=CC(F)=CC=1

> <InChI_Code_QSARr>
InChI=1S/C16H15F2N3Si/c1-22(12-21-11-19-10-20-21,15-6-2-13(17)3-7-15)16-8-4-14(18)5-9-16/h2-11H,12H2,1H3

> <InChI Key_QSARr>
FQKUGOMFVDPBIZ-UHFFFAOYSA-N

> <Salt_Solvent>


> <Salt_Solvent_ID>
0

> <Clint>
0.842609239610562

> <Tr_1_Tst_0>
1

$$$$
Row260
  Mrv171c012261910192D          

 22 23  0  0  0  0            999 V2000
    2.9970   -1.8270    0.0000 N   0  0  0  0  0  0  0  0  0  0  0  0
    3.7816   -1.5721    0.0000 C   0  0  0  0  0  0  0  0  0  0  0  0
    4.3947   -2.1241    0.0000 C   0  0  0  0  0  0  0  0  0  0  0  0
    4.2232   -2.9311    0.0000 Cl  0  0  0  0  0  0  0  0  0  0  0  0
    5.1794   -1.8692    0.0000 C   0  0  0  0  0  0  0  0  0  0  0  0
    5.3509   -1.0622    0.0000 C   0  0  0  0  0  0  0  0  0  0  0  0
    6.1355   -0.8073    0.0000 Cl  0  0  0  0  0  0  0  0  0  0  0  0
    4.7378   -0.5102    0.0000 C   0  0  0  0  0  0  0  0  0  0  0  0
    4.9093    0.2968    0.0000 O   0  0  0  0  0  0  0  0  0  0  0  0
    5.6939    0.5517    0.0000 C   0  0  0  0  0  0  0  0  0  0  0  0
    5.8655    1.3587    0.0000 C   0  0  0  0  0  0  0  0  0  0  0  0
    6.3070   -0.0003    0.0000 C   0  0  0  0  0  0  0  0  0  0  0  0
    3.9532   -0.7651    0.0000 C   0  0  0  0  0  0  0  0  0  0  0  0
    2.3296   -1.3421    0.0000 C   0  0  0  0  0  0  0  0  0  0  0  0
    2.3296   -0.5171    0.0000 O   0  0  0  0  0  0  0  0  0  0  0  0
    1.6621   -1.8270    0.0000 O   0  0  0  0  0  0  0  0  0  0  0  0
    1.9171   -2.6116    0.0000 C   0  0  0  0  0  0  0  0  0  0  0  0
    1.4322   -3.2791    0.0000 C   0  0  0  0  0  0  0  0  0  0  0  0
    0.9472   -3.9465    0.0000 C   0  0  0  0  0  0  0  0  0  0  0  0
    0.7647   -2.7941    0.0000 C   0  0  0  0  0  0  0  0  0  0  0  0
    2.0996   -3.7640    0.0000 C   0  0  0  0  0  0  0  0  0  0  0  0
    2.7421   -2.6116    0.0000 N   0  0  0  0  0  0  0  0  0  0  0  0
  1  2  1  0  0  0  0
  3  2  2  0  0  0  0
  3  4  1  0  0  0  0
  5  3  1  0  0  0  0
  6  5  2  0  0  0  0
  6  7  1  0  0  0  0
  8  6  1  0  0  0  0
  8  9  1  0  0  0  0
  9 10  1  0  0  0  0
 10 11  1  0  0  0  0
 10 12  1  0  0  0  0
 13  8  2  0  0  0  0
  2 13  1  0  0  0  0
 14  1  1  0  0  0  0
 14 15  2  0  0  0  0
 16 14  1  0  0  0  0
 17 16  1  0  0  0  0
 17 18  1  0  0  0  0
 18 19  1  0  0  0  0
 18 20  1  0  0  0  0
 18 21  1  0  0  0  0
 22 17  2  0  0  0  0
  1 22  1  0  0  0  0
M  END
> <ChemID>
10185

> <CAS>
19666-30-9

> <Original_SMILES>
CC(C)Oc1cc(c(Cl)cc1Cl)N1N=C(OC1=O)C(C)(C)C

> <preferred_name>
Oxadiazon

> <dsstox_substance_id>
DTXSID3024239

> <dsstox_compound_id>
DTXCID304239

> <Canonical_QSARr>
CC(C)OC1=CC(=C(Cl)C=C1Cl)N1N=C(OC1=O)C(C)(C)C

> <InChI_Code_QSARr>
InChI=1S/C15H18Cl2N2O3/c1-8(2)21-12-7-11(9(16)6-10(12)17)19-14(20)22-13(18-19)15(3,4)5/h6-8H,1-5H3

> <InChI Key_QSARr>
CHNUNORXWHYHNE-UHFFFAOYSA-N

> <Salt_Solvent>


> <Salt_Solvent_ID>
0

> <Clint>
1.1467480136306398

> <Tr_1_Tst_0>
1

$$$$
Row130
  Mrv171c012261910192D          

 21 22  0  0  0  0            999 V2000
    2.7609   -3.9298    0.0000 N   0  0  0  0  0  0  0  0  0  0  0  0
    2.4254   -3.1761    0.0000 C   0  0  0  0  0  0  0  0  0  0  0  0
    2.9103   -2.5086    0.0000 C   0  0  0  0  0  0  0  0  0  0  0  0
    3.7353   -2.5086    0.0000 N   0  0  0  0  0  0  0  0  0  0  0  0
    3.9902   -1.7240    0.0000 C   0  0  0  0  0  0  0  0  0  0  0  0
    4.7748   -1.4691    0.0000 O   0  0  0  0  0  0  0  0  0  0  0  0
    3.3228   -1.2391    0.0000 C   0  0  0  0  0  0  0  0  0  0  0  0
    3.8748   -0.6260    0.0000 C   0  0  0  0  0  0  0  0  0  0  0  0
    3.6199    0.1586    0.0000 C   0  0  0  0  0  0  0  0  0  0  0  0
    4.6818   -0.7975    0.0000 C   0  0  0  0  0  0  0  0  0  0  0  0
    2.7707   -0.6260    0.0000 C   0  0  0  0  0  0  0  0  0  0  0  0
    2.6553   -1.7240    0.0000 N   0  0  0  0  0  0  0  0  0  0  0  0
    1.6049   -3.0899    0.0000 C   0  0  0  0  0  0  0  0  0  0  0  0
    1.2693   -2.3362    0.0000 C   0  0  0  0  0  0  0  0  0  0  0  0
    0.4488   -2.2499    0.0000 O   0  0  0  0  0  0  0  0  0  0  0  0
    1.7542   -1.6687    0.0000 O   0  0  0  0  0  0  0  0  0  0  0  0
    1.1200   -3.7573    0.0000 C   0  0  0  0  0  0  0  0  0  0  0  0
    1.4555   -4.5110    0.0000 C   0  0  0  0  0  0  0  0  0  0  0  0
    0.9706   -5.1784    0.0000 C   0  0  0  0  0  0  0  0  0  0  0  0
    1.3061   -5.9321    0.0000 C   0  0  0  0  0  0  0  0  0  0  0  0
    2.2760   -4.5972    0.0000 C   0  0  0  0  0  0  0  0  0  0  0  0
  2  1  2  0  0  0  0
  2  3  1  0  0  0  0
  4  3  1  0  0  0  0
  5  4  1  0  0  0  0
  5  6  2  0  0  0  0
  7  5  1  0  0  0  0
  7  8  1  0  0  0  0
  8  9  1  0  0  0  0
  8 10  1  0  0  0  0
  7 11  1  0  0  0  0
 12  7  1  0  0  0  0
  3 12  2  0  0  0  0
 13  2  1  0  0  0  0
 13 14  1  0  0  0  0
 14 15  1  0  0  0  0
 14 16  2  0  0  0  0
 17 13  2  0  0  0  0
 18 17  1  0  0  0  0
 18 19  1  0  0  0  0
 19 20  1  0  0  0  0
 21 18  2  0  0  0  0
  1 21  1  0  0  0  0
M  END
> <ChemID>
10186

> <CAS>
81335-77-5

> <Original_SMILES>
CCc1cc(C(O)=O)c([n]c1)C1NC(=O)C(C)(N=1)C(C)C

> <preferred_name>
Imazethapyr

> <dsstox_substance_id>
DTXSID3024287

> <dsstox_compound_id>
DTXCID004287

> <Canonical_QSARr>
CCC1C=C(C(O)=O)C(=NC=1)C1NC(=O)C(C)(N=1)C(C)C

> <InChI_Code_QSARr>
InChI=1S/C15H19N3O3/c1-5-9-6-10(13(19)20)11(16-7-9)12-17-14(21)15(4,18-12)8(2)3/h6-8H,5H2,1-4H3,(H,19,20)(H,17,18,21)

> <InChI Key_QSARr>
XVOKUMIPKHGGTN-UHFFFAOYSA-N

> <Salt_Solvent>


> <Salt_Solvent_ID>
0

> <Clint>
0.3710678622717362

> <Tr_1_Tst_0>
1

$$$$
Row475
  Mrv171c012261910192D          

 16 19  0  0  0  0            999 V2000
    2.2044   -1.4429    0.0000 C   0  0  0  0  0  0  0  0  0  0  0  0
    2.6169   -0.7285    0.0000 C   0  0  0  0  0  0  0  0  0  0  0  0
    2.2044   -0.0140    0.0000 C   0  0  0  0  0  0  0  0  0  0  0  0
    1.3794   -0.0140    0.0000 C   0  0  0  0  0  0  0  0  0  0  0  0
    0.9669   -0.7285    0.0000 C   0  0  0  0  0  0  0  0  0  0  0  0
    0.1419   -0.7285    0.0000 C   0  0  0  0  0  0  0  0  0  0  0  0
   -0.2706   -1.4429    0.0000 C   0  0  0  0  0  0  0  0  0  0  0  0
    0.1419   -2.1574    0.0000 C   0  0  0  0  0  0  0  0  0  0  0  0
    0.9669   -2.1574    0.0000 C   0  0  0  0  0  0  0  0  0  0  0  0
    1.3794   -2.8719    0.0000 C   0  0  0  0  0  0  0  0  0  0  0  0
    2.2044   -2.8719    0.0000 C   0  0  0  0  0  0  0  0  0  0  0  0
    2.6169   -2.1574    0.0000 C   0  0  0  0  0  0  0  0  0  0  0  0
    3.4419   -2.1574    0.0000 C   0  0  0  0  0  0  0  0  0  0  0  0
    3.8544   -1.4429    0.0000 C   0  0  0  0  0  0  0  0  0  0  0  0
    3.4419   -0.7285    0.0000 C   0  0  0  0  0  0  0  0  0  0  0  0
    1.3794   -1.4429    0.0000 C   0  0  0  0  0  0  0  0  0  0  0  0
  2  1  1  0  0  0  0
  2  3  1  0  0  0  0
  3  4  2  0  0  0  0
  4  5  1  0  0  0  0
  5  6  2  0  0  0  0
  6  7  1  0  0  0  0
  7  8  2  0  0  0  0
  8  9  1  0  0  0  0
  9 10  1  0  0  0  0
 10 11  2  0  0  0  0
 11 12  1  0  0  0  0
 12  1  2  0  0  0  0
 12 13  1  0  0  0  0
 13 14  2  0  0  0  0
 14 15  1  0  0  0  0
 15  2  2  0  0  0  0
  9 16  2  0  0  0  0
  1 16  1  0  0  0  0
 16  5  1  0  0  0  0
M  END
> <ChemID>
10187

> <CAS>
129-00-0

> <Original_SMILES>
c1cc2cccc3ccc4cccc1c4c32

> <preferred_name>
Pyrene

> <dsstox_substance_id>
DTXSID3024289

> <dsstox_compound_id>
DTXCID804289

> <Canonical_QSARr>
C1=CC2C=CC=C3C=CC4=CC=CC1=C4C=23

> <InChI_Code_QSARr>
InChI=1S/C16H10/c1-3-11-7-9-13-5-2-6-14-10-8-12(4-1)15(11)16(13)14/h1-10H

> <InChI Key_QSARr>
BBEAQIROQSPTKN-UHFFFAOYSA-N

> <Salt_Solvent>


> <Salt_Solvent_ID>
0

> <Clint>
0.7909884750888158

> <Tr_1_Tst_0>
0

$$$$
Row179
  Mrv171c012261910192D          

 15 15  0  0  0  0            999 V2000
    2.5223   -1.3688    0.0000 C   0  0  0  0  0  0  0  0  0  0  0  0
    2.0373   -2.0362    0.0000 N   0  0  0  0  0  0  0  0  0  0  0  0
    1.2169   -1.9500    0.0000 C   0  0  0  0  0  0  0  0  0  0  0  0
    2.3729   -2.7899    0.0000 C   0  0  0  0  0  0  0  0  0  0  0  0
    1.8880   -3.4574    0.0000 N   0  0  0  0  0  0  0  0  0  0  0  0
    2.2235   -4.2110    0.0000 C   0  0  0  0  0  0  0  0  0  0  0  0
    3.1934   -2.8762    0.0000 O   0  0  0  0  0  0  0  0  0  0  0  0
    3.3473   -1.3688    0.0000 N   0  0  0  0  0  0  0  0  0  0  0  0
    3.6022   -0.5842    0.0000 N   0  0  0  0  0  0  0  0  0  0  0  0
    2.9348   -0.0993    0.0000 C   0  0  0  0  0  0  0  0  0  0  0  0
    2.9348    0.7257    0.0000 C   0  0  0  0  0  0  0  0  0  0  0  0
    2.9348    1.5507    0.0000 C   0  0  0  0  0  0  0  0  0  0  0  0
    3.7598    0.7257    0.0000 C   0  0  0  0  0  0  0  0  0  0  0  0
    2.1098    0.7257    0.0000 C   0  0  0  0  0  0  0  0  0  0  0  0
    2.2673   -0.5842    0.0000 S   0  0  0  0  0  0  0  0  0  0  0  0
  1  2  1  0  0  0  0
  2  3  1  0  0  0  0
  2  4  1  0  0  0  0
  4  5  1  0  0  0  0
  5  6  1  0  0  0  0
  4  7  2  0  0  0  0
  8  1  2  0  0  0  0
  9  8  1  0  0  0  0
 10  9  2  0  0  0  0
 10 11  1  0  0  0  0
 11 12  1  0  0  0  0
 11 13  1  0  0  0  0
 11 14  1  0  0  0  0
 15 10  1  0  0  0  0
  1 15  1  0  0  0  0
M  END
> <ChemID>
10188

> <CAS>
34014-18-1

> <Original_SMILES>
CNC(=O)N(C)c1[n][n]c([s]1)C(C)(C)C

> <preferred_name>
Tebuthiuron

> <dsstox_substance_id>
DTXSID3024316

> <dsstox_compound_id>
DTXCID704316

> <Canonical_QSARr>
CNC(=O)N(C)C1=NN=C(S1)C(C)(C)C

> <InChI_Code_QSARr>
InChI=1S/C9H16N4OS/c1-9(2,3)6-11-12-8(15-6)13(5)7(14)10-4/h1-5H3,(H,10,14)

> <InChI Key_QSARr>
HBPDKDSFLXWOAE-UHFFFAOYSA-N

> <Salt_Solvent>


> <Salt_Solvent_ID>
0

> <Clint>
0.7226339225338122

> <Tr_1_Tst_0>
1

$$$$
Row26
  Mrv171c012261910192D          

 12 11  0  0  0  0            999 V2000
   -0.0122   -0.4139    0.0000 O   0  0  0  0  0  0  0  0  0  0  0  0
    0.7022   -0.0014    0.0000 C   0  0  0  0  0  0  0  0  0  0  0  0
    1.4167   -0.4139    0.0000 C   0  0  0  0  0  0  0  0  0  0  0  0
    2.1312   -0.0014    0.0000 O   0  0  0  0  0  0  0  0  0  0  0  0
    2.8457   -0.4139    0.0000 C   0  0  0  0  0  0  0  0  0  0  0  0
    3.5601   -0.0014    0.0000 C   0  0  0  0  0  0  0  0  0  0  0  0
    4.2746   -0.4139    0.0000 O   0  0  0  0  0  0  0  0  0  0  0  0
    4.9891   -0.0014    0.0000 C   0  0  0  0  0  0  0  0  0  0  0  0
    5.7035   -0.4139    0.0000 C   0  0  0  0  0  0  0  0  0  0  0  0
    6.4180   -0.0014    0.0000 O   0  0  0  0  0  0  0  0  0  0  0  0
    7.1325   -0.4139    0.0000 C   0  0  0  0  0  0  0  0  0  0  0  0
    7.8469   -0.0014    0.0000 C   0  0  0  0  0  0  0  0  0  0  0  0
  1  2  1  0  0  0  0
  2  3  1  0  0  0  0
  3  4  1  0  0  0  0
  4  5  1  0  0  0  0
  5  6  1  0  0  0  0
  6  7  1  0  0  0  0
  7  8  1  0  0  0  0
  8  9  1  0  0  0  0
  9 10  1  0  0  0  0
 10 11  1  0  0  0  0
 11 12  1  0  0  0  0
M  END
> <ChemID>
10189

> <CAS>
112-50-5

> <Original_SMILES>
CCOCCOCCOCCO

> <preferred_name>
2-[2-(2-Ethoxyethoxy)ethoxy]ethanol

> <dsstox_substance_id>
DTXSID3024368

> <dsstox_compound_id>
DTXCID004368

> <Canonical_QSARr>
CCOCCOCCOCCO

> <InChI_Code_QSARr>
InChI=1S/C8H18O4/c1-2-10-5-6-12-8-7-11-4-3-9/h9H,2-8H2,1H3

> <InChI Key_QSARr>
WFSMVVDJSNMRAR-UHFFFAOYSA-N

> <Salt_Solvent>


> <Salt_Solvent_ID>
0

> <Clint>
-7.0

> <Tr_1_Tst_0>
1

$$$$
Row291
  Mrv171c012261910192D          

 18 19  0  0  0  0            999 V2000
    3.9981   -3.1729    0.0000 O   0  0  0  0  0  0  0  0  0  0  0  0
    3.9981   -3.9979    0.0000 C   0  0  0  0  0  0  0  0  0  0  0  0
    3.2837   -2.7604    0.0000 C   0  0  0  0  0  0  0  0  0  0  0  0
    3.2837   -1.9354    0.0000 C   0  0  0  0  0  0  0  0  0  0  0  0
    2.5692   -1.5229    0.0000 C   0  0  0  0  0  0  0  0  0  0  0  0
    2.5692   -0.6979    0.0000 C   0  0  0  0  0  0  0  0  0  0  0  0
    3.2837   -0.2854    0.0000 C   0  0  0  0  0  0  0  0  0  0  0  0
    3.2837    0.5396    0.0000 C   0  0  0  0  0  0  0  0  0  0  0  0
    3.9981    0.9521    0.0000 O   0  0  0  0  0  0  0  0  0  0  0  0
    3.9981    1.7771    0.0000 C   0  0  0  0  0  0  0  0  0  0  0  0
    2.5692    0.9521    0.0000 C   0  0  0  0  0  0  0  0  0  0  0  0
    2.5692    1.7771    0.0000 N   0  0  0  0  0  0  0  0  0  0  0  0
    1.8547    0.5396    0.0000 C   0  0  0  0  0  0  0  0  0  0  0  0
    1.8547   -0.2854    0.0000 C   0  0  0  0  0  0  0  0  0  0  0  0
    1.8547   -1.9354    0.0000 C   0  0  0  0  0  0  0  0  0  0  0  0
    1.8547   -2.7604    0.0000 C   0  0  0  0  0  0  0  0  0  0  0  0
    2.5692   -3.1729    0.0000 C   0  0  0  0  0  0  0  0  0  0  0  0
    2.5692   -3.9979    0.0000 N   0  0  0  0  0  0  0  0  0  0  0  0
  1  2  1  0  0  0  0
  1  3  1  0  0  0  0
  4  3  1  0  0  0  0
  5  4  2  0  0  0  0
  5  6  1  0  0  0  0
  7  6  1  0  0  0  0
  8  7  2  0  0  0  0
  8  9  1  0  0  0  0
  9 10  1  0  0  0  0
 11  8  1  0  0  0  0
 11 12  1  0  0  0  0
 13 11  2  0  0  0  0
 14 13  1  0  0  0  0
  6 14  2  0  0  0  0
 15  5  1  0  0  0  0
 16 15  2  0  0  0  0
 17 16  1  0  0  0  0
  3 17  2  0  0  0  0
 17 18  1  0  0  0  0
M  END
> <ChemID>
10190

> <CAS>
119-90-4

> <Original_SMILES>
COc1cc(ccc1N)-c1cc(OC)c(N)cc1

> <preferred_name>
3,3'-Dimethoxybenzidine

> <dsstox_substance_id>
DTXSID3025091

> <dsstox_compound_id>
DTXCID605091

> <Canonical_QSARr>
COC1C=C(C=CC=1N)C1C=C(OC)C(N)=CC=1

> <InChI_Code_QSARr>
InChI=1S/C14H16N2O2/c1-17-13-7-9(3-5-11(13)15)10-4-6-12(16)14(8-10)18-2/h3-8H,15-16H2,1-2H3

> <InChI Key_QSARr>
JRBJSXQPQWSCCF-UHFFFAOYSA-N

> <Salt_Solvent>


> <Salt_Solvent_ID>
0

> <Clint>
1.256380953031641

> <Tr_1_Tst_0>
1

$$$$
Row377
  Mrv171c012261910192D          

 11 10  0  0  0  0            999 V2000
   -0.4934   -1.3024    0.0000 C   0  0  0  0  0  0  0  0  0  0  0  0
    0.2211   -1.7149    0.0000 O   0  0  0  0  0  0  0  0  0  0  0  0
    0.9355   -1.3024    0.0000 C   0  0  0  0  0  0  0  0  0  0  0  0
    1.6500   -1.7149    0.0000 C   0  0  0  0  0  0  0  0  0  0  0  0
    2.3645   -1.3024    0.0000 C   0  0  0  0  0  0  0  0  0  0  0  0
    3.0790   -1.7149    0.0000 C   0  0  0  0  0  0  0  0  0  0  0  0
    3.7934   -1.3024    0.0000 C   0  0  0  0  0  0  0  0  0  0  0  0
    4.5079   -1.7149    0.0000 O   0  0  0  0  0  0  0  0  0  0  0  0
    5.2224   -1.3024    0.0000 C   0  0  0  0  0  0  0  0  0  0  0  0
    3.7934   -0.4774    0.0000 O   0  0  0  0  0  0  0  0  0  0  0  0
    0.9355   -0.4774    0.0000 O   0  0  0  0  0  0  0  0  0  0  0  0
  1  2  1  0  0  0  0
  2  3  1  0  0  0  0
  3  4  1  0  0  0  0
  4  5  1  0  0  0  0
  5  6  1  0  0  0  0
  6  7  1  0  0  0  0
  7  8  1  0  0  0  0
  8  9  1  0  0  0  0
  7 10  2  0  0  0  0
  3 11  2  0  0  0  0
M  END
> <ChemID>
10191

> <CAS>
1119-40-0

> <Original_SMILES>
COC(=O)CCCC(=O)OC

> <preferred_name>
Dimethyl glutarate

> <dsstox_substance_id>
DTXSID3025122

> <dsstox_compound_id>
DTXCID105122

> <Canonical_QSARr>
COC(=O)CCCC(=O)OC

> <InChI_Code_QSARr>
InChI=1S/C7H12O4/c1-10-6(8)4-3-5-7(9)11-2/h3-5H2,1-2H3

> <InChI Key_QSARr>
XTDYIOOONNVFMA-UHFFFAOYSA-N

> <Salt_Solvent>


> <Salt_Solvent_ID>
0

> <Clint>
1.6655809910179529

> <Tr_1_Tst_0>
1

$$$$
Row25
  Mrv171c012261910192D          

 16 17  0  0  0  0            999 V2000
    2.4129   -1.1875    0.0000 N   0  0  0  0  0  0  0  0  0  0  0  0
    3.1274   -0.7750    0.0000 C   0  0  0  0  0  0  0  0  0  0  0  0
    3.8418   -1.1875    0.0000 N   0  0  0  0  0  0  0  0  0  0  0  0
    3.8418   -2.0125    0.0000 C   0  0  0  0  0  0  0  0  0  0  0  0
    3.1274   -2.4250    0.0000 C   0  0  0  0  0  0  0  0  0  0  0  0
    3.1274   -3.2500    0.0000 C   0  0  0  0  0  0  0  0  0  0  0  0
    3.8418   -3.6625    0.0000 C   0  0  0  0  0  0  0  0  0  0  0  0
    4.5563   -3.2500    0.0000 C   0  0  0  0  0  0  0  0  0  0  0  0
    4.5563   -2.4250    0.0000 C   0  0  0  0  0  0  0  0  0  0  0  0
    3.1274    0.0500    0.0000 N   0  0  0  0  0  0  0  0  0  0  0  0
    2.4129    0.4625    0.0000 C   0  0  0  0  0  0  0  0  0  0  0  0
    2.4129    1.2875    0.0000 C   0  0  0  0  0  0  0  0  0  0  0  0
    1.6984    1.7000    0.0000 C   0  0  0  0  0  0  0  0  0  0  0  0
    0.9839    1.2875    0.0000 C   0  0  0  0  0  0  0  0  0  0  0  0
    0.9839    0.4625    0.0000 C   0  0  0  0  0  0  0  0  0  0  0  0
    1.6984    0.0500    0.0000 C   0  0  0  0  0  0  0  0  0  0  0  0
  1  2  2  0  0  0  0
  2  3  1  0  0  0  0
  3  4  1  0  0  0  0
  5  4  1  0  0  0  0
  6  5  2  0  0  0  0
  7  6  1  0  0  0  0
  8  7  2  0  0  0  0
  9  8  1  0  0  0  0
  4  9  2  0  0  0  0
  2 10  1  0  0  0  0
 10 11  1  0  0  0  0
 12 11  1  0  0  0  0
 13 12  2  0  0  0  0
 14 13  1  0  0  0  0
 15 14  2  0  0  0  0
 16 15  1  0  0  0  0
 11 16  2  0  0  0  0
M  END
> <ChemID>
10192

> <CAS>
102-06-7

> <Original_SMILES>
N=C(Nc1ccccc1)Nc1ccccc1

> <preferred_name>
1,3-Diphenylguanidine

> <dsstox_substance_id>
DTXSID3025178

> <dsstox_compound_id>
DTXCID005178

> <Canonical_QSARr>
N=C(NC1C=CC=CC=1)NC1C=CC=CC=1

> <InChI_Code_QSARr>
InChI=1S/C13H13N3/c14-13(15-11-7-3-1-4-8-11)16-12-9-5-2-6-10-12/h1-10H,(H3,14,15,16)

> <InChI Key_QSARr>
OWRCNXZUPFZXOS-UHFFFAOYSA-N

> <Salt_Solvent>


> <Salt_Solvent_ID>
0

> <Clint>
-7.0

> <Tr_1_Tst_0>
1

$$$$
Row519
  Mrv171c012261910192D          

 28 27  0  0  0  0            999 V2000
    3.6605   -1.4059    0.0000 C   0  0  0  0  0  0  0  0  0  0  0  0
    2.9461   -1.8184    0.0000 O   0  0  0  0  0  0  0  0  0  0  0  0
    2.2316   -1.4059    0.0000 C   0  0  0  0  0  0  0  0  0  0  0  0
    2.2316   -0.5809    0.0000 O   0  0  0  0  0  0  0  0  0  0  0  0
    1.5171   -1.8184    0.0000 C   0  0  0  0  0  0  0  0  0  0  0  0
    1.5171   -2.6434    0.0000 C   0  0  0  0  0  0  0  0  0  0  0  0
    0.8027   -3.0559    0.0000 C   0  0  0  0  0  0  0  0  0  0  0  0
    0.8027   -1.4059    0.0000 C   0  0  0  0  0  0  0  0  0  0  0  0
    0.0882   -1.8184    0.0000 C   0  0  0  0  0  0  0  0  0  0  0  0
   -0.6263   -1.4059    0.0000 C   0  0  0  0  0  0  0  0  0  0  0  0
   -1.3408   -1.8184    0.0000 C   0  0  0  0  0  0  0  0  0  0  0  0
    4.3750   -1.8184    0.0000 C   0  0  0  0  0  0  0  0  0  0  0  0
    5.0895   -1.4059    0.0000 O   0  0  0  0  0  0  0  0  0  0  0  0
    5.8039   -1.8184    0.0000 C   0  0  0  0  0  0  0  0  0  0  0  0
    6.5184   -1.4059    0.0000 C   0  0  0  0  0  0  0  0  0  0  0  0
    7.2329   -1.8184    0.0000 O   0  0  0  0  0  0  0  0  0  0  0  0
    7.9474   -1.4059    0.0000 C   0  0  0  0  0  0  0  0  0  0  0  0
    8.6618   -1.8184    0.0000 C   0  0  0  0  0  0  0  0  0  0  0  0
    9.3763   -1.4059    0.0000 O   0  0  0  0  0  0  0  0  0  0  0  0
   10.0908   -1.8184    0.0000 C   0  0  0  0  0  0  0  0  0  0  0  0
   10.0908   -2.6434    0.0000 O   0  0  0  0  0  0  0  0  0  0  0  0
   10.8052   -1.4059    0.0000 C   0  0  0  0  0  0  0  0  0  0  0  0
   10.8052   -0.5809    0.0000 C   0  0  0  0  0  0  0  0  0  0  0  0
   11.5197   -0.1684    0.0000 C   0  0  0  0  0  0  0  0  0  0  0  0
   11.5197   -1.8184    0.0000 C   0  0  0  0  0  0  0  0  0  0  0  0
   12.2342   -1.4059    0.0000 C   0  0  0  0  0  0  0  0  0  0  0  0
   12.9487   -1.8184    0.0000 C   0  0  0  0  0  0  0  0  0  0  0  0
   13.6631   -1.4059    0.0000 C   0  0  0  0  0  0  0  0  0  0  0  0
  1  2  1  0  0  0  0
  2  3  1  0  0  0  0
  3  4  2  0  0  0  0
  3  5  1  0  0  0  0
  5  6  1  0  0  0  0
  6  7  1  0  0  0  0
  5  8  1  0  0  0  0
  8  9  1  0  0  0  0
  9 10  1  0  0  0  0
 10 11  1  0  0  0  0
  1 12  1  0  0  0  0
 12 13  1  0  0  0  0
 13 14  1  0  0  0  0
 14 15  1  0  0  0  0
 15 16  1  0  0  0  0
 16 17  1  0  0  0  0
 17 18  1  0  0  0  0
 18 19  1  0  0  0  0
 19 20  1  0  0  0  0
 20 21  2  0  0  0  0
 20 22  1  0  0  0  0
 22 23  1  0  0  0  0
 23 24  1  0  0  0  0
 22 25  1  0  0  0  0
 25 26  1  0  0  0  0
 26 27  1  0  0  0  0
 27 28  1  0  0  0  0
M  END
> <ChemID>
10193

> <CAS>
94-28-0

> <Original_SMILES>
CCCCC(CC)C(=O)OCCOCCOCCOC(=O)C(CCCC)CC

> <preferred_name>
Triethylene glycol bis(2-ethylhexanoate)

> <dsstox_substance_id>
DTXSID3026564

> <dsstox_compound_id>
DTXCID006564

> <Canonical_QSARr>
CCCCC(CC)C(=O)OCCOCCOCCOC(=O)C(CCCC)CC

> <InChI_Code_QSARr>
InChI=1S/C22H42O6/c1-5-9-11-19(7-3)21(23)27-17-15-25-13-14-26-16-18-28-22(24)20(8-4)12-10-6-2/h19-20H,5-18H2,1-4H3

> <InChI Key_QSARr>
FRQDZJMEHSJOPU-UHFFFAOYSA-N

> <Salt_Solvent>


> <Salt_Solvent_ID>
0

> <Clint>
1.3544926005894364

> <Tr_1_Tst_0>
0

$$$$
Row150
  Mrv171c012261910192D          

 29 28  0  0  0  0            999 V2000
    2.9640   -4.3663    0.0000 C   0  0  0  0  0  0  0  0  0  0  0  0
    2.9640   -5.1913    0.0000 O   0  0  0  0  0  0  0  0  0  0  0  0
    2.2495   -3.9538    0.0000 O   0  0  0  0  0  0  0  0  0  0  0  0
    1.5351   -4.3663    0.0000 C   0  0  0  0  0  0  0  0  0  0  0  0
    0.8206   -3.9538    0.0000 C   0  0  0  0  0  0  0  0  0  0  0  0
    0.8206   -3.1288    0.0000 C   0  0  0  0  0  0  0  0  0  0  0  0
    0.1061   -2.7163    0.0000 C   0  0  0  0  0  0  0  0  0  0  0  0
    0.1061   -4.3663    0.0000 C   0  0  0  0  0  0  0  0  0  0  0  0
   -0.6084   -3.9538    0.0000 C   0  0  0  0  0  0  0  0  0  0  0  0
   -1.3228   -4.3663    0.0000 C   0  0  0  0  0  0  0  0  0  0  0  0
   -2.0373   -3.9538    0.0000 C   0  0  0  0  0  0  0  0  0  0  0  0
    3.6785   -3.9538    0.0000 C   0  0  0  0  0  0  0  0  0  0  0  0
    4.3929   -4.3663    0.0000 C   0  0  0  0  0  0  0  0  0  0  0  0
    5.1074   -3.9538    0.0000 C   0  0  0  0  0  0  0  0  0  0  0  0
    5.8219   -4.3663    0.0000 C   0  0  0  0  0  0  0  0  0  0  0  0
    6.5364   -3.9538    0.0000 C   0  0  0  0  0  0  0  0  0  0  0  0
    7.2508   -4.3663    0.0000 C   0  0  0  0  0  0  0  0  0  0  0  0
    7.9653   -3.9538    0.0000 C   0  0  0  0  0  0  0  0  0  0  0  0
    8.6798   -4.3663    0.0000 C   0  0  0  0  0  0  0  0  0  0  0  0
    8.6798   -5.1913    0.0000 O   0  0  0  0  0  0  0  0  0  0  0  0
    9.3942   -3.9538    0.0000 O   0  0  0  0  0  0  0  0  0  0  0  0
   10.1087   -4.3663    0.0000 C   0  0  0  0  0  0  0  0  0  0  0  0
   10.8232   -3.9538    0.0000 C   0  0  0  0  0  0  0  0  0  0  0  0
   10.8232   -3.1288    0.0000 C   0  0  0  0  0  0  0  0  0  0  0  0
   11.5377   -2.7163    0.0000 C   0  0  0  0  0  0  0  0  0  0  0  0
   11.5377   -4.3663    0.0000 C   0  0  0  0  0  0  0  0  0  0  0  0
   12.2521   -3.9538    0.0000 C   0  0  0  0  0  0  0  0  0  0  0  0
   12.9666   -4.3663    0.0000 C   0  0  0  0  0  0  0  0  0  0  0  0
   13.6811   -3.9538    0.0000 C   0  0  0  0  0  0  0  0  0  0  0  0
  1  2  2  0  0  0  0
  1  3  1  0  0  0  0
  3  4  1  0  0  0  0
  4  5  1  0  0  0  0
  5  6  1  0  0  0  0
  6  7  1  0  0  0  0
  5  8  1  0  0  0  0
  8  9  1  0  0  0  0
  9 10  1  0  0  0  0
 10 11  1  0  0  0  0
  1 12  1  0  0  0  0
 12 13  1  0  0  0  0
 13 14  1  0  0  0  0
 14 15  1  0  0  0  0
 15 16  1  0  0  0  0
 16 17  1  0  0  0  0
 17 18  1  0  0  0  0
 18 19  1  0  0  0  0
 19 20  2  0  0  0  0
 19 21  1  0  0  0  0
 21 22  1  0  0  0  0
 22 23  1  0  0  0  0
 23 24  1  0  0  0  0
 24 25  1  0  0  0  0
 23 26  1  0  0  0  0
 26 27  1  0  0  0  0
 27 28  1  0  0  0  0
 28 29  1  0  0  0  0
M  END
> <ChemID>
10194

> <CAS>
103-24-2

> <Original_SMILES>
CCCCC(COC(=O)CCCCCCCC(=O)OCC(CCCC)CC)CC

> <preferred_name>
Bis(2-ethylhexyl) nonanedioate

> <dsstox_substance_id>
DTXSID3026697

> <dsstox_compound_id>
DTXCID306697

> <Canonical_QSARr>
CCCCC(COC(=O)CCCCCCCC(=O)OCC(CCCC)CC)CC

> <InChI_Code_QSARr>
InChI=1S/C25H48O4/c1-5-9-16-22(7-3)20-28-24(26)18-14-12-11-13-15-19-25(27)29-21-23(8-4)17-10-6-2/h22-23H,5-21H2,1-4H3

> <InChI Key_QSARr>
ZDWGXBPVPXVXMQ-UHFFFAOYSA-N

> <Salt_Solvent>


> <Salt_Solvent_ID>
0

> <Clint>
0.4985862088175177

> <Tr_1_Tst_0>
1

$$$$
Row426
  Mrv171c012261910192D          

 31 30  0  0  0  0            999 V2000
    6.6736   -5.4478    0.0000 C   0  0  0  0  0  0  0  0  0  0  0  0
    5.9591   -5.8603    0.0000 O   0  0  0  0  0  0  0  0  0  0  0  0
    7.3881   -5.8603    0.0000 O   0  0  0  0  0  0  0  0  0  0  0  0
    6.6736   -4.6228    0.0000 C   0  0  0  0  0  0  0  0  0  0  0  0
    7.4986   -4.6228    0.0000 F   0  0  0  0  0  0  0  0  0  0  0  0
    5.8486   -4.6228    0.0000 F   0  0  0  0  0  0  0  0  0  0  0  0
    6.6736   -3.7978    0.0000 C   0  0  0  0  0  0  0  0  0  0  0  0
    7.4986   -3.7978    0.0000 F   0  0  0  0  0  0  0  0  0  0  0  0
    5.8486   -3.7978    0.0000 F   0  0  0  0  0  0  0  0  0  0  0  0
    6.6736   -2.9728    0.0000 C   0  0  0  0  0  0  0  0  0  0  0  0
    7.4986   -2.9728    0.0000 F   0  0  0  0  0  0  0  0  0  0  0  0
    5.8486   -2.9728    0.0000 F   0  0  0  0  0  0  0  0  0  0  0  0
    6.6736   -2.1478    0.0000 C   0  0  0  0  0  0  0  0  0  0  0  0
    7.4986   -2.1478    0.0000 F   0  0  0  0  0  0  0  0  0  0  0  0
    5.8486   -2.1478    0.0000 F   0  0  0  0  0  0  0  0  0  0  0  0
    6.6736   -1.3228    0.0000 C   0  0  0  0  0  0  0  0  0  0  0  0
    7.4986   -1.3228    0.0000 F   0  0  0  0  0  0  0  0  0  0  0  0
    5.8486   -1.3228    0.0000 F   0  0  0  0  0  0  0  0  0  0  0  0
    6.6736   -0.4978    0.0000 C   0  0  0  0  0  0  0  0  0  0  0  0
    7.4986   -0.4978    0.0000 F   0  0  0  0  0  0  0  0  0  0  0  0
    5.8486   -0.4978    0.0000 F   0  0  0  0  0  0  0  0  0  0  0  0
    6.6736    0.3272    0.0000 C   0  0  0  0  0  0  0  0  0  0  0  0
    7.4986    0.3272    0.0000 F   0  0  0  0  0  0  0  0  0  0  0  0
    5.8486    0.3272    0.0000 F   0  0  0  0  0  0  0  0  0  0  0  0
    6.6736    1.1522    0.0000 C   0  0  0  0  0  0  0  0  0  0  0  0
    7.4986    1.1522    0.0000 F   0  0  0  0  0  0  0  0  0  0  0  0
    5.8486    1.1522    0.0000 F   0  0  0  0  0  0  0  0  0  0  0  0
    6.6736    1.9772    0.0000 C   0  0  0  0  0  0  0  0  0  0  0  0
    6.6736    2.8022    0.0000 F   0  0  0  0  0  0  0  0  0  0  0  0
    7.4986    1.9772    0.0000 F   0  0  0  0  0  0  0  0  0  0  0  0
    5.8486    1.9772    0.0000 F   0  0  0  0  0  0  0  0  0  0  0  0
  1  2  2  0  0  0  0
  1  3  1  0  0  0  0
  1  4  1  0  0  0  0
  4  5  1  0  0  0  0
  4  6  1  0  0  0  0
  4  7  1  0  0  0  0
  7  8  1  0  0  0  0
  7  9  1  0  0  0  0
  7 10  1  0  0  0  0
 10 11  1  0  0  0  0
 10 12  1  0  0  0  0
 10 13  1  0  0  0  0
 13 14  1  0  0  0  0
 13 15  1  0  0  0  0
 13 16  1  0  0  0  0
 16 17  1  0  0  0  0
 16 18  1  0  0  0  0
 16 19  1  0  0  0  0
 19 20  1  0  0  0  0
 19 21  1  0  0  0  0
 19 22  1  0  0  0  0
 22 23  1  0  0  0  0
 22 24  1  0  0  0  0
 22 25  1  0  0  0  0
 25 26  1  0  0  0  0
 25 27  1  0  0  0  0
 25 28  1  0  0  0  0
 28 29  1  0  0  0  0
 28 30  1  0  0  0  0
 28 31  1  0  0  0  0
M  END
> <ChemID>
10195

> <CAS>
335-76-2

> <Original_SMILES>
OC(=O)C(F)(F)C(F)(F)C(F)(F)C(F)(F)C(F)(F)C(F)(F)C(F)(F)C(F)(F)C(F)(F)F

> <preferred_name>
Perfluorodecanoic acid

> <dsstox_substance_id>
DTXSID3031860

> <dsstox_compound_id>
DTXCID1011860

> <Canonical_QSARr>
OC(=O)C(F)(F)C(F)(F)C(F)(F)C(F)(F)C(F)(F)C(F)(F)C(F)(F)C(F)(F)C(F)(F)F

> <InChI_Code_QSARr>
InChI=1S/C10HF19O2/c11-2(12,1(30)31)3(13,14)4(15,16)5(17,18)6(19,20)7(21,22)8(23,24)9(25,26)10(27,28)29/h(H,30,31)

> <InChI Key_QSARr>
PCIUEQPBYFRTEM-UHFFFAOYSA-N

> <Salt_Solvent>


> <Salt_Solvent_ID>
0

> <Clint>
-7.0

> <Tr_1_Tst_0>
0

$$$$
Row40
  Mrv171c012261910192D          

 19 18  0  0  0  0            999 V2000
    4.0499   -3.8399    0.0000 C   0  0  0  0  0  0  0  0  0  0  0  0
    3.3355   -4.2524    0.0000 O   0  0  0  0  0  0  0  0  0  0  0  0
    4.7644   -4.2524    0.0000 O   0  0  0  0  0  0  0  0  0  0  0  0
    4.0499   -3.0149    0.0000 C   0  0  0  0  0  0  0  0  0  0  0  0
    4.8749   -3.0149    0.0000 F   0  0  0  0  0  0  0  0  0  0  0  0
    3.2249   -3.0149    0.0000 F   0  0  0  0  0  0  0  0  0  0  0  0
    4.0499   -2.1899    0.0000 C   0  0  0  0  0  0  0  0  0  0  0  0
    4.8749   -2.1899    0.0000 F   0  0  0  0  0  0  0  0  0  0  0  0
    3.2249   -2.1899    0.0000 F   0  0  0  0  0  0  0  0  0  0  0  0
    4.0499   -1.3649    0.0000 C   0  0  0  0  0  0  0  0  0  0  0  0
    4.8749   -1.3649    0.0000 F   0  0  0  0  0  0  0  0  0  0  0  0
    3.2249   -1.3649    0.0000 F   0  0  0  0  0  0  0  0  0  0  0  0
    4.0499   -0.5399    0.0000 C   0  0  0  0  0  0  0  0  0  0  0  0
    4.8749   -0.5399    0.0000 F   0  0  0  0  0  0  0  0  0  0  0  0
    3.2249   -0.5399    0.0000 F   0  0  0  0  0  0  0  0  0  0  0  0
    4.0499    0.2851    0.0000 C   0  0  0  0  0  0  0  0  0  0  0  0
    4.0499    1.1101    0.0000 F   0  0  0  0  0  0  0  0  0  0  0  0
    4.8749    0.2851    0.0000 F   0  0  0  0  0  0  0  0  0  0  0  0
    3.2249    0.2851    0.0000 F   0  0  0  0  0  0  0  0  0  0  0  0
  1  2  2  0  0  0  0
  1  3  1  0  0  0  0
  1  4  1  0  0  0  0
  4  5  1  0  0  0  0
  4  6  1  0  0  0  0
  4  7  1  0  0  0  0
  7  8  1  0  0  0  0
  7  9  1  0  0  0  0
  7 10  1  0  0  0  0
 10 11  1  0  0  0  0
 10 12  1  0  0  0  0
 10 13  1  0  0  0  0
 13 14  1  0  0  0  0
 13 15  1  0  0  0  0
 13 16  1  0  0  0  0
 16 17  1  0  0  0  0
 16 18  1  0  0  0  0
 16 19  1  0  0  0  0
M  END
> <ChemID>
10196

> <CAS>
307-24-4

> <Original_SMILES>
OC(=O)C(F)(F)C(F)(F)C(F)(F)C(F)(F)C(F)(F)F

> <preferred_name>
Perfluorohexanoic acid

> <dsstox_substance_id>
DTXSID3031862

> <dsstox_compound_id>
DTXCID1011862

> <Canonical_QSARr>
OC(=O)C(F)(F)C(F)(F)C(F)(F)C(F)(F)C(F)(F)F

> <InChI_Code_QSARr>
InChI=1S/C6HF11O2/c7-2(8,1(18)19)3(9,10)4(11,12)5(13,14)6(15,16)17/h(H,18,19)

> <InChI Key_QSARr>
PXUULQAPEKKVAH-UHFFFAOYSA-N

> <Salt_Solvent>


> <Salt_Solvent_ID>
0

> <Clint>
-7.0

> <Tr_1_Tst_0>
1

$$$$
Row17
  Mrv171c012261910192D          

 29 28  0  0  0  0            999 V2000
    0.0000   -2.4750    0.0000 C   0  0  0  0  0  0  0  0  0  0  0  0
    0.8250   -2.4750    0.0000 F   0  0  0  0  0  0  0  0  0  0  0  0
   -0.8250   -2.4750    0.0000 F   0  0  0  0  0  0  0  0  0  0  0  0
    0.0000   -3.3000    0.0000 S   0  0  0  0  0  0  0  0  0  0  0  0
    0.0000   -4.1250    0.0000 O   0  0  0  0  0  0  0  0  0  0  0  0
    0.8250   -3.3000    0.0000 O   0  0  0  0  0  0  0  0  0  0  0  0
   -0.8250   -3.3000    0.0000 O   0  0  0  0  0  0  0  0  0  0  0  0
    0.0000   -1.6500    0.0000 C   0  0  0  0  0  0  0  0  0  0  0  0
    0.8250   -1.6500    0.0000 F   0  0  0  0  0  0  0  0  0  0  0  0
   -0.8250   -1.6500    0.0000 F   0  0  0  0  0  0  0  0  0  0  0  0
    0.0000   -0.8250    0.0000 C   0  0  0  0  0  0  0  0  0  0  0  0
    0.8250   -0.8250    0.0000 F   0  0  0  0  0  0  0  0  0  0  0  0
   -0.8250   -0.8250    0.0000 F   0  0  0  0  0  0  0  0  0  0  0  0
    0.0000   -0.0000    0.0000 C   0  0  0  0  0  0  0  0  0  0  0  0
    0.8250   -0.0000    0.0000 F   0  0  0  0  0  0  0  0  0  0  0  0
   -0.8250   -0.0000    0.0000 F   0  0  0  0  0  0  0  0  0  0  0  0
    0.0000    0.8250    0.0000 C   0  0  0  0  0  0  0  0  0  0  0  0
    0.8250    0.8250    0.0000 F   0  0  0  0  0  0  0  0  0  0  0  0
   -0.8250    0.8250    0.0000 F   0  0  0  0  0  0  0  0  0  0  0  0
    0.0000    1.6500    0.0000 C   0  0  0  0  0  0  0  0  0  0  0  0
    0.8250    1.6500    0.0000 F   0  0  0  0  0  0  0  0  0  0  0  0
   -0.8250    1.6500    0.0000 F   0  0  0  0  0  0  0  0  0  0  0  0
    0.0000    2.4750    0.0000 C   0  0  0  0  0  0  0  0  0  0  0  0
    0.8250    2.4750    0.0000 F   0  0  0  0  0  0  0  0  0  0  0  0
   -0.8250    2.4750    0.0000 F   0  0  0  0  0  0  0  0  0  0  0  0
    0.0000    3.3000    0.0000 C   0  0  0  0  0  0  0  0  0  0  0  0
    0.0000    4.1250    0.0000 F   0  0  0  0  0  0  0  0  0  0  0  0
    0.8250    3.3000    0.0000 F   0  0  0  0  0  0  0  0  0  0  0  0
   -0.8250    3.3000    0.0000 F   0  0  0  0  0  0  0  0  0  0  0  0
  1  2  1  0  0  0  0
  1  3  1  0  0  0  0
  1  4  1  0  0  0  0
  4  5  2  0  0  0  0
  4  6  1  0  0  0  0
  4  7  2  0  0  0  0
  1  8  1  0  0  0  0
  8  9  1  0  0  0  0
  8 10  1  0  0  0  0
  8 11  1  0  0  0  0
 11 12  1  0  0  0  0
 11 13  1  0  0  0  0
 11 14  1  0  0  0  0
 14 15  1  0  0  0  0
 14 16  1  0  0  0  0
 14 17  1  0  0  0  0
 17 18  1  0  0  0  0
 17 19  1  0  0  0  0
 17 20  1  0  0  0  0
 20 21  1  0  0  0  0
 20 22  1  0  0  0  0
 20 23  1  0  0  0  0
 23 24  1  0  0  0  0
 23 25  1  0  0  0  0
 23 26  1  0  0  0  0
 26 27  1  0  0  0  0
 26 28  1  0  0  0  0
 26 29  1  0  0  0  0
M  END
> <ChemID>
10197

> <CAS>
1763-23-1

> <Original_SMILES>
OS(=O)(=O)C(F)(F)C(F)(F)C(F)(F)C(F)(F)C(F)(F)C(F)(F)C(F)(F)C(F)(F)F

> <preferred_name>
Perfluorooctanesulfonic acid

> <dsstox_substance_id>
DTXSID3031864

> <dsstox_compound_id>
DTXCID1011864

> <Canonical_QSARr>
OS(=O)(=O)C(F)(F)C(F)(F)C(F)(F)C(F)(F)C(F)(F)C(F)(F)C(F)(F)C(F)(F)F

> <InChI_Code_QSARr>
InChI=1S/C8HF17O3S/c9-1(10,3(13,14)5(17,18)7(21,22)23)2(11,12)4(15,16)6(19,20)8(24,25)29(26,27)28/h(H,26,27,28)

> <InChI Key_QSARr>
YFSUTJLHUFNCNZ-UHFFFAOYSA-N

> <Salt_Solvent>


> <Salt_Solvent_ID>
0

> <Clint>
-7.0

> <Tr_1_Tst_0>
1

$$$$
Row347
  Mrv171c012261910192D          

 21 21  0  0  0  0            999 V2000
    3.4370   -1.8500    0.0000 C   0  0  0  0  0  0  0  0  0  0  0  0
    3.4370   -1.0250    0.0000 C   0  0  0  0  0  0  0  0  0  0  0  0
    2.7225   -0.6125    0.0000 C   0  0  0  0  0  0  0  0  0  0  0  0
    2.7225    0.2125    0.0000 C   0  0  0  0  0  0  0  0  0  0  0  0
    2.7225    1.0375    0.0000 C   0  0  0  0  0  0  0  0  0  0  0  0
    1.8975    0.2125    0.0000 C   0  0  0  0  0  0  0  0  0  0  0  0
    3.5475    0.2125    0.0000 C   0  0  0  0  0  0  0  0  0  0  0  0
    2.0081   -1.0250    0.0000 C   0  0  0  0  0  0  0  0  0  0  0  0
    2.0081   -1.8500    0.0000 C   0  0  0  0  0  0  0  0  0  0  0  0
    1.2936   -2.2625    0.0000 N   0  3  0  0  0  0  0  0  0  0  0  0
    0.5791   -1.8500    0.0000 O   0  0  0  0  0  0  0  0  0  0  0  0
    1.2936   -3.0875    0.0000 O   0  5  0  0  0  0  0  0  0  0  0  0
    2.7225   -2.2625    0.0000 C   0  0  0  0  0  0  0  0  0  0  0  0
    2.7225   -3.0875    0.0000 N   0  0  0  0  0  0  0  0  0  0  0  0
    2.0081   -3.5000    0.0000 C   0  0  0  0  0  0  0  0  0  0  0  0
    1.1876   -3.5863    0.0000 C   0  0  0  0  0  0  0  0  0  0  0  0
    2.0081   -4.3250    0.0000 C   0  0  0  0  0  0  0  0  0  0  0  0
    1.2936   -4.7375    0.0000 C   0  0  0  0  0  0  0  0  0  0  0  0
    4.1515   -2.2625    0.0000 N   0  3  0  0  0  0  0  0  0  0  0  0
    4.1515   -3.0875    0.0000 O   0  0  0  0  0  0  0  0  0  0  0  0
    4.8660   -1.8500    0.0000 O   0  5  0  0  0  0  0  0  0  0  0  0
  2  1  1  0  0  0  0
  3  2  2  0  0  0  0
  3  4  1  0  0  0  0
  4  5  1  0  0  0  0
  4  6  1  0  0  0  0
  4  7  1  0  0  0  0
  8  3  1  0  0  0  0
  9  8  2  0  0  0  0
  9 10  1  0  0  0  0
 10 11  2  0  0  0  0
 10 12  1  0  0  0  0
 13  9  1  0  0  0  0
  1 13  2  0  0  0  0
 13 14  1  0  0  0  0
 14 15  1  0  0  0  0
 15 16  1  0  0  0  0
 15 17  1  0  0  0  0
 17 18  1  0  0  0  0
  1 19  1  0  0  0  0
 19 20  2  0  0  0  0
 19 21  1  0  0  0  0
M  CHG  4  10   1  12  -1  19   1  21  -1
M  END
> <ChemID>
10198

> <CAS>
33629-47-9

> <Original_SMILES>
CCC(C)Nc1c(cc(cc1[N+]([O-])=O)C(C)(C)C)[N+]([O-])=O

> <preferred_name>
Butralin

> <dsstox_substance_id>
DTXSID3032337

> <dsstox_compound_id>
DTXCID1012337

> <Canonical_QSARr>
CCC(C)NC1C(=CC(=CC=1[N+]([O-])=O)C(C)(C)C)[N+]([O-])=O

> <InChI_Code_QSARr>
InChI=1S/C14H21N3O4/c1-6-9(2)15-13-11(16(18)19)7-10(14(3,4)5)8-12(13)17(20)21/h7-9,15H,6H2,1-5H3

> <InChI Key_QSARr>
SPNQRCTZKIBOAX-UHFFFAOYSA-N

> <Salt_Solvent>


> <Salt_Solvent_ID>
0

> <Clint>
1.4962375451667351

> <Tr_1_Tst_0>
1

$$$$
Row404
  Mrv171c012261910192D          

 12 12  0  0  0  0            999 V2000
    3.0640   -3.0124    0.0000 Cl  0  0  0  0  0  0  0  0  0  0  0  0
    2.5791   -2.3450    0.0000 C   0  0  0  0  0  0  0  0  0  0  0  0
    3.2465   -1.8600    0.0000 Cl  0  0  0  0  0  0  0  0  0  0  0  0
    1.9116   -2.8299    0.0000 Cl  0  0  0  0  0  0  0  0  0  0  0  0
    2.0942   -1.6775    0.0000 C   0  0  0  0  0  0  0  0  0  0  0  0
    2.3491   -0.8929    0.0000 N   0  0  0  0  0  0  0  0  0  0  0  0
    1.6817   -0.4080    0.0000 C   0  0  0  0  0  0  0  0  0  0  0  0
    1.6817    0.4170    0.0000 O   0  0  0  0  0  0  0  0  0  0  0  0
    2.3961    0.8295    0.0000 C   0  0  0  0  0  0  0  0  0  0  0  0
    2.3961    1.6545    0.0000 C   0  0  0  0  0  0  0  0  0  0  0  0
    1.0142   -0.8929    0.0000 S   0  0  0  0  0  0  0  0  0  0  0  0
    1.2692   -1.6775    0.0000 N   0  0  0  0  0  0  0  0  0  0  0  0
  1  2  1  0  0  0  0
  2  3  1  0  0  0  0
  2  4  1  0  0  0  0
  2  5  1  0  0  0  0
  6  5  1  0  0  0  0
  7  6  2  0  0  0  0
  7  8  1  0  0  0  0
  8  9  1  0  0  0  0
  9 10  1  0  0  0  0
 11  7  1  0  0  0  0
 12 11  1  0  0  0  0
  5 12  2  0  0  0  0
M  END
> <ChemID>
10199

> <CAS>
2593-15-9

> <Original_SMILES>
CCOc1[n]c([n][s]1)C(Cl)(Cl)Cl

> <preferred_name>
Etridiazole

> <dsstox_substance_id>
DTXSID3032547

> <dsstox_compound_id>
DTXCID1012547

> <Canonical_QSARr>
CCOC1=NC(=NS1)C(Cl)(Cl)Cl

> <InChI_Code_QSARr>
InChI=1S/C5H5Cl3N2OS/c1-2-11-4-9-3(10-12-4)5(6,7)8/h2H2,1H3

> <InChI Key_QSARr>
KQTVWCSONPJJPE-UHFFFAOYSA-N

> <Salt_Solvent>


> <Salt_Solvent_ID>
0

> <Clint>
2.1037695231936726

> <Tr_1_Tst_0>
1

$$$$
Row357
  Mrv171c012261910192D          

 19 20  0  0  0  0            999 V2000
    3.4288   -2.5949    0.0000 C   0  0  0  0  0  0  0  0  0  0  0  0
    2.6164   -2.4517    0.0000 C   0  0  0  0  0  0  0  0  0  0  0  0
    3.4288   -1.7699    0.0000 C   0  0  0  0  0  0  0  0  0  0  0  0
    2.7144   -1.3574    0.0000 N   0  0  0  0  0  0  0  0  0  0  0  0
    2.7144   -0.5324    0.0000 C   0  0  0  0  0  0  0  0  0  0  0  0
    3.4288   -0.1199    0.0000 C   0  0  0  0  0  0  0  0  0  0  0  0
    3.4288    0.7051    0.0000 C   0  0  0  0  0  0  0  0  0  0  0  0
    2.7144    1.1176    0.0000 C   0  0  0  0  0  0  0  0  0  0  0  0
    2.7144    1.9426    0.0000 O   0  0  0  0  0  0  0  0  0  0  0  0
    1.9999    0.7051    0.0000 C   0  0  0  0  0  0  0  0  0  0  0  0
    1.2854    1.1176    0.0000 Cl  0  0  0  0  0  0  0  0  0  0  0  0
    1.9999   -0.1199    0.0000 C   0  0  0  0  0  0  0  0  0  0  0  0
    1.2854   -0.5324    0.0000 Cl  0  0  0  0  0  0  0  0  0  0  0  0
    4.1433   -1.3574    0.0000 O   0  0  0  0  0  0  0  0  0  0  0  0
    3.1467   -3.3702    0.0000 C   0  0  0  0  0  0  0  0  0  0  0  0
    3.6770   -4.0022    0.0000 C   0  0  0  0  0  0  0  0  0  0  0  0
    4.4894   -3.8589    0.0000 C   0  0  0  0  0  0  0  0  0  0  0  0
    4.7716   -3.0837    0.0000 C   0  0  0  0  0  0  0  0  0  0  0  0
    4.2413   -2.4517    0.0000 C   0  0  0  0  0  0  0  0  0  0  0  0
  1  2  1  0  0  0  0
  1  3  1  0  0  0  0
  3  4  1  0  0  0  0
  4  5  1  0  0  0  0
  6  5  1  0  0  0  0
  7  6  2  0  0  0  0
  8  7  1  0  0  0  0
  8  9  1  0  0  0  0
 10  8  2  0  0  0  0
 10 11  1  0  0  0  0
 12 10  1  0  0  0  0
  5 12  2  0  0  0  0
 12 13  1  0  0  0  0
  3 14  2  0  0  0  0
 15  1  1  0  0  0  0
 16 15  1  0  0  0  0
 17 16  1  0  0  0  0
 18 17  1  0  0  0  0
 19 18  1  0  0  0  0
  1 19  1  0  0  0  0
M  END
> <ChemID>
10200

> <CAS>
126833-17-8

> <Original_SMILES>
CC1(CCCCC1)C(=O)Nc1ccc(O)c(Cl)c1Cl

> <preferred_name>
Fenhexamid

> <dsstox_substance_id>
DTXSID3032549

> <dsstox_compound_id>
DTXCID1012549

> <Canonical_QSARr>
CC1(CCCCC1)C(=O)NC1C=CC(O)=C(Cl)C=1Cl

> <InChI_Code_QSARr>
InChI=1S/C14H17Cl2NO2/c1-14(7-3-2-4-8-14)13(19)17-9-5-6-10(18)12(16)11(9)15/h5-6,18H,2-4,7-8H2,1H3,(H,17,19)

> <InChI Key_QSARr>
VDLGAVXLJYLFDH-UHFFFAOYSA-N

> <Salt_Solvent>


> <Salt_Solvent_ID>
0

> <Clint>
1.5474054596674895

> <Tr_1_Tst_0>
1

$$$$
Row505
  Mrv171c012261910192D          

 27 28  0  0  0  0            999 V2000
    3.9879   -2.7003    0.0000 C   0  0  0  0  0  0  0  0  0  0  0  0
    3.9879   -1.8753    0.0000 N   0  0  0  0  0  0  0  0  0  0  0  0
    4.7024   -1.4628    0.0000 N   0  0  0  0  0  0  0  0  0  0  0  0
    5.4169   -1.8752    0.0000 C   0  0  0  0  0  0  0  0  0  0  0  0
    5.0044   -2.5897    0.0000 C   0  0  0  0  0  0  0  0  0  0  0  0
    5.8294   -1.1608    0.0000 C   0  0  0  0  0  0  0  0  0  0  0  0
    6.1314   -2.2877    0.0000 C   0  0  0  0  0  0  0  0  0  0  0  0
    4.7024   -0.6378    0.0000 C   0  0  0  0  0  0  0  0  0  0  0  0
    5.4169   -0.2253    0.0000 C   0  0  0  0  0  0  0  0  0  0  0  0
    6.1314   -0.6378    0.0000 C   0  0  0  0  0  0  0  0  0  0  0  0
    6.8458   -0.2252    0.0000 C   0  0  0  0  0  0  0  0  0  0  0  0
    7.5603   -0.6377    0.0000 C   0  0  0  0  0  0  0  0  0  0  0  0
    6.8458    0.5998    0.0000 C   0  0  0  0  0  0  0  0  0  0  0  0
    6.1314    1.0123    0.0000 C   0  0  0  0  0  0  0  0  0  0  0  0
    6.1314    1.8372    0.0000 C   0  0  0  0  0  0  0  0  0  0  0  0
    5.4169    0.5997    0.0000 C   0  0  0  0  0  0  0  0  0  0  0  0
    3.9879   -0.2253    0.0000 O   0  0  0  0  0  0  0  0  0  0  0  0
    3.2735   -3.1128    0.0000 C   0  0  0  0  0  0  0  0  0  0  0  0
    2.5590   -2.7002    0.0000 C   0  0  0  0  0  0  0  0  0  0  0  0
    1.8445   -3.1128    0.0000 C   0  0  0  0  0  0  0  0  0  0  0  0
    1.8445   -3.9378    0.0000 C   0  0  0  0  0  0  0  0  0  0  0  0
    2.5590   -4.3502    0.0000 C   0  0  0  0  0  0  0  0  0  0  0  0
    2.5590   -5.1752    0.0000 O   0  0  0  0  0  0  0  0  0  0  0  0
    1.8445   -5.5878    0.0000 C   0  0  0  0  0  0  0  0  0  0  0  0
    3.2735   -3.9377    0.0000 C   0  0  0  0  0  0  0  0  0  0  0  0
    3.9879   -4.3502    0.0000 C   0  0  0  0  0  0  0  0  0  0  0  0
    4.7024   -3.1128    0.0000 O   0  0  0  0  0  0  0  0  0  0  0  0
  1  2  1  0  0  0  0
  2  3  1  0  0  0  0
  3  4  1  0  0  0  0
  4  5  1  0  0  0  0
  4  6  1  0  0  0  0
  4  7  1  0  0  0  0
  3  8  1  0  0  0  0
  8  9  1  0  0  0  0
 10  9  1  0  0  0  0
 11 10  2  0  0  0  0
 11 12  1  0  0  0  0
 13 11  1  0  0  0  0
 14 13  2  0  0  0  0
 14 15  1  0  0  0  0
 16 14  1  0  0  0  0
  9 16  2  0  0  0  0
  8 17  2  0  0  0  0
  1 18  1  0  0  0  0
 19 18  1  0  0  0  0
 20 19  2  0  0  0  0
 21 20  1  0  0  0  0
 22 21  2  0  0  0  0
 22 23  1  0  0  0  0
 23 24  1  0  0  0  0
 25 22  1  0  0  0  0
 18 25  2  0  0  0  0
 25 26  1  0  0  0  0
  1 27  2  0  0  0  0
M  END
> <ChemID>
10201

> <CAS>
161050-58-4

> <Original_SMILES>
COc1cccc(C(=O)NN(C(=O)c2cc(C)cc(C)c2)C(C)(C)C)c1C

> <preferred_name>
Methoxyfenozide

> <dsstox_substance_id>
DTXSID3032628

> <dsstox_compound_id>
DTXCID1012628

> <Canonical_QSARr>
COC1=CC=CC(C(=O)NN(C(=O)C2C=C(C)C=C(C)C=2)C(C)(C)C)=C1C

> <InChI_Code_QSARr>
InChI=1S/C22H28N2O3/c1-14-11-15(2)13-17(12-14)21(26)24(22(4,5)6)23-20(25)18-9-8-10-19(27-7)16(18)3/h8-13H,1-7H3,(H,23,25)

> <InChI Key_QSARr>
QCAWEPFNJXQPAN-UHFFFAOYSA-N

> <Salt_Solvent>


> <Salt_Solvent_ID>
0

> <Clint>
1.2095150145426308

> <Tr_1_Tst_0>
0

$$$$
Row545
  Mrv171c012261910192D          

 21 21  0  0  0  0            999 V2000
    2.3318   -1.7625    0.0000 N   0  0  0  0  0  0  0  0  0  0  0  0
    1.5217   -1.6066    0.0000 C   0  0  0  0  0  0  0  0  0  0  0  0
    0.9816   -2.2303    0.0000 O   0  0  0  0  0  0  0  0  0  0  0  0
    0.1715   -2.0744    0.0000 C   0  0  0  0  0  0  0  0  0  0  0  0
   -0.3686   -2.6980    0.0000 C   0  0  0  0  0  0  0  0  0  0  0  0
   -1.1788   -2.5421    0.0000 C   0  0  0  0  0  0  0  0  0  0  0  0
   -1.7189   -3.1657    0.0000 C   0  0  0  0  0  0  0  0  0  0  0  0
    2.6019   -2.5421    0.0000 C   0  0  0  0  0  0  0  0  0  0  0  0
    3.4120   -2.6980    0.0000 C   0  0  0  0  0  0  0  0  0  0  0  0
    3.6820   -3.4776    0.0000 Cl  0  0  0  0  0  0  0  0  0  0  0  0
    2.0618   -3.1657    0.0000 O   0  0  0  0  0  0  0  0  0  0  0  0
    2.8719   -1.1389    0.0000 C   0  0  0  0  0  0  0  0  0  0  0  0
    3.6820   -1.2948    0.0000 C   0  0  0  0  0  0  0  0  0  0  0  0
    3.9521   -2.0744    0.0000 C   0  0  0  0  0  0  0  0  0  0  0  0
    4.7622   -2.2303    0.0000 C   0  0  0  0  0  0  0  0  0  0  0  0
    4.2221   -0.6712    0.0000 C   0  0  0  0  0  0  0  0  0  0  0  0
    3.9521    0.1084    0.0000 C   0  0  0  0  0  0  0  0  0  0  0  0
    3.1419    0.2643    0.0000 C   0  0  0  0  0  0  0  0  0  0  0  0
    2.6019   -0.3593    0.0000 C   0  0  0  0  0  0  0  0  0  0  0  0
    1.7917   -0.2034    0.0000 C   0  0  0  0  0  0  0  0  0  0  0  0
    1.2516   -0.8271    0.0000 C   0  0  0  0  0  0  0  0  0  0  0  0
  1  2  1  0  0  0  0
  2  3  1  0  0  0  0
  3  4  1  0  0  0  0
  4  5  1  0  0  0  0
  5  6  1  0  0  0  0
  6  7  1  0  0  0  0
  1  8  1  0  0  0  0
  8  9  1  0  0  0  0
  9 10  1  0  0  0  0
  8 11  2  0  0  0  0
  1 12  1  0  0  0  0
 13 12  2  0  0  0  0
 13 14  1  0  0  0  0
 14 15  1  0  0  0  0
 16 13  1  0  0  0  0
 17 16  2  0  0  0  0
 18 17  1  0  0  0  0
 19 18  2  0  0  0  0
 12 19  1  0  0  0  0
 19 20  1  0  0  0  0
 20 21  1  0  0  0  0
M  END
> <ChemID>
10202

> <CAS>
23184-66-9

> <Original_SMILES>
CCCCOCN(C(=O)CCl)c1c(CC)cccc1CC

> <preferred_name>
Butachlor

> <dsstox_substance_id>
DTXSID3034402

> <dsstox_compound_id>
DTXCID1014402

> <Canonical_QSARr>
CCCCOCN(C(=O)CCl)C1C(CC)=CC=CC=1CC

> <InChI_Code_QSARr>
InChI=1S/C17H26ClNO2/c1-4-7-11-21-13-19(16(20)12-18)17-14(5-2)9-8-10-15(17)6-3/h8-10H,4-7,11-13H2,1-3H3

> <InChI Key_QSARr>
HKPHPIREJKHECO-UHFFFAOYSA-N

> <Salt_Solvent>


> <Salt_Solvent_ID>
0

> <Clint>
2.0034605321095063

> <Tr_1_Tst_0>
0

$$$$
Row343
  Mrv171c012261910192D          

 20 22  0  0  0  0            999 V2000
    0.6916   -0.2257    0.0000 C   0  0  0  0  0  0  0  0  0  0  0  0
    1.4060    0.1868    0.0000 C   0  0  0  0  0  0  0  0  0  0  0  0
    1.4060    1.0118    0.0000 C   0  0  0  0  0  0  0  0  0  0  0  0
    2.1205    1.4243    0.0000 C   0  0  0  0  0  0  0  0  0  0  0  0
    0.6916    1.4243    0.0000 C   0  0  0  0  0  0  0  0  0  0  0  0
    2.1205   -0.2257    0.0000 C   0  0  0  0  0  0  0  0  0  0  0  0
    2.1205   -1.0507    0.0000 C   0  0  0  0  0  0  0  0  0  0  0  0
    2.8350   -1.4632    0.0000 O   0  0  0  0  0  0  0  0  0  0  0  0
    2.8350   -2.2882    0.0000 C   0  0  0  0  0  0  0  0  0  0  0  0
    3.5494   -2.7007    0.0000 C   0  0  0  0  0  0  0  0  0  0  0  0
    3.5494   -3.5257    0.0000 C   0  0  0  0  0  0  0  0  0  0  0  0
    2.8350   -3.9382    0.0000 C   0  0  0  0  0  0  0  0  0  0  0  0
    4.2639   -3.9382    0.0000 C   0  0  0  0  0  0  0  0  0  0  0  0
    4.9784   -3.5257    0.0000 C   0  0  0  0  0  0  0  0  0  0  0  0
    4.9784   -2.7007    0.0000 C   0  0  0  0  0  0  0  0  0  0  0  0
    4.2639   -2.2882    0.0000 C   0  0  0  0  0  0  0  0  0  0  0  0
    1.4060   -1.4632    0.0000 C   0  0  0  0  0  0  0  0  0  0  0  0
    1.4060   -2.2882    0.0000 C   0  0  0  0  0  0  0  0  0  0  0  0
    1.1998   -0.6382    0.0000 O   0  0  0  0  0  0  0  0  0  0  0  0
    0.6916   -1.0507    0.0000 C   0  0  0  0  0  0  0  0  0  0  0  0
  2  1  1  0  0  0  0
  2  3  1  0  0  0  0
  3  4  1  0  0  0  0
  3  5  1  0  0  0  0
  2  6  1  0  0  0  0
  6  7  1  0  0  0  0
  7  8  1  0  0  0  0
  8  9  1  0  0  0  0
  9 10  1  0  0  0  0
 11 10  2  0  0  0  0
 11 12  1  0  0  0  0
 13 11  1  0  0  0  0
 14 13  2  0  0  0  0
 15 14  1  0  0  0  0
 16 15  2  0  0  0  0
 10 16  1  0  0  0  0
  7 17  1  0  0  0  0
 17 18  1  0  0  0  0
 17 19  1  0  0  0  0
 19  2  1  0  0  0  0
 20 17  1  0  0  0  0
  1 20  1  0  0  0  0
M  END
> <ChemID>
10203

> <CAS>
87818-31-3

> <Original_SMILES>
C[C@@]12CC[C@@](C[C@@H]1OCc1ccccc1C)(O2)C(C)C

> <preferred_name>
Cinmethylin

> <dsstox_substance_id>
DTXSID3034456

> <dsstox_compound_id>
DTXCID60196478

> <Canonical_QSARr>
CC12CCC(CC1OCC1C=CC=CC=1C)(O2)C(C)C

> <InChI_Code_QSARr>
InChI=1S/C18H26O2/c1-13(2)18-10-9-17(4,20-18)16(11-18)19-12-15-8-6-5-7-14(15)3/h5-8,13,16H,9-12H2,1-4H3

> <InChI Key_QSARr>
QMTNOLKHSWIQBE-UHFFFAOYSA-N

> <Salt_Solvent>


> <Salt_Solvent_ID>
0

> <Clint>
1.449786846985773

> <Tr_1_Tst_0>
1

$$$$
Row416
  Mrv171c012261910192D          

 22 23  0  0  0  0            999 V2000
    3.1461   -2.4874    0.0000 C   0  0  0  0  0  0  0  0  0  0  0  0
    2.6611   -3.1548    0.0000 C   0  0  0  0  0  0  0  0  0  0  0  0
    1.8407   -3.0686    0.0000 N   0  0  0  0  0  0  0  0  0  0  0  0
    1.3557   -3.7360    0.0000 C   0  0  0  0  0  0  0  0  0  0  0  0
    1.6913   -4.4897    0.0000 C   0  0  0  0  0  0  0  0  0  0  0  0
    1.2064   -5.1571    0.0000 C   0  0  0  0  0  0  0  0  0  0  0  0
    1.5419   -5.9108    0.0000 O   0  0  0  0  0  0  0  0  0  0  0  0
    1.0570   -6.5782    0.0000 C   0  0  0  0  0  0  0  0  0  0  0  0
    2.5118   -4.5759    0.0000 C   0  0  0  0  0  0  0  0  0  0  0  0
    2.9967   -3.9085    0.0000 C   0  0  0  0  0  0  0  0  0  0  0  0
    3.8172   -3.9947    0.0000 C   0  0  0  0  0  0  0  0  0  0  0  0
    4.3021   -3.3273    0.0000 O   0  0  0  0  0  0  0  0  0  0  0  0
    4.1527   -4.7484    0.0000 O   0  0  0  0  0  0  0  0  0  0  0  0
    3.9711   -2.4874    0.0000 N   0  0  0  0  0  0  0  0  0  0  0  0
    4.2260   -1.7027    0.0000 C   0  0  0  0  0  0  0  0  0  0  0  0
    5.0106   -1.4478    0.0000 O   0  0  0  0  0  0  0  0  0  0  0  0
    3.5586   -1.2178    0.0000 C   0  0  0  0  0  0  0  0  0  0  0  0
    4.1106   -0.6047    0.0000 C   0  0  0  0  0  0  0  0  0  0  0  0
    3.0065   -0.6047    0.0000 C   0  0  0  0  0  0  0  0  0  0  0  0
    2.1996   -0.7763    0.0000 C   0  0  0  0  0  0  0  0  0  0  0  0
    3.2615    0.1799    0.0000 C   0  0  0  0  0  0  0  0  0  0  0  0
    2.8911   -1.7027    0.0000 N   0  0  0  0  0  0  0  0  0  0  0  0
  1  2  1  0  0  0  0
  3  2  2  0  0  0  0
  4  3  1  0  0  0  0
  5  4  2  0  0  0  0
  5  6  1  0  0  0  0
  6  7  1  0  0  0  0
  7  8  1  0  0  0  0
  9  5  1  0  0  0  0
 10  9  2  0  0  0  0
  2 10  1  0  0  0  0
 10 11  1  0  0  0  0
 11 12  1  0  0  0  0
 11 13  2  0  0  0  0
 14  1  1  0  0  0  0
 15 14  1  0  0  0  0
 15 16  2  0  0  0  0
 17 15  1  0  0  0  0
 17 18  1  0  0  0  0
 17 19  1  0  0  0  0
 19 20  1  0  0  0  0
 19 21  1  0  0  0  0
 22 17  1  0  0  0  0
  1 22  2  0  0  0  0
M  END
> <ChemID>
10204

> <CAS>
114311-32-9

> <Original_SMILES>
CC1(N=C(NC1=O)c1[n]cc(COC)cc1C(O)=O)C(C)C

> <preferred_name>
Imazamox

> <dsstox_substance_id>
DTXSID3034664

> <dsstox_compound_id>
DTXCID1014664

> <Canonical_QSARr>
CC1(N=C(NC1=O)C1=NC=C(COC)C=C1C(O)=O)C(C)C

> <InChI_Code_QSARr>
InChI=1S/C15H19N3O4/c1-8(2)15(3)14(21)17-12(18-15)11-10(13(19)20)5-9(6-16-11)7-22-4/h5-6,8H,7H2,1-4H3,(H,19,20)(H,17,18,21)

> <InChI Key_QSARr>
NUPJIGQFXCQJBK-UHFFFAOYSA-N

> <Salt_Solvent>


> <Salt_Solvent_ID>
0

> <Clint>
-7.0

> <Tr_1_Tst_0>
0

$$$$
Row117
  Mrv171c012261910192D          

 15 16  0  0  0  0            999 V2000
    0.2455   -2.7205    0.0000 N   0  0  0  0  0  0  0  0  0  0  0  0
    0.2455   -1.8955    0.0000 C   0  0  0  0  0  0  0  0  0  0  0  0
    0.9600   -1.4830    0.0000 C   0  0  0  0  0  0  0  0  0  0  0  0
    0.9600   -0.6580    0.0000 N   0  0  0  0  0  0  0  0  0  0  0  0
    0.2455   -0.2455    0.0000 N   0  0  0  0  0  0  0  0  0  0  0  0
    0.2455    0.5795    0.0000 C   0  0  0  0  0  0  0  0  0  0  0  0
    0.9600    0.9920    0.0000 C   0  0  0  0  0  0  0  0  0  0  0  0
    0.9600    1.8170    0.0000 C   0  0  0  0  0  0  0  0  0  0  0  0
    0.2455    2.2295    0.0000 C   0  0  0  0  0  0  0  0  0  0  0  0
   -0.4689    1.8170    0.0000 C   0  0  0  0  0  0  0  0  0  0  0  0
   -0.4689    0.9920    0.0000 C   0  0  0  0  0  0  0  0  0  0  0  0
   -0.4689   -0.6580    0.0000 C   0  0  0  0  0  0  0  0  0  0  0  0
   -1.1834   -0.2455    0.0000 O   0  0  0  0  0  0  0  0  0  0  0  0
   -0.4689   -1.4830    0.0000 C   0  0  0  0  0  0  0  0  0  0  0  0
   -1.1834   -1.8955    0.0000 Cl  0  0  0  0  0  0  0  0  0  0  0  0
  1  2  2  0  0  0  0
  3  2  1  0  0  0  0
  4  3  2  0  0  0  0
  5  4  1  0  0  0  0
  5  6  1  0  0  0  0
  7  6  1  0  0  0  0
  8  7  2  0  0  0  0
  9  8  1  0  0  0  0
 10  9  2  0  0  0  0
 11 10  1  0  0  0  0
  6 11  2  0  0  0  0
 12  5  1  0  0  0  0
 12 13  2  0  0  0  0
 14 12  1  0  0  0  0
  2 14  1  0  0  0  0
 14 15  1  0  0  0  0
M  END
> <ChemID>
10205

> <CAS>
1698-60-8

> <Original_SMILES>
NC1C=NN(C(=O)C=1Cl)c1ccccc1

> <preferred_name>
Chloridazon

> <dsstox_substance_id>
DTXSID3034872

> <dsstox_compound_id>
DTXCID1014872

> <Canonical_QSARr>
N=C1C=NN(C(=O)C1Cl)C1C=CC=CC=1

> <InChI_Code_QSARr>
InChI=1S/C10H8ClN3O/c11-9-8(12)6-13-14(10(9)15)7-4-2-1-3-5-7/h1-6,9,12H

> <InChI Key_QSARr>
KPDZMYAYZCKXQP-UHFFFAOYSA-N

> <Salt_Solvent>


> <Salt_Solvent_ID>
0

> <Clint>
0.27184160653649897

> <Tr_1_Tst_0>
1

$$$$
Row100
  Mrv171c012261910192D          

 17 16  0  0  0  0            999 V2000
   -0.0420   -2.3125    0.0000 O   0  0  0  0  0  0  0  0  0  0  0  0
   -0.0420   -1.4875    0.0000 S   0  0  0  0  0  0  0  0  0  0  0  0
   -0.0420   -0.6625    0.0000 C   0  0  0  0  0  0  0  0  0  0  0  0
   -0.0420    0.1625    0.0000 C   0  0  0  0  0  0  0  0  0  0  0  0
   -0.0420    0.9875    0.0000 C   0  0  0  0  0  0  0  0  0  0  0  0
   -0.0420    1.8125    0.0000 C   0  0  0  0  0  0  0  0  0  0  0  0
   -0.0420    2.6375    0.0000 F   0  0  0  0  0  0  0  0  0  0  0  0
    0.7830    1.8125    0.0000 F   0  0  0  0  0  0  0  0  0  0  0  0
   -0.8670    1.8125    0.0000 F   0  0  0  0  0  0  0  0  0  0  0  0
    0.7830    0.9875    0.0000 F   0  0  0  0  0  0  0  0  0  0  0  0
   -0.8670    0.9875    0.0000 F   0  0  0  0  0  0  0  0  0  0  0  0
    0.7830    0.1625    0.0000 F   0  0  0  0  0  0  0  0  0  0  0  0
   -0.8670    0.1625    0.0000 F   0  0  0  0  0  0  0  0  0  0  0  0
    0.7830   -0.6625    0.0000 F   0  0  0  0  0  0  0  0  0  0  0  0
   -0.8670   -0.6625    0.0000 F   0  0  0  0  0  0  0  0  0  0  0  0
    0.7830   -1.4875    0.0000 O   0  0  0  0  0  0  0  0  0  0  0  0
   -0.8670   -1.4875    0.0000 O   0  0  0  0  0  0  0  0  0  0  0  0
  1  2  1  0  0  0  0
  2  3  1  0  0  0  0
  3  4  1  0  0  0  0
  4  5  1  0  0  0  0
  5  6  1  0  0  0  0
  6  7  1  0  0  0  0
  6  8  1  0  0  0  0
  6  9  1  0  0  0  0
  5 10  1  0  0  0  0
  5 11  1  0  0  0  0
  4 12  1  0  0  0  0
  4 13  1  0  0  0  0
  3 14  1  0  0  0  0
  3 15  1  0  0  0  0
  2 16  2  0  0  0  0
  2 17  2  0  0  0  0
M  END
> <ChemID>
10206

> <CAS>
29420-49-3

> <Original_SMILES>
[K+].[O-]S(=O)(=O)C(F)(F)C(F)(F)C(F)(F)C(F)(F)F

> <preferred_name>
Potassium perfluorobutanesulfonate

> <dsstox_substance_id>
DTXSID3037707

> <dsstox_compound_id>
DTXCID1017707

> <Canonical_QSARr>
OS(=O)(=O)C(F)(F)C(F)(F)C(F)(F)C(F)(F)F

> <InChI_Code_QSARr>
InChI=1S/C4HF9O3S/c5-1(6,3(9,10)11)2(7,8)4(12,13)17(14,15)16/h(H,14,15,16)

> <InChI Key_QSARr>
JGTNAGYHADQMCM-UHFFFAOYSA-N

> <Salt_Solvent>
[K+]

> <Salt_Solvent_ID>
190

> <Clint>
0.06152787089050782

> <Tr_1_Tst_0>
1

$$$$
Row45
  Mrv171c012261910192D          

 23 22  0  0  0  0            999 V2000
   -0.0311   -3.0614    0.0000 O   0  0  0  0  0  0  0  0  0  0  0  0
   -0.0311   -2.2364    0.0000 S   0  0  0  0  0  0  0  0  0  0  0  0
   -0.0311   -1.4114    0.0000 C   0  0  0  0  0  0  0  0  0  0  0  0
   -0.0311   -0.5864    0.0000 C   0  0  0  0  0  0  0  0  0  0  0  0
   -0.0311    0.2386    0.0000 C   0  0  0  0  0  0  0  0  0  0  0  0
   -0.0311    1.0636    0.0000 C   0  0  0  0  0  0  0  0  0  0  0  0
   -0.0311    1.8886    0.0000 C   0  0  0  0  0  0  0  0  0  0  0  0
   -0.0311    2.7136    0.0000 C   0  0  0  0  0  0  0  0  0  0  0  0
   -0.0311    3.5386    0.0000 F   0  0  0  0  0  0  0  0  0  0  0  0
    0.7939    2.7136    0.0000 F   0  0  0  0  0  0  0  0  0  0  0  0
   -0.8561    2.7136    0.0000 F   0  0  0  0  0  0  0  0  0  0  0  0
    0.7939    1.8886    0.0000 F   0  0  0  0  0  0  0  0  0  0  0  0
   -0.8561    1.8886    0.0000 F   0  0  0  0  0  0  0  0  0  0  0  0
    0.7939    1.0636    0.0000 F   0  0  0  0  0  0  0  0  0  0  0  0
   -0.8561    1.0636    0.0000 F   0  0  0  0  0  0  0  0  0  0  0  0
    0.7939    0.2386    0.0000 F   0  0  0  0  0  0  0  0  0  0  0  0
   -0.8561    0.2386    0.0000 F   0  0  0  0  0  0  0  0  0  0  0  0
    0.7939   -0.5864    0.0000 F   0  0  0  0  0  0  0  0  0  0  0  0
   -0.8561   -0.5864    0.0000 F   0  0  0  0  0  0  0  0  0  0  0  0
    0.7939   -1.4114    0.0000 F   0  0  0  0  0  0  0  0  0  0  0  0
   -0.8561   -1.4114    0.0000 F   0  0  0  0  0  0  0  0  0  0  0  0
    0.7939   -2.2364    0.0000 O   0  0  0  0  0  0  0  0  0  0  0  0
   -0.8561   -2.2364    0.0000 O   0  0  0  0  0  0  0  0  0  0  0  0
  1  2  1  0  0  0  0
  2  3  1  0  0  0  0
  3  4  1  0  0  0  0
  4  5  1  0  0  0  0
  5  6  1  0  0  0  0
  6  7  1  0  0  0  0
  7  8  1  0  0  0  0
  8  9  1  0  0  0  0
  8 10  1  0  0  0  0
  8 11  1  0  0  0  0
  7 12  1  0  0  0  0
  7 13  1  0  0  0  0
  6 14  1  0  0  0  0
  6 15  1  0  0  0  0
  5 16  1  0  0  0  0
  5 17  1  0  0  0  0
  4 18  1  0  0  0  0
  4 19  1  0  0  0  0
  3 20  1  0  0  0  0
  3 21  1  0  0  0  0
  2 22  2  0  0  0  0
  2 23  2  0  0  0  0
M  END
> <ChemID>
10207

> <CAS>
3871-99-6

> <Original_SMILES>
[K+].[O-]S(=O)(=O)C(F)(F)C(F)(F)C(F)(F)C(F)(F)C(F)(F)C(F)(F)F

> <preferred_name>
Potassium perfluorohexanesulfonate

> <dsstox_substance_id>
DTXSID3037709

> <dsstox_compound_id>
DTXCID1017709

> <Canonical_QSARr>
OS(=O)(=O)C(F)(F)C(F)(F)C(F)(F)C(F)(F)C(F)(F)C(F)(F)F

> <InChI_Code_QSARr>
InChI=1S/C6HF13O3S/c7-1(8,3(11,12)5(15,16)17)2(9,10)4(13,14)6(18,19)23(20,21)22/h(H,20,21,22)

> <InChI Key_QSARr>
QZHDEAJFRJCDMF-UHFFFAOYSA-N

> <Salt_Solvent>
[K+]

> <Salt_Solvent_ID>
190

> <Clint>
-7.0

> <Tr_1_Tst_0>
1

$$$$
Row244
  Mrv171c012261910192D          

 29 28  0  0  0  0            999 V2000
    5.7753   -4.1580    0.0000 C   0  0  0  0  0  0  0  0  0  0  0  0
    6.6003   -4.1580    0.0000 F   0  0  0  0  0  0  0  0  0  0  0  0
    4.9503   -4.1580    0.0000 F   0  0  0  0  0  0  0  0  0  0  0  0
    5.7753   -4.9830    0.0000 S   0  0  0  0  0  0  0  0  0  0  0  0
    5.7753   -5.8080    0.0000 O   0  0  0  0  0  0  0  0  0  0  0  0
    6.6003   -4.9830    0.0000 N   0  0  0  0  0  0  0  0  0  0  0  0
    4.9503   -4.9830    0.0000 O   0  0  0  0  0  0  0  0  0  0  0  0
    5.7753   -3.3330    0.0000 C   0  0  0  0  0  0  0  0  0  0  0  0
    6.6003   -3.3330    0.0000 F   0  0  0  0  0  0  0  0  0  0  0  0
    4.9503   -3.3330    0.0000 F   0  0  0  0  0  0  0  0  0  0  0  0
    5.7753   -2.5080    0.0000 C   0  0  0  0  0  0  0  0  0  0  0  0
    6.6003   -2.5080    0.0000 F   0  0  0  0  0  0  0  0  0  0  0  0
    4.9503   -2.5080    0.0000 F   0  0  0  0  0  0  0  0  0  0  0  0
    5.7753   -1.6830    0.0000 C   0  0  0  0  0  0  0  0  0  0  0  0
    6.6003   -1.6830    0.0000 F   0  0  0  0  0  0  0  0  0  0  0  0
    4.9503   -1.6830    0.0000 F   0  0  0  0  0  0  0  0  0  0  0  0
    5.7753   -0.8580    0.0000 C   0  0  0  0  0  0  0  0  0  0  0  0
    6.6003   -0.8580    0.0000 F   0  0  0  0  0  0  0  0  0  0  0  0
    4.9503   -0.8580    0.0000 F   0  0  0  0  0  0  0  0  0  0  0  0
    5.7753   -0.0330    0.0000 C   0  0  0  0  0  0  0  0  0  0  0  0
    6.6003   -0.0330    0.0000 F   0  0  0  0  0  0  0  0  0  0  0  0
    4.9503   -0.0330    0.0000 F   0  0  0  0  0  0  0  0  0  0  0  0
    5.7753    0.7920    0.0000 C   0  0  0  0  0  0  0  0  0  0  0  0
    6.6003    0.7920    0.0000 F   0  0  0  0  0  0  0  0  0  0  0  0
    4.9503    0.7920    0.0000 F   0  0  0  0  0  0  0  0  0  0  0  0
    5.7753    1.6170    0.0000 C   0  0  0  0  0  0  0  0  0  0  0  0
    5.7753    2.4420    0.0000 F   0  0  0  0  0  0  0  0  0  0  0  0
    6.6003    1.6170    0.0000 F   0  0  0  0  0  0  0  0  0  0  0  0
    4.9503    1.6170    0.0000 F   0  0  0  0  0  0  0  0  0  0  0  0
  1  2  1  0  0  0  0
  1  3  1  0  0  0  0
  1  4  1  0  0  0  0
  4  5  2  0  0  0  0
  4  6  1  0  0  0  0
  4  7  2  0  0  0  0
  1  8  1  0  0  0  0
  8  9  1  0  0  0  0
  8 10  1  0  0  0  0
  8 11  1  0  0  0  0
 11 12  1  0  0  0  0
 11 13  1  0  0  0  0
 11 14  1  0  0  0  0
 14 15  1  0  0  0  0
 14 16  1  0  0  0  0
 14 17  1  0  0  0  0
 17 18  1  0  0  0  0
 17 19  1  0  0  0  0
 17 20  1  0  0  0  0
 20 21  1  0  0  0  0
 20 22  1  0  0  0  0
 20 23  1  0  0  0  0
 23 24  1  0  0  0  0
 23 25  1  0  0  0  0
 23 26  1  0  0  0  0
 26 27  1  0  0  0  0
 26 28  1  0  0  0  0
 26 29  1  0  0  0  0
M  END
> <ChemID>
10208

> <CAS>
754-91-6

> <Original_SMILES>
NS(=O)(=O)C(F)(F)C(F)(F)C(F)(F)C(F)(F)C(F)(F)C(F)(F)C(F)(F)C(F)(F)F

> <preferred_name>
Perfluorooctanesulfonamide

> <dsstox_substance_id>
DTXSID3038939

> <dsstox_compound_id>
DTXCID1018939

> <Canonical_QSARr>
NS(=O)(=O)C(F)(F)C(F)(F)C(F)(F)C(F)(F)C(F)(F)C(F)(F)C(F)(F)C(F)(F)F

> <InChI_Code_QSARr>
InChI=1S/C8H2F17NO2S/c9-1(10,3(13,14)5(17,18)7(21,22)23)2(11,12)4(15,16)6(19,20)8(24,25)29(26,27)28/h(H2,26,27,28)

> <InChI Key_QSARr>
RRRXPPIDPYTNJG-UHFFFAOYSA-N

> <Salt_Solvent>


> <Salt_Solvent_ID>
0

> <Clint>
1.0764948050097203

> <Tr_1_Tst_0>
1

$$$$
Row434
  Mrv171c012261910192D          

 18 19  0  0  0  0            999 V2000
    2.5275   -1.6352    0.0000 C   0  0  0  0  0  0  0  0  0  0  0  0
    1.8131   -1.2227    0.0000 C   0  0  0  0  0  0  0  0  0  0  0  0
    1.8131   -0.3977    0.0000 Cl  0  0  0  0  0  0  0  0  0  0  0  0
    1.0986   -1.6352    0.0000 C   0  0  0  0  0  0  0  0  0  0  0  0
    1.0986   -2.4602    0.0000 C   0  0  0  0  0  0  0  0  0  0  0  0
    0.3841   -2.8727    0.0000 Cl  0  0  0  0  0  0  0  0  0  0  0  0
    1.8131   -2.8727    0.0000 C   0  0  0  0  0  0  0  0  0  0  0  0
    2.5275   -2.4602    0.0000 C   0  0  0  0  0  0  0  0  0  0  0  0
    3.2420   -2.8727    0.0000 Cl  0  0  0  0  0  0  0  0  0  0  0  0
    3.2420   -1.2227    0.0000 C   0  0  0  0  0  0  0  0  0  0  0  0
    3.9565   -1.6352    0.0000 C   0  0  0  0  0  0  0  0  0  0  0  0
    3.9565   -2.4602    0.0000 Cl  0  0  0  0  0  0  0  0  0  0  0  0
    4.6709   -1.2227    0.0000 C   0  0  0  0  0  0  0  0  0  0  0  0
    4.6709   -0.3977    0.0000 C   0  0  0  0  0  0  0  0  0  0  0  0
    5.3854    0.0148    0.0000 Cl  0  0  0  0  0  0  0  0  0  0  0  0
    3.9565    0.0148    0.0000 C   0  0  0  0  0  0  0  0  0  0  0  0
    3.2420   -0.3977    0.0000 C   0  0  0  0  0  0  0  0  0  0  0  0
    2.5275    0.0148    0.0000 Cl  0  0  0  0  0  0  0  0  0  0  0  0
  2  1  1  0  0  0  0
  2  3  1  0  0  0  0
  4  2  2  0  0  0  0
  5  4  1  0  0  0  0
  5  6  1  0  0  0  0
  7  5  2  0  0  0  0
  8  7  1  0  0  0  0
  1  8  2  0  0  0  0
  8  9  1  0  0  0  0
  1 10  1  0  0  0  0
 11 10  1  0  0  0  0
 11 12  1  0  0  0  0
 13 11  2  0  0  0  0
 14 13  1  0  0  0  0
 14 15  1  0  0  0  0
 16 14  2  0  0  0  0
 17 16  1  0  0  0  0
 10 17  2  0  0  0  0
 17 18  1  0  0  0  0
M  END
> <ChemID>
10209

> <CAS>
33979-03-2

> <Original_SMILES>
Clc1cc(Cl)c(-c2c(Cl)cc(Cl)cc2Cl)c(Cl)c1

> <preferred_name>
2,2',4,4',6,6'-Hexachlorobiphenyl

> <dsstox_substance_id>
DTXSID3040302

> <dsstox_compound_id>
DTXCID1020302

> <Canonical_QSARr>
ClC1=CC(Cl)=C(C2C(Cl)=CC(Cl)=CC=2Cl)C(Cl)=C1

> <InChI_Code_QSARr>
InChI=1S/C12H4Cl6/c13-5-1-7(15)11(8(16)2-5)12-9(17)3-6(14)4-10(12)18/h1-4H

> <InChI Key_QSARr>
ICOAEPDGFWLUTI-UHFFFAOYSA-N

> <Salt_Solvent>


> <Salt_Solvent_ID>
0

> <Clint>
-5.034328028779893

> <Tr_1_Tst_0>
0

$$$$
Row253
  Mrv171c012261910192D          

 21 21  0  0  0  0            999 V2000
    2.1346   -1.8857    0.0000 N   0  0  0  0  0  0  0  0  0  0  0  0
    2.8491   -1.4732    0.0000 C   0  0  0  0  0  0  0  0  0  0  0  0
    3.5635   -1.8857    0.0000 C   0  0  0  0  0  0  0  0  0  0  0  0
    4.2780   -1.4732    0.0000 C   0  0  0  0  0  0  0  0  0  0  0  0
    4.9925   -1.8857    0.0000 C   0  0  0  0  0  0  0  0  0  0  0  0
    5.7069   -1.4732    0.0000 C   0  0  0  0  0  0  0  0  0  0  0  0
    6.4214   -1.8857    0.0000 C   0  0  0  0  0  0  0  0  0  0  0  0
    7.1359   -1.4732    0.0000 C   0  0  0  0  0  0  0  0  0  0  0  0
    7.8504   -1.8857    0.0000 C   0  0  0  0  0  0  0  0  0  0  0  0
    8.5648   -1.4732    0.0000 C   0  0  0  0  0  0  0  0  0  0  0  0
    9.2793   -1.8857    0.0000 C   0  0  0  0  0  0  0  0  0  0  0  0
    9.9938   -1.4732    0.0000 C   0  0  0  0  0  0  0  0  0  0  0  0
   10.7082   -1.8857    0.0000 C   0  0  0  0  0  0  0  0  0  0  0  0
   11.4227   -1.4732    0.0000 C   0  0  0  0  0  0  0  0  0  0  0  0
    1.4201   -1.4732    0.0000 C   0  0  0  0  0  0  0  0  0  0  0  0
    0.7056   -1.8857    0.0000 C   0  0  0  0  0  0  0  0  0  0  0  0
   -0.0088   -1.4732    0.0000 C   0  0  0  0  0  0  0  0  0  0  0  0
    0.7056   -2.7107    0.0000 O   0  0  0  0  0  0  0  0  0  0  0  0
    1.4201   -3.1232    0.0000 C   0  0  0  0  0  0  0  0  0  0  0  0
    1.4201   -3.9482    0.0000 C   0  0  0  0  0  0  0  0  0  0  0  0
    2.1346   -2.7107    0.0000 C   0  0  0  0  0  0  0  0  0  0  0  0
  1  2  1  0  0  0  0
  2  3  1  0  0  0  0
  3  4  1  0  0  0  0
  4  5  1  0  0  0  0
  5  6  1  0  0  0  0
  6  7  1  0  0  0  0
  7  8  1  0  0  0  0
  8  9  1  0  0  0  0
  9 10  1  0  0  0  0
 10 11  1  0  0  0  0
 11 12  1  0  0  0  0
 12 13  1  0  0  0  0
 13 14  1  0  0  0  0
 15  1  1  0  0  0  0
 16 15  1  0  0  0  0
 16 17  1  0  0  0  0
 18 16  1  0  0  0  0
 19 18  1  0  0  0  0
 19 20  1  0  0  0  0
 21 19  1  0  0  0  0
  1 21  1  0  0  0  0
M  END
> <ChemID>
10210

> <CAS>
24602-86-6

> <Original_SMILES>
CCCCCCCCCCCCCN1CC(C)OC(C)C1

> <preferred_name>
Tridemorph

> <dsstox_substance_id>
DTXSID3041376

> <dsstox_compound_id>
DTXCID1021376

> <Canonical_QSARr>
CCCCCCCCCCCCCN1CC(C)OC(C)C1

> <InChI_Code_QSARr>
InChI=1S/C19H39NO/c1-4-5-6-7-8-9-10-11-12-13-14-15-20-16-18(2)21-19(3)17-20/h18-19H,4-17H2,1-3H3

> <InChI Key_QSARr>
YTOPFCCWCSOHFV-UHFFFAOYSA-N

> <Salt_Solvent>


> <Salt_Solvent_ID>
0

> <Clint>
1.110993517377995

> <Tr_1_Tst_0>
1

$$$$
Row407
  Mrv171c012261910192D          

 27 26  0  0  0  0            999 V2000
   -0.9396   -3.0984    0.0000 C   0  0  0  0  0  0  0  0  0  0  0  0
   -1.3521   -2.3839    0.0000 O   0  0  0  0  0  0  0  0  0  0  0  0
   -0.9396   -1.6694    0.0000 C   0  0  0  0  0  0  0  0  0  0  0  0
   -1.3521   -0.9550    0.0000 C   0  0  0  0  0  0  0  0  0  0  0  0
   -0.9396   -0.2405    0.0000 C   0  0  0  0  0  0  0  0  0  0  0  0
   -1.6541    0.1720    0.0000 F   0  0  0  0  0  0  0  0  0  0  0  0
   -0.2251   -0.6530    0.0000 F   0  0  0  0  0  0  0  0  0  0  0  0
   -0.5271    0.4740    0.0000 C   0  0  0  0  0  0  0  0  0  0  0  0
   -1.2416    0.8865    0.0000 F   0  0  0  0  0  0  0  0  0  0  0  0
    0.1874    0.0615    0.0000 F   0  0  0  0  0  0  0  0  0  0  0  0
   -0.1146    1.1884    0.0000 C   0  0  0  0  0  0  0  0  0  0  0  0
   -0.8291    1.6009    0.0000 F   0  0  0  0  0  0  0  0  0  0  0  0
    0.5999    0.7759    0.0000 F   0  0  0  0  0  0  0  0  0  0  0  0
    0.2979    1.9029    0.0000 C   0  0  0  0  0  0  0  0  0  0  0  0
   -0.4166    2.3154    0.0000 F   0  0  0  0  0  0  0  0  0  0  0  0
    1.0124    1.4904    0.0000 F   0  0  0  0  0  0  0  0  0  0  0  0
    0.7104    2.6174    0.0000 C   0  0  0  0  0  0  0  0  0  0  0  0
   -0.0041    3.0299    0.0000 F   0  0  0  0  0  0  0  0  0  0  0  0
    1.4249    2.2049    0.0000 F   0  0  0  0  0  0  0  0  0  0  0  0
    1.1229    3.3319    0.0000 C   0  0  0  0  0  0  0  0  0  0  0  0
    1.5354    4.0463    0.0000 F   0  0  0  0  0  0  0  0  0  0  0  0
    0.4084    3.7444    0.0000 F   0  0  0  0  0  0  0  0  0  0  0  0
    1.8374    2.9194    0.0000 F   0  0  0  0  0  0  0  0  0  0  0  0
   -0.1146   -3.0984    0.0000 O   0  0  0  0  0  0  0  0  0  0  0  0
   -1.3521   -3.8128    0.0000 C   0  0  0  0  0  0  0  0  0  0  0  0
   -0.9396   -4.5273    0.0000 C   0  0  0  0  0  0  0  0  0  0  0  0
   -2.1771   -3.8128    0.0000 C   0  0  0  0  0  0  0  0  0  0  0  0
  1  2  1  0  0  0  0
  2  3  1  0  0  0  0
  3  4  1  0  0  0  0
  4  5  1  0  0  0  0
  5  6  1  0  0  0  0
  5  7  1  0  0  0  0
  5  8  1  0  0  0  0
  8  9  1  0  0  0  0
  8 10  1  0  0  0  0
  8 11  1  0  0  0  0
 11 12  1  0  0  0  0
 11 13  1  0  0  0  0
 11 14  1  0  0  0  0
 14 15  1  0  0  0  0
 14 16  1  0  0  0  0
 14 17  1  0  0  0  0
 17 18  1  0  0  0  0
 17 19  1  0  0  0  0
 17 20  1  0  0  0  0
 20 21  1  0  0  0  0
 20 22  1  0  0  0  0
 20 23  1  0  0  0  0
  1 24  2  0  0  0  0
  1 25  1  0  0  0  0
 25 26  1  0  0  0  0
 25 27  2  0  0  0  0
M  END
> <ChemID>
10211

> <CAS>
2144-53-8

> <Original_SMILES>
CC(=C)C(=O)OCCC(F)(F)C(F)(F)C(F)(F)C(F)(F)C(F)(F)C(F)(F)F

> <preferred_name>
6:2 Fluorotelomer methacrylate

> <dsstox_substance_id>
DTXSID3047558

> <dsstox_compound_id>
DTXCID1027558

> <Canonical_QSARr>
CC(=C)C(=O)OCCC(F)(F)C(F)(F)C(F)(F)C(F)(F)C(F)(F)C(F)(F)F

> <InChI_Code_QSARr>
InChI=1S/C12H9F13O2/c1-5(2)6(26)27-4-3-7(13,14)8(15,16)9(17,18)10(19,20)11(21,22)12(23,24)25/h1,3-4H2,2H3

> <InChI Key_QSARr>
CDXFIRXEAJABAZ-UHFFFAOYSA-N

> <Salt_Solvent>


> <Salt_Solvent_ID>
0

> <Clint>
2.294333933583456

> <Tr_1_Tst_0>
1

$$$$
Row56
  Mrv171c012261910192D          

 26 29  0  0  0  0            999 V2000
    4.4455   -1.5471    0.0000 O   0  0  0  0  0  0  0  0  0  0  0  0
    5.1600   -1.9596    0.0000 C   0  0  0  0  0  0  0  0  0  0  0  0
    5.1600   -2.7846    0.0000 C   0  0  0  0  0  0  0  0  0  0  0  0
    5.8744   -3.1971    0.0000 C   0  0  0  0  0  0  0  0  0  0  0  0
    6.5889   -2.7846    0.0000 C   0  0  0  0  0  0  0  0  0  0  0  0
    6.5889   -1.9596    0.0000 C   0  0  0  0  0  0  0  0  0  0  0  0
    5.8744   -1.5471    0.0000 C   0  0  0  0  0  0  0  0  0  0  0  0
    4.4455   -0.7221    0.0000 C   0  0  0  0  0  0  0  0  0  0  0  0
    3.7310   -0.3096    0.0000 C   0  0  0  0  0  0  0  0  0  0  0  0
    3.7310    0.5154    0.0000 C   0  0  0  0  0  0  0  0  0  0  0  0
    3.0165    0.9279    0.0000 C   0  0  0  0  0  0  0  0  0  0  0  0
    3.0165    1.7529    0.0000 N   0  0  0  0  0  0  0  0  0  0  0  0
    2.3021    2.1654    0.0000 C   0  0  0  0  0  0  0  0  0  0  0  0
    2.2158    2.9858    0.0000 N   0  0  0  0  0  0  0  0  0  0  0  0
    1.4089    3.1574    0.0000 N   0  0  0  0  0  0  0  0  0  0  0  0
    0.9964    2.4429    0.0000 N   0  0  0  0  0  0  0  0  0  0  0  0
    1.5484    1.8298    0.0000 N   0  0  0  0  0  0  0  0  0  0  0  0
    2.3021    0.5154    0.0000 O   0  0  0  0  0  0  0  0  0  0  0  0
    4.4455    0.9279    0.0000 C   0  0  0  0  0  0  0  0  0  0  0  0
    4.4455    1.7529    0.0000 O   0  0  0  0  0  0  0  0  0  0  0  0
    5.1600    0.5154    0.0000 N   0  0  0  0  0  0  0  0  0  0  0  0
    5.8744    0.9279    0.0000 C   0  0  0  0  0  0  0  0  0  0  0  0
    6.5889    0.5154    0.0000 C   0  0  0  0  0  0  0  0  0  0  0  0
    6.5889   -0.3096    0.0000 C   0  0  0  0  0  0  0  0  0  0  0  0
    5.8744   -0.7221    0.0000 C   0  0  0  0  0  0  0  0  0  0  0  0
    5.1600   -0.3096    0.0000 C   0  0  0  0  0  0  0  0  0  0  0  0
  1  2  1  0  0  0  0
  3  2  1  0  0  0  0
  4  3  2  0  0  0  0
  5  4  1  0  0  0  0
  6  5  2  0  0  0  0
  7  6  1  0  0  0  0
  2  7  2  0  0  0  0
  1  8  1  0  0  0  0
  9  8  1  0  0  0  0
 10  9  2  0  0  0  0
 10 11  1  0  0  0  0
 11 12  1  0  0  0  0
 12 13  1  0  0  0  0
 14 13  1  0  0  0  0
 15 14  2  0  0  0  0
 16 15  1  0  0  0  0
 17 16  1  0  0  0  0
 13 17  2  0  0  0  0
 11 18  2  0  0  0  0
 19 10  1  0  0  0  0
 19 20  2  0  0  0  0
 21 19  1  0  0  0  0
 21 22  1  0  0  0  0
 22 23  2  0  0  0  0
 23 24  1  0  0  0  0
 24 25  2  0  0  0  0
 25 26  1  0  0  0  0
  8 26  2  0  0  0  0
 26 21  1  0  0  0  0
M  END
> <ChemID>
10212

> <CAS>
101193-40-2

> <Original_SMILES>
O=C1C(=CC(Oc2ccccc2)=C2C=CC=CN12)C(=O)Nc1[n][nH][n][n]1

> <preferred_name>
Quinotolast

> <dsstox_substance_id>
DTXSID40143768

> <dsstox_compound_id>
DTXCID9066259

> <Canonical_QSARr>
O=C(NC1N=NNN=1)C1=CC(OC2C=CC=CC=2)=C2C=CC=CN2C1=O

> <InChI_Code_QSARr>
InChI=1S/C17H12N6O3/c24-15(18-17-19-21-22-20-17)12-10-14(26-11-6-2-1-3-7-11)13-8-4-5-9-23(13)16(12)25/h1-10H,(H2,18,19,20,21,22,24)

> <InChI Key_QSARr>
ZUPLNRDTYQWUHP-UHFFFAOYSA-N

> <Salt_Solvent>


> <Salt_Solvent_ID>
0

> <Clint>
-7.0

> <Tr_1_Tst_0>
1

$$$$
Row79
  Mrv171c012261910192D          

 21 23  0  0  0  0            999 V2000
    2.6258   -2.8927    0.0000 C   0  0  0  0  0  0  0  0  0  0  0  0
    2.6258   -3.7177    0.0000 O   0  0  0  0  0  0  0  0  0  0  0  0
    1.9113   -4.1302    0.0000 C   0  0  0  0  0  0  0  0  0  0  0  0
    1.9730   -4.9529    0.0000 C   0  0  0  0  0  0  0  0  0  0  0  0
    1.3682   -5.5141    0.0000 C   0  0  0  0  0  0  0  0  0  0  0  0
    0.5524   -5.3911    0.0000 C   0  0  0  0  0  0  0  0  0  0  0  0
    0.1399   -4.6766    0.0000 C   0  0  0  0  0  0  0  0  0  0  0  0
    0.4413   -3.9087    0.0000 C   0  0  0  0  0  0  0  0  0  0  0  0
    0.7041   -4.8272    0.0000 N   0  0  0  0  0  0  0  0  0  0  0  0
   -0.0104   -5.2397    0.0000 C   0  0  0  0  0  0  0  0  0  0  0  0
    1.2297   -3.6655    0.0000 C   0  0  0  0  0  0  0  0  0  0  0  0
    1.9113   -2.4802    0.0000 O   0  0  0  0  0  0  0  0  0  0  0  0
    3.3402   -2.4802    0.0000 C   0  0  0  0  0  0  0  0  0  0  0  0
    4.0547   -2.8927    0.0000 C   0  0  0  0  0  0  0  0  0  0  0  0
    4.0547   -3.7177    0.0000 O   0  0  0  0  0  0  0  0  0  0  0  0
    3.3402   -1.6552    0.0000 C   0  0  0  0  0  0  0  0  0  0  0  0
    4.0547   -1.2427    0.0000 C   0  0  0  0  0  0  0  0  0  0  0  0
    4.0547   -0.4177    0.0000 C   0  0  0  0  0  0  0  0  0  0  0  0
    3.3402   -0.0052    0.0000 C   0  0  0  0  0  0  0  0  0  0  0  0
    2.6258   -0.4177    0.0000 C   0  0  0  0  0  0  0  0  0  0  0  0
    2.6258   -1.2427    0.0000 C   0  0  0  0  0  0  0  0  0  0  0  0
  1  2  1  0  0  0  0
  2  3  1  0  0  0  0
  4  3  1  0  0  0  0
  5  4  1  0  0  0  0
  5  6  1  0  0  0  0
  6  7  1  0  0  0  0
  7  8  1  0  0  0  0
  8  9  1  0  0  0  0
  9  5  1  0  0  0  0
  9 10  1  0  0  0  0
 11  8  1  0  0  0  0
  3 11  1  0  0  0  0
  1 12  2  0  0  0  0
  1 13  1  0  0  0  0
 13 14  1  0  0  0  0
 14 15  1  0  0  0  0
 13 16  1  0  0  0  0
 17 16  2  0  0  0  0
 18 17  1  0  0  0  0
 19 18  2  0  0  0  0
 20 19  1  0  0  0  0
 21 20  2  0  0  0  0
 16 21  1  0  0  0  0
M  END
> <ChemID>
10213

> <CAS>
51-55-8

> <Original_SMILES>
CN1[C@@H]2C[C@H](C[C@H]1CC2)OC(=O)C(CO)c1ccccc1

> <preferred_name>
Atropine

> <dsstox_substance_id>
DTXSID4020113

> <dsstox_compound_id>
DTXCID20113

> <Canonical_QSARr>
CN1C2CC(CC1CC2)OC(=O)C(CO)C1C=CC=CC=1

> <InChI_Code_QSARr>
InChI=1S/C17H23NO3/c1-18-13-7-8-14(18)10-15(9-13)21-17(20)16(11-19)12-5-3-2-4-6-12/h2-6,13-16,19H,7-11H2,1H3

> <InChI Key_QSARr>
RKUNBYITZUJHSG-UHFFFAOYSA-N

> <Salt_Solvent>


> <Salt_Solvent_ID>
0

> <Clint>
-0.3045183235098025

> <Tr_1_Tst_0>
1

$$$$
Row500
  Mrv171c012261910192D          

 12 13  0  0  0  0            999 V2000
    1.3498   -1.5392    0.0000 C   0  0  0  0  0  0  0  0  0  0  0  0
    1.3498   -2.3642    0.0000 C   0  0  0  0  0  0  0  0  0  0  0  0
    2.0643   -2.7767    0.0000 C   0  0  0  0  0  0  0  0  0  0  0  0
    2.7787   -2.3642    0.0000 C   0  0  0  0  0  0  0  0  0  0  0  0
    2.7787   -1.5392    0.0000 C   0  0  0  0  0  0  0  0  0  0  0  0
    2.0643   -1.1267    0.0000 C   0  0  0  0  0  0  0  0  0  0  0  0
    2.0643   -0.3017    0.0000 C   0  0  0  0  0  0  0  0  0  0  0  0
    2.7787    0.1108    0.0000 C   0  0  0  0  0  0  0  0  0  0  0  0
    2.7787    0.9358    0.0000 C   0  0  0  0  0  0  0  0  0  0  0  0
    2.0643    1.3483    0.0000 C   0  0  0  0  0  0  0  0  0  0  0  0
    1.3498    0.9358    0.0000 C   0  0  0  0  0  0  0  0  0  0  0  0
    1.3498    0.1108    0.0000 C   0  0  0  0  0  0  0  0  0  0  0  0
  2  1  1  0  0  0  0
  3  2  2  0  0  0  0
  4  3  1  0  0  0  0
  5  4  2  0  0  0  0
  6  5  1  0  0  0  0
  1  6  2  0  0  0  0
  6  7  1  0  0  0  0
  8  7  1  0  0  0  0
  9  8  2  0  0  0  0
 10  9  1  0  0  0  0
 11 10  2  0  0  0  0
 12 11  1  0  0  0  0
  7 12  2  0  0  0  0
M  END
> <ChemID>
10214

> <CAS>
92-52-4

> <Original_SMILES>
c1ccccc1-c1ccccc1

> <preferred_name>
Biphenyl

> <dsstox_substance_id>
DTXSID4020161

> <dsstox_compound_id>
DTXCID60161

> <Canonical_QSARr>
C1=CC=CC=C1C1C=CC=CC=1

> <InChI_Code_QSARr>
InChI=1S/C12H10/c1-3-7-11(8-4-1)12-9-5-2-6-10-12/h1-10H

> <InChI Key_QSARr>
ZUOUZKKEUPVFJK-UHFFFAOYSA-N

> <Salt_Solvent>


> <Salt_Solvent_ID>
0

> <Clint>
1.1516149720160125

> <Tr_1_Tst_0>
0

$$$$
Row481
  Mrv171c012261910192D          

 21 22  0  0  0  0            999 V2000
    6.1570   -2.3590    0.0000 Cl  0  0  0  0  0  0  0  0  0  0  0  0
    5.4426   -1.9465    0.0000 C   0  0  0  0  0  0  0  0  0  0  0  0
    5.4426   -1.1215    0.0000 N   0  0  0  0  0  0  0  0  0  0  0  0
    4.7281   -0.7090    0.0000 C   0  0  0  0  0  0  0  0  0  0  0  0
    4.7281    0.1160    0.0000 S   0  0  0  0  0  0  0  0  0  0  0  0
    5.4426    0.5285    0.0000 C   0  0  0  0  0  0  0  0  0  0  0  0
    5.4426    1.3535    0.0000 C   0  0  0  0  0  0  0  0  0  0  0  0
    6.1570    1.7660    0.0000 O   0  0  0  0  0  0  0  0  0  0  0  0
    4.7281    1.7660    0.0000 O   0  0  0  0  0  0  0  0  0  0  0  0
    4.0136   -1.1215    0.0000 N   0  0  0  0  0  0  0  0  0  0  0  0
    4.0136   -1.9465    0.0000 C   0  0  0  0  0  0  0  0  0  0  0  0
    3.2991   -2.3590    0.0000 N   0  0  0  0  0  0  0  0  0  0  0  0
    3.2991   -3.1840    0.0000 C   0  0  0  0  0  0  0  0  0  0  0  0
    2.5847   -3.5965    0.0000 C   0  0  0  0  0  0  0  0  0  0  0  0
    1.8702   -3.1840    0.0000 C   0  0  0  0  0  0  0  0  0  0  0  0
    2.5847   -4.4215    0.0000 C   0  0  0  0  0  0  0  0  0  0  0  0
    1.8702   -4.8340    0.0000 C   0  0  0  0  0  0  0  0  0  0  0  0
    3.2991   -4.8340    0.0000 C   0  0  0  0  0  0  0  0  0  0  0  0
    4.0136   -4.4215    0.0000 C   0  0  0  0  0  0  0  0  0  0  0  0
    4.0136   -3.5965    0.0000 C   0  0  0  0  0  0  0  0  0  0  0  0
    4.7281   -2.3590    0.0000 C   0  0  0  0  0  0  0  0  0  0  0  0
  1  2  1  0  0  0  0
  3  2  1  0  0  0  0
  4  3  2  0  0  0  0
  4  5  1  0  0  0  0
  5  6  1  0  0  0  0
  6  7  1  0  0  0  0
  7  8  1  0  0  0  0
  7  9  2  0  0  0  0
 10  4  1  0  0  0  0
 11 10  2  0  0  0  0
 11 12  1  0  0  0  0
 12 13  1  0  0  0  0
 14 13  1  0  0  0  0
 14 15  1  0  0  0  0
 16 14  2  0  0  0  0
 16 17  1  0  0  0  0
 18 16  1  0  0  0  0
 19 18  2  0  0  0  0
 20 19  1  0  0  0  0
 13 20  2  0  0  0  0
 21 11  1  0  0  0  0
  2 21  2  0  0  0  0
M  END
> <ChemID>
10215

> <CAS>
50892-23-4

> <Original_SMILES>
Cc1cccc(Nc2cc(Cl)[n]c([n]2)SCC(O)=O)c1C

> <preferred_name>
Pirinixic acid

> <dsstox_substance_id>
DTXSID4020290

> <dsstox_compound_id>
DTXCID00290

> <Canonical_QSARr>
CC1C(=CC=CC=1C)NC1C=C(Cl)N=C(N=1)SCC(O)=O

> <InChI_Code_QSARr>
InChI=1S/C14H14ClN3O2S/c1-8-4-3-5-10(9(8)2)16-12-6-11(15)17-14(18-12)21-7-13(19)20/h3-6H,7H2,1-2H3,(H,19,20)(H,16,17,18)

> <InChI Key_QSARr>
SZRPDCCEHVWOJX-UHFFFAOYSA-N

> <Salt_Solvent>


> <Salt_Solvent_ID>
0

> <Clint>
0.8756399370041683

> <Tr_1_Tst_0>
0

$$$$
Row101
  Mrv171c012261910192D          

 17 17  0  0  0  0            999 V2000
   -0.7316   -3.1768    0.0000 C   0  0  0  0  0  0  0  0  0  0  0  0
   -0.0171   -2.7643    0.0000 N   0  0  0  0  0  0  0  0  0  0  0  0
    0.6974   -3.1768    0.0000 C   0  0  0  0  0  0  0  0  0  0  0  0
    1.4118   -2.7643    0.0000 C   0  0  0  0  0  0  0  0  0  0  0  0
    2.1263   -3.1768    0.0000 S   0  0  0  0  0  0  0  0  0  0  0  0
    2.8408   -2.7643    0.0000 C   0  0  0  0  0  0  0  0  0  0  0  0
    3.5553   -3.1768    0.0000 C   0  0  0  0  0  0  0  0  0  0  0  0
    3.6415   -3.9973    0.0000 C   0  0  0  0  0  0  0  0  0  0  0  0
    3.0284   -4.5493    0.0000 C   0  0  0  0  0  0  0  0  0  0  0  0
    4.4485   -4.1688    0.0000 N   0  0  0  0  0  0  0  0  0  0  0  0
    4.8610   -3.4543    0.0000 C   0  0  0  0  0  0  0  0  0  0  0  0
    4.3089   -2.8412    0.0000 N   0  0  0  0  0  0  0  0  0  0  0  0
   -0.7316   -4.0018    0.0000 N   0  0  0  0  0  0  0  0  0  0  0  0
   -1.4460   -4.4143    0.0000 C   0  0  0  0  0  0  0  0  0  0  0  0
   -1.4460   -2.7643    0.0000 N   0  0  0  0  0  0  0  0  0  0  0  0
   -2.1605   -3.1768    0.0000 C   0  0  0  0  0  0  0  0  0  0  0  0
   -2.8750   -3.5893    0.0000 N   0  0  0  0  0  0  0  0  0  0  0  0
  1  2  1  0  0  0  0
  2  3  1  0  0  0  0
  3  4  1  0  0  0  0
  4  5  1  0  0  0  0
  5  6  1  0  0  0  0
  6  7  1  0  0  0  0
  8  7  2  0  0  0  0
  8  9  1  0  0  0  0
 10  8  1  0  0  0  0
 11 10  1  0  0  0  0
 12 11  2  0  0  0  0
  7 12  1  0  0  0  0
  1 13  1  0  0  0  0
 13 14  1  0  0  0  0
  1 15  2  0  0  0  0
 15 16  1  0  0  0  0
 16 17  3  0  0  0  0
M  END
> <ChemID>
10216

> <CAS>
51481-61-9

> <Original_SMILES>
Cc1[nH]c[n]c1CSCCN/C(/NC)=N/C#N

> <preferred_name>
Cimetidine

> <dsstox_substance_id>
DTXSID4020329

> <dsstox_compound_id>
DTXCID40329

> <Canonical_QSARr>
CC1NC=NC=1CSCCN/C(/NC)=N/C#N

> <InChI_Code_QSARr>
InChI=1S/C10H16N6S/c1-8-9(16-7-15-8)5-17-4-3-13-10(12-2)14-6-11/h7H,3-5H2,1-2H3,(H,15,16)(H2,12,13,14)

> <InChI Key_QSARr>
AQIXAKUUQRKLND-UHFFFAOYSA-N

> <Salt_Solvent>


> <Salt_Solvent_ID>
0

> <Clint>
0.0791812460476248

> <Tr_1_Tst_0>
1

$$$$
Row50
  Mrv171c012261910192D          

 18 19  0  0  0  0            999 V2000
    4.7646   -2.0618    0.0000 Cl  0  0  0  0  0  0  0  0  0  0  0  0
    4.0501   -2.4743    0.0000 C   0  0  0  0  0  0  0  0  0  0  0  0
    4.0501   -3.2993    0.0000 Cl  0  0  0  0  0  0  0  0  0  0  0  0
    3.3357   -2.0618    0.0000 C   0  0  0  0  0  0  0  0  0  0  0  0
    3.3357   -1.2368    0.0000 C   0  0  0  0  0  0  0  0  0  0  0  0
    4.0501   -0.8243    0.0000 C   0  0  0  0  0  0  0  0  0  0  0  0
    4.0501    0.0007    0.0000 C   0  0  0  0  0  0  0  0  0  0  0  0
    3.3357    0.4132    0.0000 C   0  0  0  0  0  0  0  0  0  0  0  0
    3.3357    1.2382    0.0000 Cl  0  0  0  0  0  0  0  0  0  0  0  0
    2.6212    0.0007    0.0000 C   0  0  0  0  0  0  0  0  0  0  0  0
    2.6212   -0.8243    0.0000 C   0  0  0  0  0  0  0  0  0  0  0  0
    2.6212   -2.4743    0.0000 C   0  0  0  0  0  0  0  0  0  0  0  0
    1.9067   -2.0618    0.0000 C   0  0  0  0  0  0  0  0  0  0  0  0
    1.1922   -2.4743    0.0000 C   0  0  0  0  0  0  0  0  0  0  0  0
    1.1922   -3.2993    0.0000 C   0  0  0  0  0  0  0  0  0  0  0  0
    0.4778   -3.7118    0.0000 Cl  0  0  0  0  0  0  0  0  0  0  0  0
    1.9067   -3.7118    0.0000 C   0  0  0  0  0  0  0  0  0  0  0  0
    2.6212   -3.2993    0.0000 C   0  0  0  0  0  0  0  0  0  0  0  0
  1  2  1  0  0  0  0
  2  3  1  0  0  0  0
  2  4  1  0  0  0  0
  4  5  1  0  0  0  0
  6  5  1  0  0  0  0
  7  6  2  0  0  0  0
  8  7  1  0  0  0  0
  8  9  1  0  0  0  0
 10  8  2  0  0  0  0
 11 10  1  0  0  0  0
  5 11  2  0  0  0  0
  4 12  1  0  0  0  0
 13 12  1  0  0  0  0
 14 13  2  0  0  0  0
 15 14  1  0  0  0  0
 15 16  1  0  0  0  0
 17 15  2  0  0  0  0
 18 17  1  0  0  0  0
 12 18  2  0  0  0  0
M  END
> <ChemID>
10217

> <CAS>
72-54-8

> <Original_SMILES>
ClC(Cl)C(c1ccc(Cl)cc1)c1ccc(Cl)cc1

> <preferred_name>
p,p'-DDD

> <dsstox_substance_id>
DTXSID4020373

> <dsstox_compound_id>
DTXCID60373

> <Canonical_QSARr>
ClC(Cl)C(C1=CC=C(Cl)C=C1)C1=CC=C(Cl)C=C1

> <InChI_Code_QSARr>
InChI=1S/C14H10Cl4/c15-11-5-1-9(2-6-11)13(14(17)18)10-3-7-12(16)8-4-10/h1-8,13-14H

> <InChI Key_QSARr>
AHJKRLASYNVKDZ-UHFFFAOYSA-N

> <Salt_Solvent>


> <Salt_Solvent_ID>
0

> <Clint>
-7.0

> <Tr_1_Tst_0>
1

$$$$
Row205
  Mrv171c012261910192D          

 19 20  0  0  0  0            999 V2000
    1.3190   -2.0632    0.0000 Cl  0  0  0  0  0  0  0  0  0  0  0  0
    1.7315   -2.7776    0.0000 C   0  0  0  0  0  0  0  0  0  0  0  0
    2.1440   -3.4921    0.0000 Cl  0  0  0  0  0  0  0  0  0  0  0  0
    1.0170   -3.1901    0.0000 Cl  0  0  0  0  0  0  0  0  0  0  0  0
    2.4459   -2.3651    0.0000 C   0  0  0  0  0  0  0  0  0  0  0  0
    2.4459   -1.5401    0.0000 C   0  0  0  0  0  0  0  0  0  0  0  0
    3.1604   -1.1276    0.0000 C   0  0  0  0  0  0  0  0  0  0  0  0
    3.1604   -0.3026    0.0000 C   0  0  0  0  0  0  0  0  0  0  0  0
    2.4459    0.1099    0.0000 C   0  0  0  0  0  0  0  0  0  0  0  0
    2.4459    0.9349    0.0000 Cl  0  0  0  0  0  0  0  0  0  0  0  0
    1.7315   -0.3026    0.0000 C   0  0  0  0  0  0  0  0  0  0  0  0
    1.7315   -1.1276    0.0000 C   0  0  0  0  0  0  0  0  0  0  0  0
    3.1604   -2.7776    0.0000 C   0  0  0  0  0  0  0  0  0  0  0  0
    3.1604   -3.6026    0.0000 C   0  0  0  0  0  0  0  0  0  0  0  0
    3.8749   -4.0151    0.0000 C   0  0  0  0  0  0  0  0  0  0  0  0
    4.5894   -3.6026    0.0000 C   0  0  0  0  0  0  0  0  0  0  0  0
    5.3038   -4.0151    0.0000 Cl  0  0  0  0  0  0  0  0  0  0  0  0
    4.5894   -2.7776    0.0000 C   0  0  0  0  0  0  0  0  0  0  0  0
    3.8749   -2.3651    0.0000 C   0  0  0  0  0  0  0  0  0  0  0  0
  1  2  1  0  0  0  0
  2  3  1  0  0  0  0
  2  4  1  0  0  0  0
  2  5  1  0  0  0  0
  5  6  1  0  0  0  0
  7  6  1  0  0  0  0
  8  7  2  0  0  0  0
  9  8  1  0  0  0  0
  9 10  1  0  0  0  0
 11  9  2  0  0  0  0
 12 11  1  0  0  0  0
  6 12  2  0  0  0  0
  5 13  1  0  0  0  0
 14 13  1  0  0  0  0
 15 14  2  0  0  0  0
 16 15  1  0  0  0  0
 16 17  1  0  0  0  0
 18 16  2  0  0  0  0
 19 18  1  0  0  0  0
 13 19  2  0  0  0  0
M  END
> <ChemID>
10218

> <CAS>
50-29-3

> <Original_SMILES>
ClC(Cl)(Cl)C(c1ccc(Cl)cc1)c1ccc(Cl)cc1

> <preferred_name>
Dichlorodiphenyltrichloroethane

> <dsstox_substance_id>
DTXSID4020375

> <dsstox_compound_id>
DTXCID20375

> <Canonical_QSARr>
ClC(Cl)(Cl)C(C1C=CC(Cl)=CC=1)C1C=CC(Cl)=CC=1

> <InChI_Code_QSARr>
InChI=1S/C14H9Cl5/c15-11-5-1-9(2-6-11)13(14(17,18)19)10-3-7-12(16)8-4-10/h1-8,13H

> <InChI Key_QSARr>
YVGGHNCTFXOJCH-UHFFFAOYSA-N

> <Salt_Solvent>


> <Salt_Solvent_ID>
0

> <Clint>
0.8662873390841948

> <Tr_1_Tst_0>
1

$$$$
Row75
  Mrv171c012261910192D          

 20 22  0  0  0  0            999 V2000
    2.6476   -4.3058    0.0000 C   0  0  0  0  0  0  0  0  0  0  0  0
    2.8312   -3.5015    0.0000 N   0  0  0  0  0  0  0  0  0  0  0  0
    3.6355   -3.3179    0.0000 C   0  0  0  0  0  0  0  0  0  0  0  0
    4.1499   -3.9629    0.0000 O   0  0  0  0  0  0  0  0  0  0  0  0
    3.9935   -2.5746    0.0000 C   0  0  0  0  0  0  0  0  0  0  0  0
    3.6355   -1.8313    0.0000 N   0  0  0  0  0  0  0  0  0  0  0  0
    2.8312   -1.6477    0.0000 C   0  0  0  0  0  0  0  0  0  0  0  0
    2.6476   -0.8434    0.0000 C   0  0  0  0  0  0  0  0  0  0  0  0
    3.2524   -0.2823    0.0000 C   0  0  0  0  0  0  0  0  0  0  0  0
    3.0688    0.5220    0.0000 C   0  0  0  0  0  0  0  0  0  0  0  0
    2.2805    0.7652    0.0000 C   0  0  0  0  0  0  0  0  0  0  0  0
    1.6757    0.2041    0.0000 C   0  0  0  0  0  0  0  0  0  0  0  0
    1.8593   -0.6003    0.0000 C   0  0  0  0  0  0  0  0  0  0  0  0
    2.1862   -2.1621    0.0000 C   0  0  0  0  0  0  0  0  0  0  0  0
    1.4717   -1.7496    0.0000 C   0  0  0  0  0  0  0  0  0  0  0  0
    0.7573   -2.1621    0.0000 C   0  0  0  0  0  0  0  0  0  0  0  0
    0.0428   -1.7496    0.0000 Cl  0  0  0  0  0  0  0  0  0  0  0  0
    0.7573   -2.9871    0.0000 C   0  0  0  0  0  0  0  0  0  0  0  0
    1.4717   -3.3996    0.0000 C   0  0  0  0  0  0  0  0  0  0  0  0
    2.1862   -2.9871    0.0000 C   0  0  0  0  0  0  0  0  0  0  0  0
  1  2  1  0  0  0  0
  3  2  1  0  0  0  0
  3  4  2  0  0  0  0
  5  3  1  0  0  0  0
  6  5  1  0  0  0  0
  7  6  2  0  0  0  0
  7  8  1  0  0  0  0
  9  8  1  0  0  0  0
 10  9  2  0  0  0  0
 11 10  1  0  0  0  0
 12 11  2  0  0  0  0
 13 12  1  0  0  0  0
  8 13  2  0  0  0  0
 14  7  1  0  0  0  0
 14 15  1  0  0  0  0
 15 16  2  0  0  0  0
 16 17  1  0  0  0  0
 16 18  1  0  0  0  0
 18 19  2  0  0  0  0
 19 20  1  0  0  0  0
  2 20  1  0  0  0  0
 20 14  2  0  0  0  0
M  END
> <ChemID>
10219

> <CAS>
439-14-5

> <Original_SMILES>
CN1C(=O)CN=C(c2cc(Cl)ccc12)c1ccccc1

> <preferred_name>
Diazepam

> <dsstox_substance_id>
DTXSID4020406

> <dsstox_compound_id>
DTXCID20406

> <Canonical_QSARr>
CN1C(=O)CN=C(C2C=C(Cl)C=CC1=2)C1C=CC=CC=1

> <InChI_Code_QSARr>
InChI=1S/C16H13ClN2O/c1-19-14-8-7-12(17)9-13(14)16(18-10-15(19)20)11-5-3-2-4-6-11/h2-9H,10H2,1H3

> <InChI Key_QSARr>
AAOVKJBEBIDNHE-UHFFFAOYSA-N

> <Salt_Solvent>


> <Salt_Solvent_ID>
0

> <Clint>
-1.301029995663981

> <Tr_1_Tst_0>
1

$$$$
Row172
  Mrv171c012261910192D          

 20 21  0  0  0  0            999 V2000
    0.5375   -2.8409    0.0000 O   0  0  0  0  0  0  0  0  0  0  0  0
    1.3625   -2.8409    0.0000 C   0  0  0  0  0  0  0  0  0  0  0  0
    2.1875   -2.8409    0.0000 C   0  0  0  0  0  0  0  0  0  0  0  0
    3.0125   -2.8409    0.0000 Cl  0  0  0  0  0  0  0  0  0  0  0  0
    2.1875   -3.6659    0.0000 Cl  0  0  0  0  0  0  0  0  0  0  0  0
    2.1875   -2.0159    0.0000 Cl  0  0  0  0  0  0  0  0  0  0  0  0
    1.3625   -2.0159    0.0000 C   0  0  0  0  0  0  0  0  0  0  0  0
    2.0770   -1.6034    0.0000 C   0  0  0  0  0  0  0  0  0  0  0  0
    2.0770   -0.7784    0.0000 C   0  0  0  0  0  0  0  0  0  0  0  0
    1.3625   -0.3659    0.0000 C   0  0  0  0  0  0  0  0  0  0  0  0
    1.3625    0.4591    0.0000 Cl  0  0  0  0  0  0  0  0  0  0  0  0
    0.6481   -0.7784    0.0000 C   0  0  0  0  0  0  0  0  0  0  0  0
    0.6481   -1.6034    0.0000 C   0  0  0  0  0  0  0  0  0  0  0  0
    1.3625   -3.6659    0.0000 C   0  0  0  0  0  0  0  0  0  0  0  0
    0.6481   -4.0784    0.0000 C   0  0  0  0  0  0  0  0  0  0  0  0
    0.6481   -4.9034    0.0000 C   0  0  0  0  0  0  0  0  0  0  0  0
    1.3625   -5.3159    0.0000 C   0  0  0  0  0  0  0  0  0  0  0  0
    1.3625   -6.1409    0.0000 Cl  0  0  0  0  0  0  0  0  0  0  0  0
    2.0770   -4.9034    0.0000 C   0  0  0  0  0  0  0  0  0  0  0  0
    2.0770   -4.0784    0.0000 C   0  0  0  0  0  0  0  0  0  0  0  0
  1  2  1  0  0  0  0
  2  3  1  0  0  0  0
  3  4  1  0  0  0  0
  3  5  1  0  0  0  0
  3  6  1  0  0  0  0
  2  7  1  0  0  0  0
  8  7  1  0  0  0  0
  9  8  2  0  0  0  0
 10  9  1  0  0  0  0
 10 11  1  0  0  0  0
 12 10  2  0  0  0  0
 13 12  1  0  0  0  0
  7 13  2  0  0  0  0
  2 14  1  0  0  0  0
 15 14  1  0  0  0  0
 16 15  2  0  0  0  0
 17 16  1  0  0  0  0
 17 18  1  0  0  0  0
 19 17  2  0  0  0  0
 20 19  1  0  0  0  0
 14 20  2  0  0  0  0
M  END
> <ChemID>
10220

> <CAS>
115-32-2

> <Original_SMILES>
OC(c1ccc(Cl)cc1)(c1ccc(Cl)cc1)C(Cl)(Cl)Cl

> <preferred_name>
Dicofol

> <dsstox_substance_id>
DTXSID4020450

> <dsstox_compound_id>
DTXCID40450

> <Canonical_QSARr>
OC(C1C=CC(Cl)=CC=1)(C1C=CC(Cl)=CC=1)C(Cl)(Cl)Cl

> <InChI_Code_QSARr>
InChI=1S/C14H9Cl5O/c15-11-5-1-9(2-6-11)13(20,14(17,18)19)10-3-7-12(16)8-4-10/h1-8,20H

> <InChI Key_QSARr>
UOAMTSKGCBMZTC-UHFFFAOYSA-N

> <Salt_Solvent>


> <Salt_Solvent_ID>
0

> <Clint>
0.6919651027673602

> <Tr_1_Tst_0>
1

$$$$
Row139
  Mrv171c012261910192D          

 18 18  0  0  0  0            999 V2000
    2.9781   -2.2291    0.0000 S   0  0  0  0  0  0  0  0  0  0  0  0
    3.3906   -1.5147    0.0000 P   0  0  0  0  0  0  0  0  0  0  0  0
    4.1050   -1.9272    0.0000 O   0  0  0  0  0  0  0  0  0  0  0  0
    4.8195   -1.5147    0.0000 C   0  0  0  0  0  0  0  0  0  0  0  0
    5.5340   -1.9272    0.0000 C   0  0  0  0  0  0  0  0  0  0  0  0
    3.8031   -0.8002    0.0000 O   0  0  0  0  0  0  0  0  0  0  0  0
    4.6281   -0.8002    0.0000 C   0  0  0  0  0  0  0  0  0  0  0  0
    5.0406   -0.0857    0.0000 C   0  0  0  0  0  0  0  0  0  0  0  0
    2.6761   -1.1022    0.0000 O   0  0  0  0  0  0  0  0  0  0  0  0
    1.9616   -1.5147    0.0000 C   0  0  0  0  0  0  0  0  0  0  0  0
    1.2471   -1.1022    0.0000 C   0  0  0  0  0  0  0  0  0  0  0  0
    1.2471   -0.2772    0.0000 Cl  0  0  0  0  0  0  0  0  0  0  0  0
    0.5327   -1.5147    0.0000 C   0  0  0  0  0  0  0  0  0  0  0  0
    0.5327   -2.3397    0.0000 C   0  0  0  0  0  0  0  0  0  0  0  0
   -0.1818   -2.7522    0.0000 Cl  0  0  0  0  0  0  0  0  0  0  0  0
    1.2471   -2.7522    0.0000 C   0  0  0  0  0  0  0  0  0  0  0  0
    1.2471   -3.5772    0.0000 Cl  0  0  0  0  0  0  0  0  0  0  0  0
    1.9616   -2.3397    0.0000 N   0  0  0  0  0  0  0  0  0  0  0  0
  1  2  2  0  0  0  0
  2  3  1  0  0  0  0
  3  4  1  0  0  0  0
  4  5  1  0  0  0  0
  2  6  1  0  0  0  0
  6  7  1  0  0  0  0
  7  8  1  0  0  0  0
  2  9  1  0  0  0  0
  9 10  1  0  0  0  0
 11 10  1  0  0  0  0
 11 12  1  0  0  0  0
 13 11  2  0  0  0  0
 14 13  1  0  0  0  0
 14 15  1  0  0  0  0
 16 14  2  0  0  0  0
 16 17  1  0  0  0  0
 18 16  1  0  0  0  0
 10 18  2  0  0  0  0
M  END
> <ChemID>
10221

> <CAS>
2921-88-2

> <Original_SMILES>
CCOP(=S)(Oc1[n]c(Cl)c(Cl)cc1Cl)OCC

> <preferred_name>
Chlorpyrifos

> <dsstox_substance_id>
DTXSID4020458

> <dsstox_compound_id>
DTXCID80458

> <Canonical_QSARr>
CCOP(=S)(OC1=NC(Cl)=C(Cl)C=C1Cl)OCC

> <InChI_Code_QSARr>
InChI=1S/C9H11Cl3NO3PS/c1-3-14-17(18,15-4-2)16-9-7(11)5-6(10)8(12)13-9/h5H,3-4H2,1-2H3

> <InChI Key_QSARr>
SBPBAQFWLVIOKP-UHFFFAOYSA-N

> <Salt_Solvent>


> <Salt_Solvent_ID>
0

> <Clint>
0.4149733479708179

> <Tr_1_Tst_0>
1

$$$$
Row32
  Mrv171c012261910192D          

 19 20  0  0  0  0            999 V2000
    0.0000    0.4777    0.0000 C   0  0  0  0  0  0  0  0  0  0  0  0
   -0.7145    0.8902    0.0000 C   0  0  0  0  0  0  0  0  0  0  0  0
   -0.7145    1.7152    0.0000 C   0  0  0  0  0  0  0  0  0  0  0  0
   -1.4289    2.1277    0.0000 C   0  0  0  0  0  0  0  0  0  0  0  0
   -2.1434    1.7152    0.0000 C   0  0  0  0  0  0  0  0  0  0  0  0
   -2.1434    0.8902    0.0000 C   0  0  0  0  0  0  0  0  0  0  0  0
   -1.4289    0.4777    0.0000 C   0  0  0  0  0  0  0  0  0  0  0  0
    0.0000   -0.3473    0.0000 C   0  0  0  0  0  0  0  0  0  0  0  0
   -0.7145   -0.7598    0.0000 C   0  0  0  0  0  0  0  0  0  0  0  0
   -0.7145   -1.5848    0.0000 C   0  0  0  0  0  0  0  0  0  0  0  0
    0.0000   -1.9973    0.0000 C   0  0  0  0  0  0  0  0  0  0  0  0
    0.7145   -1.5848    0.0000 C   0  0  0  0  0  0  0  0  0  0  0  0
    0.7145   -0.7598    0.0000 C   0  0  0  0  0  0  0  0  0  0  0  0
    0.7145    0.8902    0.0000 O   0  0  0  0  0  0  0  0  0  0  0  0
    1.4290    0.4777    0.0000 C   0  0  0  0  0  0  0  0  0  0  0  0
    2.1434    0.8902    0.0000 C   0  0  0  0  0  0  0  0  0  0  0  0
    2.8579    0.4777    0.0000 N   0  0  0  0  0  0  0  0  0  0  0  0
    3.5724    0.8902    0.0000 C   0  0  0  0  0  0  0  0  0  0  0  0
    2.8579   -0.3473    0.0000 C   0  0  0  0  0  0  0  0  0  0  0  0
  1  2  1  0  0  0  0
  3  2  2  0  0  0  0
  4  3  1  0  0  0  0
  5  4  2  0  0  0  0
  6  5  1  0  0  0  0
  7  6  2  0  0  0  0
  2  7  1  0  0  0  0
  1  8  1  0  0  0  0
  9  8  2  0  0  0  0
 10  9  1  0  0  0  0
 11 10  2  0  0  0  0
 12 11  1  0  0  0  0
 13 12  2  0  0  0  0
  8 13  1  0  0  0  0
  1 14  1  0  0  0  0
 14 15  1  0  0  0  0
 15 16  1  0  0  0  0
 16 17  1  0  0  0  0
 17 18  1  0  0  0  0
 17 19  1  0  0  0  0
M  END
> <ChemID>
10222

> <CAS>
147-24-0

> <Original_SMILES>
Cl.CN(C)CCOC(c1ccccc1)c1ccccc1

> <preferred_name>
Diphenhydramine hydrochloride

> <dsstox_substance_id>
DTXSID4020537

> <dsstox_compound_id>
DTXCID20537

> <Canonical_QSARr>
CN(C)CCOC(C1C=CC=CC=1)C1C=CC=CC=1

> <InChI_Code_QSARr>
InChI=1S/C17H21NO/c1-18(2)13-14-19-17(15-9-5-3-6-10-15)16-11-7-4-8-12-16/h3-12,17H,13-14H2,1-2H3

> <InChI Key_QSARr>
ZZVUWRFHKOJYTH-UHFFFAOYSA-N

> <Salt_Solvent>
Cl

> <Salt_Solvent_ID>
170

> <Clint>
-7.0

> <Tr_1_Tst_0>
1

$$$$
Row102
  Mrv171c012261910192D          

 12 12  0  0  0  0            999 V2000
   -0.4371   -2.6995    0.0000 N   0  0  0  0  0  0  0  0  0  0  0  0
    0.2774   -2.2870    0.0000 C   0  0  0  0  0  0  0  0  0  0  0  0
    0.9918   -2.6995    0.0000 C   0  0  0  0  0  0  0  0  0  0  0  0
    0.9918   -3.5245    0.0000 C   0  0  0  0  0  0  0  0  0  0  0  0
    1.7063   -3.9370    0.0000 C   0  0  0  0  0  0  0  0  0  0  0  0
    2.4208   -3.5245    0.0000 C   0  0  0  0  0  0  0  0  0  0  0  0
    2.4208   -2.6995    0.0000 C   0  0  0  0  0  0  0  0  0  0  0  0
    1.7063   -2.2870    0.0000 C   0  0  0  0  0  0  0  0  0  0  0  0
    1.7063   -1.4620    0.0000 O   0  0  0  0  0  0  0  0  0  0  0  0
    2.4208   -1.0495    0.0000 C   0  0  0  0  0  0  0  0  0  0  0  0
    2.4208   -0.2245    0.0000 C   0  0  0  0  0  0  0  0  0  0  0  0
    0.2774   -1.4620    0.0000 O   0  0  0  0  0  0  0  0  0  0  0  0
  1  2  1  0  0  0  0
  2  3  1  0  0  0  0
  4  3  1  0  0  0  0
  5  4  2  0  0  0  0
  6  5  1  0  0  0  0
  7  6  2  0  0  0  0
  8  7  1  0  0  0  0
  3  8  2  0  0  0  0
  8  9  1  0  0  0  0
  9 10  1  0  0  0  0
 10 11  1  0  0  0  0
  2 12  2  0  0  0  0
M  END
> <ChemID>
10223

> <CAS>
938-73-8

> <Original_SMILES>
CCOc1ccccc1C(N)=O

> <preferred_name>
2-Ethoxybenzamide

> <dsstox_substance_id>
DTXSID4020581

> <dsstox_compound_id>
DTXCID40581

> <Canonical_QSARr>
CCOC1C=CC=CC=1C(N)=O

> <InChI_Code_QSARr>
InChI=1S/C9H11NO2/c1-2-12-8-6-4-3-5-7(8)9(10)11/h3-6H,2H2,1H3,(H2,10,11)

> <InChI Key_QSARr>
SBNKFTQSBPKMBZ-UHFFFAOYSA-N

> <Salt_Solvent>


> <Salt_Solvent_ID>
0

> <Clint>
0.11394335230683676

> <Tr_1_Tst_0>
1

$$$$
Row544
  Mrv171c012261910192D          

 19 18  0  0  0  0            999 V2000
    1.8978   -0.9530    0.0000 O   0  0  0  0  0  0  0  0  0  0  0  0
    1.8978   -1.7780    0.0000 C   0  0  0  0  0  0  0  0  0  0  0  0
    1.1833   -2.1905    0.0000 O   0  0  0  0  0  0  0  0  0  0  0  0
    0.4688   -1.7780    0.0000 C   0  0  0  0  0  0  0  0  0  0  0  0
   -0.2456   -2.1905    0.0000 C   0  0  0  0  0  0  0  0  0  0  0  0
    2.6122   -2.1905    0.0000 C   0  0  0  0  0  0  0  0  0  0  0  0
    3.3267   -1.7780    0.0000 C   0  0  0  0  0  0  0  0  0  0  0  0
    4.0412   -2.1905    0.0000 C   0  0  0  0  0  0  0  0  0  0  0  0
    4.7557   -1.7780    0.0000 O   0  0  0  0  0  0  0  0  0  0  0  0
    5.4701   -2.1905    0.0000 C   0  0  0  0  0  0  0  0  0  0  0  0
    6.1846   -1.7780    0.0000 C   0  0  0  0  0  0  0  0  0  0  0  0
    4.0412   -3.0155    0.0000 O   0  0  0  0  0  0  0  0  0  0  0  0
    2.6122   -3.0155    0.0000 S   0  0  0  0  0  0  0  0  0  0  0  0
    1.8978   -3.4280    0.0000 P   0  0  0  0  0  0  0  0  0  0  0  0
    1.4853   -2.7136    0.0000 O   0  0  0  0  0  0  0  0  0  0  0  0
    0.6603   -2.7136    0.0000 C   0  0  0  0  0  0  0  0  0  0  0  0
    1.1833   -3.8405    0.0000 O   0  0  0  0  0  0  0  0  0  0  0  0
    0.4688   -3.4280    0.0000 C   0  0  0  0  0  0  0  0  0  0  0  0
    2.3103   -4.1425    0.0000 S   0  0  0  0  0  0  0  0  0  0  0  0
  1  2  2  0  0  0  0
  2  3  1  0  0  0  0
  3  4  1  0  0  0  0
  4  5  1  0  0  0  0
  2  6  1  0  0  0  0
  6  7  1  0  0  0  0
  7  8  1  0  0  0  0
  8  9  1  0  0  0  0
  9 10  1  0  0  0  0
 10 11  1  0  0  0  0
  8 12  2  0  0  0  0
  6 13  1  0  0  0  0
 13 14  1  0  0  0  0
 14 15  1  0  0  0  0
 15 16  1  0  0  0  0
 14 17  1  0  0  0  0
 17 18  1  0  0  0  0
 14 19  2  0  0  0  0
M  END
> <ChemID>
10224

> <CAS>
121-75-5

> <Original_SMILES>
CCOC(=O)C(CC(=O)OCC)SP(=S)(OC)OC

> <preferred_name>
Malathion

> <dsstox_substance_id>
DTXSID4020791

> <dsstox_compound_id>
DTXCID80791

> <Canonical_QSARr>
CCOC(=O)C(CC(=O)OCC)SP(=S)(OC)OC

> <InChI_Code_QSARr>
InChI=1S/C10H19O6PS2/c1-5-15-9(11)7-8(10(12)16-6-2)19-17(18,13-3)14-4/h8H,5-7H2,1-4H3

> <InChI Key_QSARr>
JXSJBGJIGXNWCI-UHFFFAOYSA-N

> <Salt_Solvent>


> <Salt_Solvent_ID>
0

> <Clint>
1.9419087743655994

> <Tr_1_Tst_0>
0

$$$$
Row224
  Mrv171c012261910192D          

 26 29  0  0  0  0            999 V2000
    2.3565   -1.9255    0.0000 C   0  0  0  0  0  0  0  0  0  0  0  0
    1.9966   -1.1831    0.0000 C   0  0  0  0  0  0  0  0  0  0  0  0
    2.8883   -1.2948    0.0000 C   0  0  0  0  0  0  0  0  0  0  0  0
    3.7005   -1.4400    0.0000 C   0  0  0  0  0  0  0  0  0  0  0  0
    4.2323   -0.8093    0.0000 O   0  0  0  0  0  0  0  0  0  0  0  0
    3.9808   -2.2159    0.0000 C   0  0  0  0  0  0  0  0  0  0  0  0
    3.4489   -2.8466    0.0000 C   0  0  0  0  0  0  0  0  0  0  0  0
    3.7292   -3.6225    0.0000 C   0  0  0  0  0  0  0  0  0  0  0  0
    4.5414   -3.7678    0.0000 C   0  0  0  0  0  0  0  0  0  0  0  0
    5.0732   -3.1371    0.0000 C   0  0  0  0  0  0  0  0  0  0  0  0
    5.8853   -3.2823    0.0000 C   0  0  0  0  0  0  0  0  0  0  0  0
    6.4171   -2.6516    0.0000 C   0  0  0  0  0  0  0  0  0  0  0  0
    7.2292   -2.7968    0.0000 O   0  0  0  0  0  0  0  0  0  0  0  0
    6.1368   -1.8756    0.0000 C   0  0  0  0  0  0  0  0  0  0  0  0
    5.3247   -1.7304    0.0000 C   0  0  0  0  0  0  0  0  0  0  0  0
    4.7929   -2.3611    0.0000 C   0  0  0  0  0  0  0  0  0  0  0  0
    4.5126   -1.5852    0.0000 C   0  0  0  0  0  0  0  0  0  0  0  0
    2.6368   -2.7014    0.0000 C   0  0  0  0  0  0  0  0  0  0  0  0
    1.9855   -3.2078    0.0000 C   0  0  0  0  0  0  0  0  0  0  0  0
    1.3026   -2.7448    0.0000 C   0  0  0  0  0  0  0  0  0  0  0  0
    1.5320   -1.9523    0.0000 C   0  0  0  0  0  0  0  0  0  0  0  0
    0.7711   -1.6334    0.0000 O   0  0  0  0  0  0  0  0  0  0  0  0
    1.4106   -1.1363    0.0000 C   0  0  0  0  0  0  0  0  0  0  0  0
    0.6432   -0.8334    0.0000 C   0  0  0  0  0  0  0  0  0  0  0  0
    0.5218   -0.0174    0.0000 O   0  0  0  0  0  0  0  0  0  0  0  0
    2.0565   -0.6231    0.0000 O   0  0  0  0  0  0  0  0  0  0  0  0
  1  2  1  0  0  0  0
  3  1  1  0  0  0  0
  4  3  1  0  0  0  0
  4  5  2  0  0  0  0
  6  4  1  0  0  0  0
  6  7  1  0  0  0  0
  7  8  1  0  0  0  0
  8  9  1  0  0  0  0
  9 10  1  0  0  0  0
 11 10  2  0  0  0  0
 12 11  1  0  0  0  0
 12 13  2  0  0  0  0
 14 12  1  0  0  0  0
 15 14  2  0  0  0  0
 16 15  1  0  0  0  0
 10 16  1  0  0  0  0
 16  6  1  0  0  0  0
 16 17  1  0  0  0  0
 18  7  1  0  0  0  0
 18  1  1  0  0  0  0
 19 18  1  0  0  0  0
 20 19  1  0  0  0  0
 21 20  1  0  0  0  0
  1 21  1  0  0  0  0
 21 22  1  0  0  0  0
 21 23  1  0  0  0  0
 23 24  1  0  0  0  0
 24 25  1  0  0  0  0
 23 26  2  0  0  0  0
M  END
> <ChemID>
10225

> <CAS>
53-03-2

> <Original_SMILES>
C[C@]12CC(=O)[C@H]3[C@@H](CCC4=CC(=O)C=C[C@@]43C)[C@@H]1CC[C@]2(O)C(=O)CO

> <preferred_name>
Prednisone

> <dsstox_substance_id>
DTXSID4021185

> <dsstox_compound_id>
DTXCID701185

> <Canonical_QSARr>
CC12CC(=O)C3C(CCC4=CC(=O)C=CC43C)C1CCC2(O)C(=O)CO

> <InChI_Code_QSARr>
InChI=1S/C21H26O5/c1-19-7-5-13(23)9-12(19)3-4-14-15-6-8-21(26,17(25)11-22)20(15,2)10-16(24)18(14)19/h5,7,9,14-15,18,22,26H,3-4,6,8,10-11H2,1-2H3

> <InChI Key_QSARr>
XOFYZVNMUHMLCC-UHFFFAOYSA-N

> <Salt_Solvent>


> <Salt_Solvent_ID>
0

> <Clint>
0.9585638832219674

> <Tr_1_Tst_0>
1

$$$$
Row476
  Mrv171c012261910192D          

 13 13  0  0  0  0            999 V2000
    3.8567   -2.9222    0.0000 Cl  0  0  0  0  0  0  0  0  0  0  0  0
    3.1422   -2.5097    0.0000 C   0  0  0  0  0  0  0  0  0  0  0  0
    3.1422   -1.6847    0.0000 N   0  0  0  0  0  0  0  0  0  0  0  0
    2.4277   -1.2722    0.0000 C   0  0  0  0  0  0  0  0  0  0  0  0
    2.4277   -0.4472    0.0000 N   0  0  0  0  0  0  0  0  0  0  0  0
    3.1422   -0.0347    0.0000 C   0  0  0  0  0  0  0  0  0  0  0  0
    3.1422    0.7903    0.0000 C   0  0  0  0  0  0  0  0  0  0  0  0
    1.7133   -1.6847    0.0000 N   0  0  0  0  0  0  0  0  0  0  0  0
    1.7133   -2.5097    0.0000 C   0  0  0  0  0  0  0  0  0  0  0  0
    0.9988   -2.9222    0.0000 N   0  0  0  0  0  0  0  0  0  0  0  0
    0.2843   -2.5097    0.0000 C   0  0  0  0  0  0  0  0  0  0  0  0
   -0.4301   -2.9222    0.0000 C   0  0  0  0  0  0  0  0  0  0  0  0
    2.4277   -2.9222    0.0000 N   0  0  0  0  0  0  0  0  0  0  0  0
  1  2  1  0  0  0  0
  3  2  1  0  0  0  0
  4  3  2  0  0  0  0
  4  5  1  0  0  0  0
  5  6  1  0  0  0  0
  6  7  1  0  0  0  0
  8  4  1  0  0  0  0
  9  8  2  0  0  0  0
  9 10  1  0  0  0  0
 10 11  1  0  0  0  0
 11 12  1  0  0  0  0
 13  9  1  0  0  0  0
  2 13  2  0  0  0  0
M  END
> <ChemID>
10226

> <CAS>
122-34-9

> <Original_SMILES>
CCNc1[n]c(Cl)[n]c(NCC)[n]1

> <preferred_name>
Simazine

> <dsstox_substance_id>
DTXSID4021268

> <dsstox_compound_id>
DTXCID501268

> <Canonical_QSARr>
CCNC1=NC(Cl)=NC(NCC)=N1

> <InChI_Code_QSARr>
InChI=1S/C7H12ClN5/c1-3-9-6-11-5(8)12-7(13-6)10-4-2/h3-4H2,1-2H3,(H2,9,10,11,12,13)

> <InChI Key_QSARr>
ODCWYMIRDDJXKW-UHFFFAOYSA-N

> <Salt_Solvent>


> <Salt_Solvent_ID>
0

> <Clint>
0.801403710017355

> <Tr_1_Tst_0>
0

$$$$
Row222
  Mrv171c012261910192D          

 23 23  0  0  0  0            999 V2000
    1.3684   -1.0258    0.0000 O   0  0  0  0  0  0  0  0  0  0  0  0
    1.3684   -1.8508    0.0000 N   0  3  0  0  0  0  0  0  0  0  0  0
    0.6539   -2.2633    0.0000 O   0  5  0  0  0  0  0  0  0  0  0  0
    2.0828   -2.2633    0.0000 C   0  0  0  0  0  0  0  0  0  0  0  0
    2.0828   -3.0883    0.0000 C   0  0  0  0  0  0  0  0  0  0  0  0
    2.7973   -3.5008    0.0000 C   0  0  0  0  0  0  0  0  0  0  0  0
    2.7973   -4.3258    0.0000 C   0  0  0  0  0  0  0  0  0  0  0  0
    2.7973   -5.1508    0.0000 F   0  0  0  0  0  0  0  0  0  0  0  0
    3.6223   -4.3258    0.0000 F   0  0  0  0  0  0  0  0  0  0  0  0
    1.9723   -4.3258    0.0000 F   0  0  0  0  0  0  0  0  0  0  0  0
    3.5118   -3.0883    0.0000 C   0  0  0  0  0  0  0  0  0  0  0  0
    3.5118   -2.2633    0.0000 C   0  0  0  0  0  0  0  0  0  0  0  0
    4.2263   -1.8508    0.0000 N   0  3  0  0  0  0  0  0  0  0  0  0
    4.2263   -1.0258    0.0000 O   0  5  0  0  0  0  0  0  0  0  0  0
    4.9407   -2.2633    0.0000 O   0  0  0  0  0  0  0  0  0  0  0  0
    2.7973   -1.8508    0.0000 C   0  0  0  0  0  0  0  0  0  0  0  0
    2.7973   -1.0258    0.0000 N   0  0  0  0  0  0  0  0  0  0  0  0
    2.0828   -0.6133    0.0000 C   0  0  0  0  0  0  0  0  0  0  0  0
    2.0828    0.2117    0.0000 C   0  0  0  0  0  0  0  0  0  0  0  0
    1.3684    0.6242    0.0000 C   0  0  0  0  0  0  0  0  0  0  0  0
    3.5118   -0.6133    0.0000 C   0  0  0  0  0  0  0  0  0  0  0  0
    3.5118    0.2117    0.0000 C   0  0  0  0  0  0  0  0  0  0  0  0
    4.2263    0.6242    0.0000 C   0  0  0  0  0  0  0  0  0  0  0  0
  1  2  2  0  0  0  0
  2  3  1  0  0  0  0
  2  4  1  0  0  0  0
  5  4  1  0  0  0  0
  6  5  2  0  0  0  0
  6  7  1  0  0  0  0
  7  8  1  0  0  0  0
  7  9  1  0  0  0  0
  7 10  1  0  0  0  0
 11  6  1  0  0  0  0
 12 11  2  0  0  0  0
 12 13  1  0  0  0  0
 13 14  1  0  0  0  0
 13 15  2  0  0  0  0
 16 12  1  0  0  0  0
  4 16  2  0  0  0  0
 16 17  1  0  0  0  0
 17 18  1  0  0  0  0
 18 19  1  0  0  0  0
 19 20  1  0  0  0  0
 17 21  1  0  0  0  0
 21 22  1  0  0  0  0
 22 23  1  0  0  0  0
M  CHG  4   2   1   3  -1  13   1  14  -1
M  END
> <ChemID>
10227

> <CAS>
1582-09-8

> <Original_SMILES>
CCCN(CCC)c1c(cc(cc1[N+]([O-])=O)C(F)(F)F)[N+]([O-])=O

> <preferred_name>
Trifluralin

> <dsstox_substance_id>
DTXSID4021395

> <dsstox_compound_id>
DTXCID401395

> <Canonical_QSARr>
CCCN(CCC)C1C(=CC(=CC=1[N+]([O-])=O)C(F)(F)F)[N+]([O-])=O

> <InChI_Code_QSARr>
InChI=1S/C13H16F3N3O4/c1-3-5-17(6-4-2)12-10(18(20)21)7-9(13(14,15)16)8-11(12)19(22)23/h7-8H,3-6H2,1-2H3

> <InChI Key_QSARr>
ZSDSQXJSNMTJDA-UHFFFAOYSA-N

> <Salt_Solvent>


> <Salt_Solvent_ID>
0

> <Clint>
0.9532763366673043

> <Tr_1_Tst_0>
1

$$$$
Row74
  Mrv171c012261910192D          

 20 21  0  0  0  0            999 V2000
    5.3653    0.9033    0.0000 Cl  0  0  0  0  0  0  0  0  0  0  0  0
    4.6508    1.3158    0.0000 C   0  0  0  0  0  0  0  0  0  0  0  0
    4.6508    2.1408    0.0000 C   0  0  0  0  0  0  0  0  0  0  0  0
    3.9363    2.5533    0.0000 C   0  0  0  0  0  0  0  0  0  0  0  0
    3.9363    3.3783    0.0000 O   0  0  0  0  0  0  0  0  0  0  0  0
    3.2219    2.1408    0.0000 C   0  0  0  0  0  0  0  0  0  0  0  0
    3.2219    1.3158    0.0000 C   0  0  0  0  0  0  0  0  0  0  0  0
    2.5074    0.9033    0.0000 Cl  0  0  0  0  0  0  0  0  0  0  0  0
    3.9363    0.9033    0.0000 C   0  0  0  0  0  0  0  0  0  0  0  0
    3.9363    0.0783    0.0000 N   0  0  0  0  0  0  0  0  0  0  0  0
    3.2219   -0.3342    0.0000 C   0  0  0  0  0  0  0  0  0  0  0  0
    2.5074    0.0783    0.0000 C   0  0  0  0  0  0  0  0  0  0  0  0
    1.7929   -0.3342    0.0000 C   0  0  0  0  0  0  0  0  0  0  0  0
    1.7929   -1.1592    0.0000 C   0  0  0  0  0  0  0  0  0  0  0  0
    2.5074   -1.5717    0.0000 C   0  0  0  0  0  0  0  0  0  0  0  0
    3.2219   -1.1592    0.0000 C   0  0  0  0  0  0  0  0  0  0  0  0
    3.9363   -1.5717    0.0000 C   0  0  0  0  0  0  0  0  0  0  0  0
    3.9363   -2.3967    0.0000 C   0  0  0  0  0  0  0  0  0  0  0  0
    4.6508   -2.8092    0.0000 O   0  0  0  0  0  0  0  0  0  0  0  0
    3.2219   -2.8092    0.0000 O   0  0  0  0  0  0  0  0  0  0  0  0
  1  2  1  0  0  0  0
  3  2  1  0  0  0  0
  4  3  2  0  0  0  0
  4  5  1  0  0  0  0
  6  4  1  0  0  0  0
  7  6  2  0  0  0  0
  7  8  1  0  0  0  0
  9  7  1  0  0  0  0
  2  9  2  0  0  0  0
  9 10  1  0  0  0  0
 10 11  1  0  0  0  0
 12 11  2  0  0  0  0
 13 12  1  0  0  0  0
 14 13  2  0  0  0  0
 15 14  1  0  0  0  0
 16 15  2  0  0  0  0
 11 16  1  0  0  0  0
 16 17  1  0  0  0  0
 17 18  1  0  0  0  0
 18 19  2  0  0  0  0
 18 20  1  0  0  0  0
M  END
> <ChemID>
10228

> <CAS>
64118-84-9

> <Original_SMILES>
Oc1cc(Cl)c(Nc2ccccc2CC(O)=O)c(Cl)c1

> <preferred_name>
4'-Hydroxydiclofenac

> <dsstox_substance_id>
DTXSID40214326

> <dsstox_compound_id>
DTXCID40136817

> <Canonical_QSARr>
OC1C=C(Cl)C(NC2=CC=CC=C2CC(O)=O)=C(Cl)C=1

> <InChI_Code_QSARr>
InChI=1S/C14H11Cl2NO3/c15-10-6-9(18)7-11(16)14(10)17-12-4-2-1-3-8(12)5-13(19)20/h1-4,6-7,17-18H,5H2,(H,19,20)

> <InChI Key_QSARr>
KGVXVPRLBMWZLG-UHFFFAOYSA-N

> <Salt_Solvent>


> <Salt_Solvent_ID>
0

> <Clint>
-2.1804560644581312

> <Tr_1_Tst_0>
1

$$$$
Row497
  Mrv171c012261910192D          

 10 10  0  0  0  0            999 V2000
   -0.2875   -1.8969    0.0000 C   0  0  0  0  0  0  0  0  0  0  0  0
    0.4269   -1.4844    0.0000 C   0  0  0  0  0  0  0  0  0  0  0  0
    1.1414   -1.8969    0.0000 N   0  0  0  0  0  0  0  0  0  0  0  0
    1.8559   -1.4844    0.0000 C   0  0  0  0  0  0  0  0  0  0  0  0
    2.5703   -1.8969    0.0000 C   0  0  0  0  0  0  0  0  0  0  0  0
    3.2848   -1.4844    0.0000 C   0  0  0  0  0  0  0  0  0  0  0  0
    3.2848   -0.6594    0.0000 C   0  0  0  0  0  0  0  0  0  0  0  0
    2.5703   -0.2469    0.0000 C   0  0  0  0  0  0  0  0  0  0  0  0
    2.5703    0.5781    0.0000 C   0  0  0  0  0  0  0  0  0  0  0  0
    1.8559   -0.6594    0.0000 C   0  0  0  0  0  0  0  0  0  0  0  0
  1  2  1  0  0  0  0
  2  3  1  0  0  0  0
  3  4  1  0  0  0  0
  5  4  1  0  0  0  0
  6  5  2  0  0  0  0
  7  6  1  0  0  0  0
  8  7  2  0  0  0  0
  8  9  1  0  0  0  0
 10  8  1  0  0  0  0
  4 10  2  0  0  0  0
M  END
> <ChemID>
10229

> <CAS>
102-27-2

> <Original_SMILES>
Cc1cccc(c1)NCC

> <preferred_name>
N-Ethyl-3-methylaniline

> <dsstox_substance_id>
DTXSID4021848

> <dsstox_compound_id>
DTXCID101848

> <Canonical_QSARr>
CC1C=C(C=CC=1)NCC

> <InChI_Code_QSARr>
InChI=1S/C9H13N/c1-3-10-9-6-4-5-8(2)7-9/h4-7,10H,3H2,1-2H3

> <InChI Key_QSARr>
GUYMMHOQXYZMJQ-UHFFFAOYSA-N

> <Salt_Solvent>


> <Salt_Solvent_ID>
0

> <Clint>
1.1178676265660161

> <Tr_1_Tst_0>
0

$$$$
Row389
  Mrv171c012261910192D          

 13 14  0  0  0  0            999 V2000
    3.5154   -1.7446    0.0000 C   0  0  0  0  0  0  0  0  0  0  0  0
    2.8009   -1.3321    0.0000 C   0  0  0  0  0  0  0  0  0  0  0  0
    2.8009   -0.5071    0.0000 N   0  0  0  0  0  0  0  0  0  0  0  0
    2.0865   -0.0946    0.0000 C   0  0  0  0  0  0  0  0  0  0  0  0
    2.0865    0.7304    0.0000 C   0  0  0  0  0  0  0  0  0  0  0  0
    1.3720    1.1429    0.0000 C   0  0  0  0  0  0  0  0  0  0  0  0
    0.6575    0.7304    0.0000 C   0  0  0  0  0  0  0  0  0  0  0  0
    0.6575   -0.0946    0.0000 C   0  0  0  0  0  0  0  0  0  0  0  0
    1.3720   -0.5071    0.0000 C   0  0  0  0  0  0  0  0  0  0  0  0
    2.0865   -1.7446    0.0000 C   0  0  0  0  0  0  0  0  0  0  0  0
    2.0865   -2.5696    0.0000 C   0  0  0  0  0  0  0  0  0  0  0  0
    2.8009   -2.9821    0.0000 C   0  0  0  0  0  0  0  0  0  0  0  0
    3.5154   -2.5696    0.0000 C   0  0  0  0  0  0  0  0  0  0  0  0
  2  1  1  0  0  0  0
  2  3  1  0  0  0  0
  3  4  1  0  0  0  0
  5  4  1  0  0  0  0
  6  5  2  0  0  0  0
  7  6  1  0  0  0  0
  8  7  2  0  0  0  0
  9  8  1  0  0  0  0
  4  9  2  0  0  0  0
 10  2  2  0  0  0  0
 11 10  1  0  0  0  0
 12 11  2  0  0  0  0
 13 12  1  0  0  0  0
  1 13  2  0  0  0  0
M  END
> <ChemID>
10230

> <CAS>
122-39-4

> <Original_SMILES>
c1ccccc1Nc1ccccc1

> <preferred_name>
Diphenylamine

> <dsstox_substance_id>
DTXSID4021975

> <dsstox_compound_id>
DTXCID001975

> <Canonical_QSARr>
C1=CC=CC=C1NC1C=CC=CC=1

> <InChI_Code_QSARr>
InChI=1S/C12H11N/c1-3-7-11(8-4-1)13-12-9-5-2-6-10-12/h1-10,13H

> <InChI Key_QSARr>
DMBHHRLKUKUOEG-UHFFFAOYSA-N

> <Salt_Solvent>


> <Salt_Solvent_ID>
0

> <Clint>
1.8100307864058394

> <Tr_1_Tst_0>
1

$$$$
Row5
  Mrv171c012261910192D          

 14 14  0  0  0  0            999 V2000
    1.5310    0.3536    0.0000 N   0  0  0  0  0  0  0  0  0  0  0  0
    0.8165    0.7661    0.0000 C   0  0  0  0  0  0  0  0  0  0  0  0
    0.8165    1.5911    0.0000 O   0  0  0  0  0  0  0  0  0  0  0  0
    0.1021    0.3536    0.0000 N   0  0  0  0  0  0  0  0  0  0  0  0
   -0.6124    0.7661    0.0000 C   0  0  0  0  0  0  0  0  0  0  0  0
   -1.3269    0.3536    0.0000 C   0  0  0  0  0  0  0  0  0  0  0  0
   -2.0413    0.7661    0.0000 C   0  0  0  0  0  0  0  0  0  0  0  0
   -0.6124    1.5911    0.0000 C   0  0  0  0  0  0  0  0  0  0  0  0
    0.1021   -0.4714    0.0000 C   0  0  0  0  0  0  0  0  0  0  0  0
   -0.6124   -0.8839    0.0000 O   0  0  0  0  0  0  0  0  0  0  0  0
    0.8165   -0.8839    0.0000 C   0  0  0  0  0  0  0  0  0  0  0  0
    0.8165   -1.7089    0.0000 Br  0  0  0  0  0  0  0  0  0  0  0  0
    1.5310   -0.4714    0.0000 C   0  0  0  0  0  0  0  0  0  0  0  0
    2.2455   -0.8839    0.0000 C   0  0  0  0  0  0  0  0  0  0  0  0
  2  1  1  0  0  0  0
  2  3  2  0  0  0  0
  4  2  1  0  0  0  0
  4  5  1  0  0  0  0
  5  6  1  0  0  0  0
  6  7  1  0  0  0  0
  5  8  1  0  0  0  0
  9  4  1  0  0  0  0
  9 10  2  0  0  0  0
 11  9  1  0  0  0  0
 11 12  1  0  0  0  0
 13 11  1  0  0  0  0
  1 13  2  0  0  0  0
 13 14  1  0  0  0  0
M  END
> <ChemID>
10231

> <CAS>
314-40-9

> <Original_SMILES>
CC1NC(=O)N(C(C)CC)C(=O)C=1Br

> <preferred_name>
Bromacil

> <dsstox_substance_id>
DTXSID4022020

> <dsstox_compound_id>
DTXCID802020

> <Canonical_QSARr>
CC1=NC(=O)N(C(C)CC)C(=O)C1Br

> <InChI_Code_QSARr>
InChI=1S/C9H13BrN2O2/c1-4-5(2)12-8(13)7(10)6(3)11-9(12)14/h5,7H,4H2,1-3H3

> <InChI Key_QSARr>
OSOBMCTWSONQHC-UHFFFAOYSA-N

> <Salt_Solvent>


> <Salt_Solvent_ID>
0

> <Clint>
-7.0

> <Tr_1_Tst_0>
1

$$$$
Row294
  Mrv171c012261910192D          

 18 19  0  0  0  0            999 V2000
    2.0025   -1.4098    0.0000 N   0  0  0  0  0  0  0  0  0  0  0  0
    2.4875   -2.0772    0.0000 C   0  0  0  0  0  0  0  0  0  0  0  0
    2.1519   -2.8309    0.0000 C   0  0  0  0  0  0  0  0  0  0  0  0
    2.6368   -3.4983    0.0000 C   0  0  0  0  0  0  0  0  0  0  0  0
    2.3013   -4.2520    0.0000 Cl  0  0  0  0  0  0  0  0  0  0  0  0
    3.4573   -3.4121    0.0000 C   0  0  0  0  0  0  0  0  0  0  0  0
    3.7929   -2.6584    0.0000 C   0  0  0  0  0  0  0  0  0  0  0  0
    4.6134   -2.5722    0.0000 Cl  0  0  0  0  0  0  0  0  0  0  0  0
    3.3080   -1.9910    0.0000 C   0  0  0  0  0  0  0  0  0  0  0  0
    2.2575   -0.6252    0.0000 C   0  0  0  0  0  0  0  0  0  0  0  0
    3.0421   -0.3702    0.0000 O   0  0  0  0  0  0  0  0  0  0  0  0
    1.5900   -0.1402    0.0000 C   0  0  0  0  0  0  0  0  0  0  0  0
    2.1421    0.4729    0.0000 C   0  0  0  0  0  0  0  0  0  0  0  0
    1.0380    0.4729    0.0000 C   0  0  0  0  0  0  0  0  0  0  0  0
    0.2310    0.3013    0.0000 C   0  0  0  0  0  0  0  0  0  0  0  0
    0.9226   -0.6252    0.0000 O   0  0  0  0  0  0  0  0  0  0  0  0
    1.1775   -1.4098    0.0000 C   0  0  0  0  0  0  0  0  0  0  0  0
    0.6926   -2.0772    0.0000 O   0  0  0  0  0  0  0  0  0  0  0  0
  1  2  1  0  0  0  0
  3  2  1  0  0  0  0
  4  3  2  0  0  0  0
  4  5  1  0  0  0  0
  6  4  1  0  0  0  0
  7  6  2  0  0  0  0
  7  8  1  0  0  0  0
  9  7  1  0  0  0  0
  2  9  2  0  0  0  0
 10  1  1  0  0  0  0
 10 11  2  0  0  0  0
 12 10  1  0  0  0  0
 12 13  1  0  0  0  0
 12 14  1  0  0  0  0
 14 15  2  0  0  0  0
 16 12  1  0  0  0  0
 17 16  1  0  0  0  0
  1 17  1  0  0  0  0
 17 18  2  0  0  0  0
M  END
> <ChemID>
10232

> <CAS>
50471-44-8

> <Original_SMILES>
CC1(C=C)OC(=O)N(c2cc(Cl)cc(Cl)c2)C1=O

> <preferred_name>
Vinclozolin

> <dsstox_substance_id>
DTXSID4022361

> <dsstox_compound_id>
DTXCID002361

> <Canonical_QSARr>
CC1(C=C)OC(=O)N(C2C=C(Cl)C=C(Cl)C=2)C1=O

> <InChI_Code_QSARr>
InChI=1S/C12H9Cl2NO3/c1-3-12(2)10(16)15(11(17)18-12)9-5-7(13)4-8(14)6-9/h3-6H,1H2,2H3

> <InChI Key_QSARr>
FSCWZHGZWWDELK-UHFFFAOYSA-N

> <Salt_Solvent>


> <Salt_Solvent_ID>
0

> <Clint>
1.2633993313340022

> <Tr_1_Tst_0>
1

$$$$
Row359
  Mrv171c012261910192D          

 18 19  0  0  0  0            999 V2000
    1.4025   -2.6391    0.0000 C   0  0  0  0  0  0  0  0  0  0  0  0
    0.5775   -2.6391    0.0000 C   0  0  0  0  0  0  0  0  0  0  0  0
    2.2275   -2.6391    0.0000 C   0  0  0  0  0  0  0  0  0  0  0  0
    2.6400   -3.3536    0.0000 C   0  0  0  0  0  0  0  0  0  0  0  0
    1.4025   -1.8141    0.0000 C   0  0  0  0  0  0  0  0  0  0  0  0
    2.1169   -1.4016    0.0000 C   0  0  0  0  0  0  0  0  0  0  0  0
    2.1169   -0.5766    0.0000 C   0  0  0  0  0  0  0  0  0  0  0  0
    1.4025   -0.1641    0.0000 C   0  0  0  0  0  0  0  0  0  0  0  0
    1.4025    0.6609    0.0000 O   0  0  0  0  0  0  0  0  0  0  0  0
    0.6880   -0.5766    0.0000 C   0  0  0  0  0  0  0  0  0  0  0  0
    0.6880   -1.4016    0.0000 C   0  0  0  0  0  0  0  0  0  0  0  0
    1.4025   -3.4641    0.0000 C   0  0  0  0  0  0  0  0  0  0  0  0
    0.6880   -3.8766    0.0000 C   0  0  0  0  0  0  0  0  0  0  0  0
    0.6880   -4.7016    0.0000 C   0  0  0  0  0  0  0  0  0  0  0  0
    1.4025   -5.1141    0.0000 C   0  0  0  0  0  0  0  0  0  0  0  0
    1.4025   -5.9391    0.0000 O   0  0  0  0  0  0  0  0  0  0  0  0
    2.1169   -4.7016    0.0000 C   0  0  0  0  0  0  0  0  0  0  0  0
    2.1169   -3.8766    0.0000 C   0  0  0  0  0  0  0  0  0  0  0  0
  1  2  1  0  0  0  0
  1  3  1  0  0  0  0
  3  4  1  0  0  0  0
  1  5  1  0  0  0  0
  6  5  1  0  0  0  0
  7  6  2  0  0  0  0
  8  7  1  0  0  0  0
  8  9  1  0  0  0  0
 10  8  2  0  0  0  0
 11 10  1  0  0  0  0
  5 11  2  0  0  0  0
  1 12  1  0  0  0  0
 13 12  2  0  0  0  0
 14 13  1  0  0  0  0
 15 14  2  0  0  0  0
 15 16  1  0  0  0  0
 17 15  1  0  0  0  0
 18 17  2  0  0  0  0
 12 18  1  0  0  0  0
M  END
> <ChemID>
10233

> <CAS>
77-40-7

> <Original_SMILES>
CCC(C)(c1ccc(O)cc1)c1ccc(O)cc1

> <preferred_name>
Bisphenol B

> <dsstox_substance_id>
DTXSID4022442

> <dsstox_compound_id>
DTXCID002442

> <Canonical_QSARr>
CCC(C)(C1C=CC(O)=CC=1)C1C=CC(O)=CC=1

> <InChI_Code_QSARr>
InChI=1S/C16H18O2/c1-3-16(2,12-4-8-14(17)9-5-12)13-6-10-15(18)11-7-13/h4-11,17-18H,3H2,1-2H3

> <InChI Key_QSARr>
HTVITOHKHWFJKO-UHFFFAOYSA-N

> <Salt_Solvent>


> <Salt_Solvent_ID>
0

> <Clint>
1.5521813388393355

> <Tr_1_Tst_0>
1

$$$$
Row358
  Mrv171c012261910192D          

 19 19  0  0  0  0            999 V2000
    1.8871   -2.6677    0.0000 N   0  0  0  0  0  0  0  0  0  0  0  0
    1.0621   -2.6677    0.0000 C   0  0  0  0  0  0  0  0  0  0  0  0
    0.6496   -1.9532    0.0000 C   0  0  0  0  0  0  0  0  0  0  0  0
    0.6496   -3.3821    0.0000 C   0  0  0  0  0  0  0  0  0  0  0  0
   -0.1754   -3.3821    0.0000 O   0  0  0  0  0  0  0  0  0  0  0  0
   -0.5879   -4.0966    0.0000 C   0  0  0  0  0  0  0  0  0  0  0  0
    2.2996   -3.3821    0.0000 C   0  0  0  0  0  0  0  0  0  0  0  0
    3.1246   -3.3821    0.0000 C   0  0  0  0  0  0  0  0  0  0  0  0
    3.5371   -4.0966    0.0000 Cl  0  0  0  0  0  0  0  0  0  0  0  0
    1.8871   -4.0966    0.0000 O   0  0  0  0  0  0  0  0  0  0  0  0
    2.2996   -1.9532    0.0000 C   0  0  0  0  0  0  0  0  0  0  0  0
    3.1246   -1.9532    0.0000 C   0  0  0  0  0  0  0  0  0  0  0  0
    3.5371   -2.6677    0.0000 C   0  0  0  0  0  0  0  0  0  0  0  0
    4.3621   -2.6677    0.0000 C   0  0  0  0  0  0  0  0  0  0  0  0
    3.5371   -1.2387    0.0000 C   0  0  0  0  0  0  0  0  0  0  0  0
    3.1246   -0.5242    0.0000 C   0  0  0  0  0  0  0  0  0  0  0  0
    2.2996   -0.5242    0.0000 C   0  0  0  0  0  0  0  0  0  0  0  0
    1.8871   -1.2387    0.0000 C   0  0  0  0  0  0  0  0  0  0  0  0
    1.0621   -1.2387    0.0000 C   0  0  0  0  0  0  0  0  0  0  0  0
  1  2  1  0  0  0  0
  2  3  1  0  0  0  0
  2  4  1  0  0  0  0
  4  5  1  0  0  0  0
  5  6  1  0  0  0  0
  1  7  1  0  0  0  0
  7  8  1  0  0  0  0
  8  9  1  0  0  0  0
  7 10  2  0  0  0  0
  1 11  1  0  0  0  0
 12 11  2  0  0  0  0
 12 13  1  0  0  0  0
 13 14  1  0  0  0  0
 15 12  1  0  0  0  0
 16 15  2  0  0  0  0
 17 16  1  0  0  0  0
 18 17  2  0  0  0  0
 11 18  1  0  0  0  0
 18 19  1  0  0  0  0
M  END
> <ChemID>
10234

> <CAS>
51218-45-2

> <Original_SMILES>
Cc1cccc(CC)c1N(C(C)COC)C(=O)CCl

> <preferred_name>
Metolachlor

> <dsstox_substance_id>
DTXSID4022448

> <dsstox_compound_id>
DTXCID402448

> <Canonical_QSARr>
CC1=CC=CC(CC)=C1N(C(C)COC)C(=O)CCl

> <InChI_Code_QSARr>
InChI=1S/C15H22ClNO2/c1-5-13-8-6-7-11(2)15(13)17(14(18)9-16)12(3)10-19-4/h6-8,12H,5,9-10H2,1-4H3

> <InChI Key_QSARr>
WVQBLGZPHOPPFO-UHFFFAOYSA-N

> <Salt_Solvent>


> <Salt_Solvent_ID>
0

> <Clint>
1.5486350598147516

> <Tr_1_Tst_0>
1

$$$$
Row365
  Mrv171c012261910192D          

 13 13  0  0  0  0            999 V2000
    3.0896   -0.6457    0.0000 C   0  0  0  0  0  0  0  0  0  0  0  0
    3.8041   -1.0582    0.0000 O   0  0  0  0  0  0  0  0  0  0  0  0
    4.5185   -0.6457    0.0000 C   0  0  0  0  0  0  0  0  0  0  0  0
    5.2330   -1.0582    0.0000 C   0  0  0  0  0  0  0  0  0  0  0  0
    5.9475   -0.6457    0.0000 C   0  0  0  0  0  0  0  0  0  0  0  0
    3.0896    0.1793    0.0000 O   0  0  0  0  0  0  0  0  0  0  0  0
    2.3751   -1.0582    0.0000 C   0  0  0  0  0  0  0  0  0  0  0  0
    1.6607   -0.6457    0.0000 C   0  0  0  0  0  0  0  0  0  0  0  0
    0.9462   -1.0582    0.0000 C   0  0  0  0  0  0  0  0  0  0  0  0
    0.9462   -1.8832    0.0000 C   0  0  0  0  0  0  0  0  0  0  0  0
    0.2317   -2.2957    0.0000 O   0  0  0  0  0  0  0  0  0  0  0  0
    1.6607   -2.2957    0.0000 C   0  0  0  0  0  0  0  0  0  0  0  0
    2.3751   -1.8832    0.0000 C   0  0  0  0  0  0  0  0  0  0  0  0
  1  2  1  0  0  0  0
  2  3  1  0  0  0  0
  3  4  1  0  0  0  0
  4  5  1  0  0  0  0
  1  6  2  0  0  0  0
  1  7  1  0  0  0  0
  8  7  1  0  0  0  0
  9  8  2  0  0  0  0
 10  9  1  0  0  0  0
 10 11  1  0  0  0  0
 12 10  2  0  0  0  0
 13 12  1  0  0  0  0
  7 13  2  0  0  0  0
M  END
> <ChemID>
10235

> <CAS>
94-13-3

> <Original_SMILES>
CCCOC(=O)c1ccc(O)cc1

> <preferred_name>
Propylparaben

> <dsstox_substance_id>
DTXSID4022527

> <dsstox_compound_id>
DTXCID602527

> <Canonical_QSARr>
CCCOC(=O)C1C=CC(O)=CC=1

> <InChI_Code_QSARr>
InChI=1S/C10H12O3/c1-2-7-13-10(12)8-3-5-9(11)6-4-8/h3-6,11H,2,7H2,1H3

> <InChI Key_QSARr>
QELSKZZBTMNZEB-UHFFFAOYSA-N

> <Salt_Solvent>


> <Salt_Solvent_ID>
0

> <Clint>
1.57978359661681

> <Tr_1_Tst_0>
1

$$$$
Row401
  Mrv171c012261910192D          

 11 11  0  0  0  0            999 V2000
    2.2361   -2.3085    0.0000 C   0  0  0  0  0  0  0  0  0  0  0  0
    1.5217   -2.7210    0.0000 O   0  0  0  0  0  0  0  0  0  0  0  0
    1.5217   -3.5460    0.0000 C   0  0  0  0  0  0  0  0  0  0  0  0
    2.9506   -2.7210    0.0000 O   0  0  0  0  0  0  0  0  0  0  0  0
    2.2361   -1.4835    0.0000 C   0  0  0  0  0  0  0  0  0  0  0  0
    2.9506   -1.0710    0.0000 C   0  0  0  0  0  0  0  0  0  0  0  0
    2.9506   -0.2460    0.0000 C   0  0  0  0  0  0  0  0  0  0  0  0
    2.2361    0.1665    0.0000 C   0  0  0  0  0  0  0  0  0  0  0  0
    2.2361    0.9915    0.0000 O   0  0  0  0  0  0  0  0  0  0  0  0
    1.5217   -0.2460    0.0000 C   0  0  0  0  0  0  0  0  0  0  0  0
    1.5217   -1.0710    0.0000 C   0  0  0  0  0  0  0  0  0  0  0  0
  1  2  1  0  0  0  0
  2  3  1  0  0  0  0
  1  4  2  0  0  0  0
  1  5  1  0  0  0  0
  6  5  1  0  0  0  0
  7  6  2  0  0  0  0
  8  7  1  0  0  0  0
  8  9  1  0  0  0  0
 10  8  2  0  0  0  0
 11 10  1  0  0  0  0
  5 11  2  0  0  0  0
M  END
> <ChemID>
10236

> <CAS>
99-76-3

> <Original_SMILES>
COC(=O)c1ccc(O)cc1

> <preferred_name>
Methylparaben

> <dsstox_substance_id>
DTXSID4022529

> <dsstox_compound_id>
DTXCID402529

> <Canonical_QSARr>
COC(=O)C1C=CC(O)=CC=1

> <InChI_Code_QSARr>
InChI=1S/C8H8O3/c1-11-8(10)6-2-4-7(9)5-3-6/h2-5,9H,1H3

> <InChI Key_QSARr>
LXCFILQKKLGQFO-UHFFFAOYSA-N

> <Salt_Solvent>


> <Salt_Solvent_ID>
0

> <Clint>
2.0314084642516237

> <Tr_1_Tst_0>
1

$$$$
Row529
  Mrv171c012261910192D          

 22 25  0  0  0  0            999 V2000
    1.8117   -0.7246    0.0000 C   0  0  0  0  0  0  0  0  0  0  0  0
    2.6317   -0.8157    0.0000 C   0  0  0  0  0  0  0  0  0  0  0  0
    2.9628   -1.5713    0.0000 C   0  0  0  0  0  0  0  0  0  0  0  0
    3.7872   -1.5391    0.0000 N   0  0  0  0  0  0  0  0  0  0  0  0
    4.2145   -0.8333    0.0000 C   0  0  0  0  0  0  0  0  0  0  0  0
    3.8947   -0.0729    0.0000 C   0  0  0  0  0  0  0  0  0  0  0  0
    5.0177   -1.0216    0.0000 N   0  0  0  0  0  0  0  0  0  0  0  0
    5.0868   -1.8437    0.0000 N   0  0  0  0  0  0  0  0  0  0  0  0
    4.3264   -2.1635    0.0000 C   0  0  0  0  0  0  0  0  0  0  0  0
    4.1743   -2.9744    0.0000 C   0  0  0  0  0  0  0  0  0  0  0  0
    3.4455   -3.3611    0.0000 N   0  0  0  0  0  0  0  0  0  0  0  0
    2.6888   -3.0324    0.0000 C   0  0  0  0  0  0  0  0  0  0  0  0
    2.0644   -3.5716    0.0000 C   0  0  0  0  0  0  0  0  0  0  0  0
    1.2853   -3.3004    0.0000 C   0  0  0  0  0  0  0  0  0  0  0  0
    0.6608   -3.8395    0.0000 C   0  0  0  0  0  0  0  0  0  0  0  0
    0.8155   -4.6499    0.0000 C   0  0  0  0  0  0  0  0  0  0  0  0
    1.5947   -4.9211    0.0000 C   0  0  0  0  0  0  0  0  0  0  0  0
    2.2191   -4.3819    0.0000 C   0  0  0  0  0  0  0  0  0  0  0  0
    2.4740   -2.2359    0.0000 C   0  0  0  0  0  0  0  0  0  0  0  0
    1.6540   -2.1449    0.0000 C   0  0  0  0  0  0  0  0  0  0  0  0
    1.3229   -1.3892    0.0000 C   0  0  0  0  0  0  0  0  0  0  0  0
    0.5029   -1.2982    0.0000 Cl  0  0  0  0  0  0  0  0  0  0  0  0
  2  1  1  0  0  0  0
  3  2  2  0  0  0  0
  3  4  1  0  0  0  0
  5  4  1  0  0  0  0
  5  6  1  0  0  0  0
  7  5  2  0  0  0  0
  8  7  1  0  0  0  0
  9  8  2  0  0  0  0
  4  9  1  0  0  0  0
  9 10  1  0  0  0  0
 10 11  1  0  0  0  0
 11 12  2  0  0  0  0
 12 13  1  0  0  0  0
 14 13  1  0  0  0  0
 15 14  2  0  0  0  0
 16 15  1  0  0  0  0
 17 16  2  0  0  0  0
 18 17  1  0  0  0  0
 13 18  2  0  0  0  0
 12 19  1  0  0  0  0
 19  3  1  0  0  0  0
 20 19  2  0  0  0  0
 21 20  1  0  0  0  0
  1 21  2  0  0  0  0
 21 22  1  0  0  0  0
M  END
> <ChemID>
10237

> <CAS>
28981-97-7

> <Original_SMILES>
Cc1[n][n]c2CN=C(c3cc(Cl)ccc3-[n]21)c1ccccc1

> <preferred_name>
Alprazolam

> <dsstox_substance_id>
DTXSID4022577

> <dsstox_compound_id>
DTXCID102577

> <Canonical_QSARr>
CC1=NN=C2CN=C(C3=CC(Cl)=CC=C3N21)C1C=CC=CC=1

> <InChI_Code_QSARr>
InChI=1S/C17H13ClN4/c1-11-20-21-16-10-19-17(12-5-3-2-4-6-12)14-9-13(18)7-8-15(14)22(11)16/h2-9H,10H2,1H3

> <InChI Key_QSARr>
VREFGVBLTWBCJP-UHFFFAOYSA-N

> <Salt_Solvent>


> <Salt_Solvent_ID>
0

> <Clint>
1.5185139398778873

> <Tr_1_Tst_0>
0

$$$$
Row80
  Mrv171c012261910192D          

 10 10  0  0  0  0            999 V2000
    3.0027   -2.2298    0.0000 C   0  0  0  0  0  0  0  0  0  0  0  0
    3.0027   -1.4048    0.0000 C   0  0  0  0  0  0  0  0  0  0  0  0
    2.2882   -0.9923    0.0000 C   0  0  0  0  0  0  0  0  0  0  0  0
    2.2882   -0.1673    0.0000 C   0  0  0  0  0  0  0  0  0  0  0  0
    1.5738    0.2452    0.0000 C   0  0  0  0  0  0  0  0  0  0  0  0
    1.5738    1.0702    0.0000 C   0  0  0  0  0  0  0  0  0  0  0  0
    0.8593   -0.1673    0.0000 N   0  0  0  0  0  0  0  0  0  0  0  0
    1.5738   -1.4048    0.0000 C   0  0  0  0  0  0  0  0  0  0  0  0
    1.5738   -2.2298    0.0000 C   0  0  0  0  0  0  0  0  0  0  0  0
    2.2882   -2.6423    0.0000 C   0  0  0  0  0  0  0  0  0  0  0  0
  2  1  1  0  0  0  0
  3  2  2  0  0  0  0
  3  4  1  0  0  0  0
  4  5  1  0  0  0  0
  5  6  1  0  0  0  0
  5  7  1  0  0  0  0
  8  3  1  0  0  0  0
  9  8  2  0  0  0  0
 10  9  1  0  0  0  0
  1 10  2  0  0  0  0
M  END
> <ChemID>
10238

> <CAS>
300-62-9

> <Original_SMILES>
CC(N)Cc1ccccc1

> <preferred_name>
Amphetamine

> <dsstox_substance_id>
DTXSID4022600

> <dsstox_compound_id>
DTXCID402600

> <Canonical_QSARr>
CC(N)CC1C=CC=CC=1

> <InChI_Code_QSARr>
InChI=1S/C9H13N/c1-8(10)7-9-5-3-2-4-6-9/h2-6,8H,7,10H2,1H3

> <InChI Key_QSARr>
KWTSXDURSIMDCE-UHFFFAOYSA-N

> <Salt_Solvent>


> <Salt_Solvent_ID>
0

> <Clint>
-0.29157909986528724

> <Tr_1_Tst_0>
1

$$$$
Row425
  Mrv171c012261910192D          

 18 20  0  0  0  0            999 V2000
   -0.4064   -1.6123    0.0000 C   0  0  0  0  0  0  0  0  0  0  0  0
    0.3820   -1.3692    0.0000 C   0  0  0  0  0  0  0  0  0  0  0  0
    0.9868   -1.9303    0.0000 C   0  0  0  0  0  0  0  0  0  0  0  0
    1.7301   -1.5724    0.0000 N   0  0  0  0  0  0  0  0  0  0  0  0
    2.4734   -1.9303    0.0000 C   0  0  0  0  0  0  0  0  0  0  0  0
    3.0781   -1.3692    0.0000 C   0  0  0  0  0  0  0  0  0  0  0  0
    3.8665   -1.6123    0.0000 C   0  0  0  0  0  0  0  0  0  0  0  0
    4.0501   -2.4167    0.0000 C   0  0  0  0  0  0  0  0  0  0  0  0
    3.4453   -2.9778    0.0000 C   0  0  0  0  0  0  0  0  0  0  0  0
    2.6569   -2.7346    0.0000 C   0  0  0  0  0  0  0  0  0  0  0  0
    2.1426   -3.3796    0.0000 C   0  0  0  0  0  0  0  0  0  0  0  0
    1.3176   -3.3796    0.0000 C   0  0  0  0  0  0  0  0  0  0  0  0
    0.8032   -2.7346    0.0000 C   0  0  0  0  0  0  0  0  0  0  0  0
    0.0148   -2.9778    0.0000 C   0  0  0  0  0  0  0  0  0  0  0  0
   -0.5899   -2.4167    0.0000 C   0  0  0  0  0  0  0  0  0  0  0  0
    1.7301   -0.7474    0.0000 C   0  0  0  0  0  0  0  0  0  0  0  0
    2.4445   -0.3349    0.0000 O   0  0  0  0  0  0  0  0  0  0  0  0
    1.0156   -0.3349    0.0000 N   0  0  0  0  0  0  0  0  0  0  0  0
  2  1  1  0  0  0  0
  3  2  2  0  0  0  0
  3  4  1  0  0  0  0
  4  5  1  0  0  0  0
  6  5  1  0  0  0  0
  7  6  2  0  0  0  0
  8  7  1  0  0  0  0
  9  8  2  0  0  0  0
 10  9  1  0  0  0  0
  5 10  2  0  0  0  0
 10 11  1  0  0  0  0
 11 12  2  0  0  0  0
 12 13  1  0  0  0  0
 13  3  1  0  0  0  0
 14 13  2  0  0  0  0
 15 14  1  0  0  0  0
  1 15  2  0  0  0  0
  4 16  1  0  0  0  0
 16 17  2  0  0  0  0
 16 18  1  0  0  0  0
M  END
> <ChemID>
10239

> <CAS>
298-46-4

> <Original_SMILES>
NC(=O)N1c2ccccc2C=Cc2ccccc12

> <preferred_name>
Carbamazepine

> <dsstox_substance_id>
DTXSID4022731

> <dsstox_compound_id>
DTXCID902731

> <Canonical_QSARr>
NC(=O)N1C2=CC=CC=C2C=CC2C=CC=CC1=2

> <InChI_Code_QSARr>
InChI=1S/C15H12N2O/c16-15(18)17-13-7-3-1-5-11(13)9-10-12-6-2-4-8-14(12)17/h1-10H,(H2,16,18)

> <InChI Key_QSARr>
FFGPTBGBLSHEPO-UHFFFAOYSA-N

> <Salt_Solvent>


> <Salt_Solvent_ID>
0

> <Clint>
-7.0

> <Tr_1_Tst_0>
0

$$$$
Row433
  Mrv171c012261910192D          

 27 29  0  0  0  0            999 V2000
    2.8389   -2.8458    0.0000 N   0  0  0  0  0  0  0  0  0  0  0  0
    2.8389   -3.6708    0.0000 C   0  0  0  0  0  0  0  0  0  0  0  0
    3.5534   -4.0833    0.0000 C   0  0  0  0  0  0  0  0  0  0  0  0
    4.2679   -3.6708    0.0000 N   0  0  0  0  0  0  0  0  0  0  0  0
    4.9824   -4.0833    0.0000 C   0  0  0  0  0  0  0  0  0  0  0  0
    5.6968   -3.6708    0.0000 C   0  0  0  0  0  0  0  0  0  0  0  0
    6.4113   -4.0833    0.0000 O   0  0  0  0  0  0  0  0  0  0  0  0
    7.1258   -3.6708    0.0000 C   0  0  0  0  0  0  0  0  0  0  0  0
    7.8402   -4.0833    0.0000 C   0  0  0  0  0  0  0  0  0  0  0  0
    8.5547   -3.6708    0.0000 O   0  0  0  0  0  0  0  0  0  0  0  0
    7.8402   -4.9083    0.0000 O   0  0  0  0  0  0  0  0  0  0  0  0
    4.2679   -2.8458    0.0000 C   0  0  0  0  0  0  0  0  0  0  0  0
    3.5534   -2.4333    0.0000 C   0  0  0  0  0  0  0  0  0  0  0  0
    2.1245   -2.4333    0.0000 C   0  0  0  0  0  0  0  0  0  0  0  0
    2.1245   -1.6083    0.0000 C   0  0  0  0  0  0  0  0  0  0  0  0
    2.8389   -1.1958    0.0000 C   0  0  0  0  0  0  0  0  0  0  0  0
    2.8389   -0.3708    0.0000 C   0  0  0  0  0  0  0  0  0  0  0  0
    2.1245    0.0417    0.0000 C   0  0  0  0  0  0  0  0  0  0  0  0
    1.4100   -0.3708    0.0000 C   0  0  0  0  0  0  0  0  0  0  0  0
    1.4100   -1.1958    0.0000 C   0  0  0  0  0  0  0  0  0  0  0  0
    1.4100   -2.8458    0.0000 C   0  0  0  0  0  0  0  0  0  0  0  0
    0.6955   -2.4333    0.0000 C   0  0  0  0  0  0  0  0  0  0  0  0
   -0.0189   -2.8458    0.0000 C   0  0  0  0  0  0  0  0  0  0  0  0
   -0.0189   -3.6708    0.0000 C   0  0  0  0  0  0  0  0  0  0  0  0
   -0.7334   -4.0833    0.0000 Cl  0  0  0  0  0  0  0  0  0  0  0  0
    0.6955   -4.0833    0.0000 C   0  0  0  0  0  0  0  0  0  0  0  0
    1.4100   -3.6708    0.0000 C   0  0  0  0  0  0  0  0  0  0  0  0
  2  1  1  0  0  0  0
  3  2  1  0  0  0  0
  4  3  1  0  0  0  0
  4  5  1  0  0  0  0
  5  6  1  0  0  0  0
  6  7  1  0  0  0  0
  7  8  1  0  0  0  0
  8  9  1  0  0  0  0
  9 10  1  0  0  0  0
  9 11  2  0  0  0  0
 12  4  1  0  0  0  0
 13 12  1  0  0  0  0
  1 13  1  0  0  0  0
  1 14  1  0  0  0  0
 14 15  1  0  0  0  0
 16 15  2  0  0  0  0
 17 16  1  0  0  0  0
 18 17  2  0  0  0  0
 19 18  1  0  0  0  0
 20 19  2  0  0  0  0
 15 20  1  0  0  0  0
 14 21  1  0  0  0  0
 22 21  1  0  0  0  0
 23 22  2  0  0  0  0
 24 23  1  0  0  0  0
 24 25  1  0  0  0  0
 26 24  2  0  0  0  0
 27 26  1  0  0  0  0
 21 27  2  0  0  0  0
M  END
> <ChemID>
10240

> <CAS>
83881-51-0

> <Original_SMILES>
OC(=O)COCCN1CCN(CC1)C(c1ccc(Cl)cc1)c1ccccc1

> <preferred_name>
Cetirizine

> <dsstox_substance_id>
DTXSID4022787

> <dsstox_compound_id>
DTXCID802787

> <Canonical_QSARr>
OC(=O)COCCN1CCN(CC1)C(C1C=CC=CC=1)C1C=CC(Cl)=CC=1

> <InChI_Code_QSARr>
InChI=1S/C21H25ClN2O3/c22-19-8-6-18(7-9-19)21(17-4-2-1-3-5-17)24-12-10-23(11-13-24)14-15-27-16-20(25)26/h1-9,21H,10-16H2,(H,25,26)

> <InChI Key_QSARr>
ZKLPARSLTMPFCP-UHFFFAOYSA-N

> <Salt_Solvent>


> <Salt_Solvent_ID>
0

> <Clint>
-6.443697499232711

> <Tr_1_Tst_0>
0

$$$$
Row259
  Mrv171c012261910192D          

 21 23  0  0  0  0            999 V2000
    0.7145    4.5375    0.0000 C   0  0  0  0  0  0  0  0  0  0  0  0
    0.7145    3.7125    0.0000 N   0  0  0  0  0  0  0  0  0  0  0  0
   -0.0000    3.3000    0.0000 C   0  0  0  0  0  0  0  0  0  0  0  0
    1.4289    3.3000    0.0000 C   0  0  0  0  0  0  0  0  0  0  0  0
    1.4289    2.4750    0.0000 C   0  0  0  0  0  0  0  0  0  0  0  0
    2.1434    2.0625    0.0000 C   0  0  0  0  0  0  0  0  0  0  0  0
    2.1434    1.2375    0.0000 C   0  0  0  0  0  0  0  0  0  0  0  0
    2.8579    0.8250    0.0000 C   0  0  0  0  0  0  0  0  0  0  0  0
    3.5724    1.2375    0.0000 C   0  0  0  0  0  0  0  0  0  0  0  0
    4.2868    0.8250    0.0000 C   0  0  0  0  0  0  0  0  0  0  0  0
    4.2868   -0.0000    0.0000 C   0  0  0  0  0  0  0  0  0  0  0  0
    3.5724   -0.4125    0.0000 C   0  0  0  0  0  0  0  0  0  0  0  0
    2.8579    0.0000    0.0000 C   0  0  0  0  0  0  0  0  0  0  0  0
    2.1434   -0.4125    0.0000 S   0  0  0  0  0  0  0  0  0  0  0  0
    1.4289    0.0000    0.0000 C   0  0  0  0  0  0  0  0  0  0  0  0
    0.7145   -0.4125    0.0000 C   0  0  0  0  0  0  0  0  0  0  0  0
    0.0000    0.0000    0.0000 C   0  0  0  0  0  0  0  0  0  0  0  0
    0.0000    0.8250    0.0000 C   0  0  0  0  0  0  0  0  0  0  0  0
   -0.7145    1.2375    0.0000 Cl  0  0  0  0  0  0  0  0  0  0  0  0
    0.7145    1.2375    0.0000 C   0  0  0  0  0  0  0  0  0  0  0  0
    1.4289    0.8250    0.0000 C   0  0  0  0  0  0  0  0  0  0  0  0
  1  2  1  0  0  0  0
  2  3  1  0  0  0  0
  2  4  1  0  0  0  0
  4  5  1  0  0  0  0
  6  5  1  4  0  0  0
  6  7  2  0  0  0  0
  7  8  1  0  0  0  0
  8  9  2  0  0  0  0
  9 10  1  0  0  0  0
 10 11  2  0  0  0  0
 11 12  1  0  0  0  0
 12 13  2  0  0  0  0
  8 13  1  0  0  0  0
 13 14  1  0  0  0  0
 14 15  1  0  0  0  0
 15 16  1  0  0  0  0
 16 17  2  0  0  0  0
 17 18  1  0  0  0  0
 18 19  1  0  0  0  0
 18 20  2  0  0  0  0
 20 21  1  0  0  0  0
 15 21  2  0  0  0  0
  7 21  1  0  0  0  0
M  END
> <ChemID>
10241

> <CAS>
113-59-7

> <Original_SMILES>
CN(C)CC/C=C1\c2ccccc2Sc2ccc(Cl)cc2\1

> <preferred_name>
Chlorprothixene

> <dsstox_substance_id>
DTXSID4022810

> <dsstox_compound_id>
DTXCID102810

> <Canonical_QSARr>
CN(C)CCC=C1C2=CC=CC=C2SC2C=CC(Cl)=CC=21

> <InChI_Code_QSARr>
InChI=1S/C18H18ClNS/c1-20(2)11-5-7-14-15-6-3-4-8-17(15)21-18-10-9-13(19)12-16(14)18/h3-4,6-10,12H,5,11H2,1-2H3

> <InChI Key_QSARr>
WSPOMRSOLSGNFJ-UHFFFAOYSA-N

> <Salt_Solvent>


> <Salt_Solvent_ID>
0

> <Clint>
1.1461280356782377

> <Tr_1_Tst_0>
1

$$$$
Row187
  Mrv171c012261910192D          

 19 20  0  0  0  0            999 V2000
    1.1329    0.1185    0.0000 C   0  0  0  0  0  0  0  0  0  0  0  0
    0.4184   -0.2940    0.0000 C   0  0  0  0  0  0  0  0  0  0  0  0
    0.4184   -1.1190    0.0000 C   0  0  0  0  0  0  0  0  0  0  0  0
    1.1329   -1.5315    0.0000 C   0  0  0  0  0  0  0  0  0  0  0  0
    1.8473   -1.1190    0.0000 C   0  0  0  0  0  0  0  0  0  0  0  0
    2.5618   -1.5315    0.0000 C   0  0  0  0  0  0  0  0  0  0  0  0
    3.2763   -1.1190    0.0000 O   0  0  0  0  0  0  0  0  0  0  0  0
    3.9908   -1.5315    0.0000 C   0  0  0  0  0  0  0  0  0  0  0  0
    4.7052   -1.1190    0.0000 C   0  0  0  0  0  0  0  0  0  0  0  0
    5.4197   -1.5315    0.0000 N   0  0  0  0  0  0  0  0  0  0  0  0
    6.1342   -1.1190    0.0000 C   0  0  0  0  0  0  0  0  0  0  0  0
    5.4197   -2.3565    0.0000 C   0  0  0  0  0  0  0  0  0  0  0  0
    2.5618   -2.3565    0.0000 C   0  0  0  0  0  0  0  0  0  0  0  0
    1.8473   -2.7690    0.0000 C   0  0  0  0  0  0  0  0  0  0  0  0
    1.8473   -3.5940    0.0000 C   0  0  0  0  0  0  0  0  0  0  0  0
    2.5618   -4.0065    0.0000 C   0  0  0  0  0  0  0  0  0  0  0  0
    3.2763   -3.5940    0.0000 C   0  0  0  0  0  0  0  0  0  0  0  0
    3.2763   -2.7690    0.0000 C   0  0  0  0  0  0  0  0  0  0  0  0
    1.8473   -0.2940    0.0000 C   0  0  0  0  0  0  0  0  0  0  0  0
  2  1  1  0  0  0  0
  3  2  2  0  0  0  0
  4  3  1  0  0  0  0
  5  4  2  0  0  0  0
  5  6  1  0  0  0  0
  6  7  1  0  0  0  0
  7  8  1  0  0  0  0
  8  9  1  0  0  0  0
  9 10  1  0  0  0  0
 10 11  1  0  0  0  0
 10 12  1  0  0  0  0
  6 13  1  0  0  0  0
 14 13  1  0  0  0  0
 15 14  2  0  0  0  0
 16 15  1  0  0  0  0
 17 16  2  0  0  0  0
 18 17  1  0  0  0  0
 13 18  2  0  0  0  0
 19  5  1  0  0  0  0
  1 19  2  0  0  0  0
M  END
> <ChemID>
10242

> <CAS>
58-73-1

> <Original_SMILES>
CN(C)CCOC(c1ccccc1)c1ccccc1

> <preferred_name>
Diphenhydramine

> <dsstox_substance_id>
DTXSID4022949

> <dsstox_compound_id>
DTXCID802949

> <Canonical_QSARr>
CN(C)CCOC(C1C=CC=CC=1)C1C=CC=CC=1

> <InChI_Code_QSARr>
InChI=1S/C17H21NO/c1-18(2)13-14-19-17(15-9-5-3-6-10-15)16-11-7-4-8-12-16/h3-12,17H,13-14H2,1-2H3

> <InChI Key_QSARr>
ZZVUWRFHKOJYTH-UHFFFAOYSA-N

> <Salt_Solvent>


> <Salt_Solvent_ID>
0

> <Clint>
0.7781512503836435

> <Tr_1_Tst_0>
1

$$$$
Row163
  Mrv171c012261910192D          

 51 53  0  0  0  0            999 V2000
    3.8628   -4.5757    0.0000 C   0  0  0  0  0  0  0  0  0  0  0  0
    3.1483   -4.9882    0.0000 O   0  0  0  0  0  0  0  0  0  0  0  0
    2.4338   -4.5757    0.0000 C   0  0  0  0  0  0  0  0  0  0  0  0
    1.7194   -4.9882    0.0000 O   0  0  0  0  0  0  0  0  0  0  0  0
    1.0049   -4.5757    0.0000 C   0  0  0  0  0  0  0  0  0  0  0  0
    0.2904   -4.9882    0.0000 C   0  0  0  0  0  0  0  0  0  0  0  0
    1.0049   -3.7507    0.0000 C   0  0  0  0  0  0  0  0  0  0  0  0
    0.2904   -3.3382    0.0000 O   0  0  0  0  0  0  0  0  0  0  0  0
    1.7194   -3.3382    0.0000 C   0  0  0  0  0  0  0  0  0  0  0  0
    2.2497   -2.7063    0.0000 C   0  0  0  0  0  0  0  0  0  0  0  0
    1.1891   -2.7063    0.0000 O   0  0  0  0  0  0  0  0  0  0  0  0
    0.3766   -2.8495    0.0000 C   0  0  0  0  0  0  0  0  0  0  0  0
    2.4338   -3.7507    0.0000 C   0  0  0  0  0  0  0  0  0  0  0  0
    4.5773   -4.9882    0.0000 C   0  0  0  0  0  0  0  0  0  0  0  0
    5.2917   -4.5757    0.0000 C   0  0  0  0  0  0  0  0  0  0  0  0
    4.5773   -5.8132    0.0000 C   0  0  0  0  0  0  0  0  0  0  0  0
    3.8628   -6.2257    0.0000 O   0  0  0  0  0  0  0  0  0  0  0  0
    5.2917   -6.2257    0.0000 O   0  0  0  0  0  0  0  0  0  0  0  0
    6.0062   -5.8132    0.0000 C   0  0  0  0  0  0  0  0  0  0  0  0
    6.0062   -6.6382    0.0000 C   0  0  0  0  0  0  0  0  0  0  0  0
    5.2917   -7.0507    0.0000 C   0  0  0  0  0  0  0  0  0  0  0  0
    6.7207   -6.2257    0.0000 C   0  0  0  0  0  0  0  0  0  0  0  0
    6.1904   -6.8577    0.0000 C   0  0  0  0  0  0  0  0  0  0  0  0
    7.2510   -6.8577    0.0000 O   0  0  0  0  0  0  0  0  0  0  0  0
    7.4351   -5.8132    0.0000 C   0  0  0  0  0  0  0  0  0  0  0  0
    8.1496   -6.2257    0.0000 O   0  0  0  0  0  0  0  0  0  0  0  0
    7.4351   -4.9882    0.0000 C   0  0  0  0  0  0  0  0  0  0  0  0
    8.1496   -4.5757    0.0000 C   0  0  0  0  0  0  0  0  0  0  0  0
    6.7207   -4.5757    0.0000 C   0  0  0  0  0  0  0  0  0  0  0  0
    6.0062   -4.9882    0.0000 O   0  0  0  0  0  0  0  0  0  0  0  0
    6.7207   -3.7507    0.0000 C   0  0  0  0  0  0  0  0  0  0  0  0
    7.4351   -3.3382    0.0000 C   0  0  0  0  0  0  0  0  0  0  0  0
    6.0062   -3.3382    0.0000 C   0  0  0  0  0  0  0  0  0  0  0  0
    5.2917   -3.7507    0.0000 C   0  0  0  0  0  0  0  0  0  0  0  0
    5.5739   -2.9755    0.0000 C   0  0  0  0  0  0  0  0  0  0  0  0
    5.0096   -2.9755    0.0000 O   0  0  0  0  0  0  0  0  0  0  0  0
    4.5773   -3.3382    0.0000 C   0  0  0  0  0  0  0  0  0  0  0  0
    4.5773   -2.5132    0.0000 O   0  0  0  0  0  0  0  0  0  0  0  0
    3.8628   -2.1007    0.0000 C   0  0  0  0  0  0  0  0  0  0  0  0
    3.1483   -2.5132    0.0000 O   0  0  0  0  0  0  0  0  0  0  0  0
    2.4338   -2.1007    0.0000 C   0  0  0  0  0  0  0  0  0  0  0  0
    1.7194   -2.5132    0.0000 C   0  0  0  0  0  0  0  0  0  0  0  0
    2.4338   -1.2757    0.0000 C   0  0  0  0  0  0  0  0  0  0  0  0
    3.1483   -0.8632    0.0000 C   0  0  0  0  0  0  0  0  0  0  0  0
    3.1483   -0.0382    0.0000 N   0  0  0  0  0  0  0  0  0  0  0  0
    2.4338    0.3743    0.0000 C   0  0  0  0  0  0  0  0  0  0  0  0
    3.8628    0.3743    0.0000 C   0  0  0  0  0  0  0  0  0  0  0  0
    3.8628   -1.2757    0.0000 C   0  0  0  0  0  0  0  0  0  0  0  0
    4.5773   -0.8632    0.0000 O   0  0  0  0  0  0  0  0  0  0  0  0
    3.8628   -3.7507    0.0000 C   0  0  0  0  0  0  0  0  0  0  0  0
    3.1483   -3.3382    0.0000 C   0  0  0  0  0  0  0  0  0  0  0  0
  1  2  1  0  0  0  0
  2  3  1  0  0  0  0
  4  3  1  0  0  0  0
  5  4  1  0  0  0  0
  5  6  1  0  0  0  0
  7  5  1  0  0  0  0
  7  8  1  0  0  0  0
  9  7  1  0  0  0  0
  9 10  1  0  0  0  0
  9 11  1  0  0  0  0
 11 12  1  0  0  0  0
 13  9  1  0  0  0  0
  3 13  1  0  0  0  0
 14  1  1  0  0  0  0
 14 15  1  0  0  0  0
 16 14  1  0  0  0  0
 16 17  2  0  0  0  0
 18 16  1  0  0  0  0
 19 18  1  0  0  0  0
 19 20  1  0  0  0  0
 20 21  1  0  0  0  0
 22 19  1  0  0  0  0
 22 23  1  0  0  0  0
 22 24  1  0  0  0  0
 25 22  1  0  0  0  0
 25 26  1  0  0  0  0
 27 25  1  0  0  0  0
 27 28  1  0  0  0  0
 29 27  1  0  0  0  0
 29 30  2  0  0  0  0
 31 29  1  0  0  0  0
 31 32  1  0  0  0  0
 33 31  1  0  0  0  0
 34 33  1  0  0  0  0
 34 35  1  0  0  0  0
 34 36  1  0  0  0  0
 37 34  1  0  0  0  0
 37 38  1  0  0  0  0
 38 39  1  0  0  0  0
 40 39  1  0  0  0  0
 41 40  1  0  0  0  0
 41 42  1  0  0  0  0
 43 41  1  0  0  0  0
 44 43  1  0  0  0  0
 44 45  1  0  0  0  0
 45 46  1  0  0  0  0
 45 47  1  0  0  0  0
 48 44  1  0  0  0  0
 39 48  1  0  0  0  0
 48 49  1  0  0  0  0
 50 37  1  0  0  0  0
  1 50  1  0  0  0  0
 50 51  1  0  0  0  0
M  END
> <ChemID>
10243

> <CAS>
114-07-8

> <Original_SMILES>
CO[C@]1(C)C[C@H](O[C@@H]2[C@@H](C)C(=O)O[C@H](CC)[C@@](C)(O)[C@H](O)[C@@H](C)C(=O)[C@H](C)C[C@@](C)(O)[C@H](O[C@@H]3O[C@H](C)C[C@@H]([C@H]3O)N(C)C)[C@H]2C)O[C@@H](C)[C@@H]1O

> <preferred_name>
Erythromycin

> <dsstox_substance_id>
DTXSID4022991

> <dsstox_compound_id>
DTXCID102991

> <Canonical_QSARr>
COC1(C)CC(OC2C(C)C(=O)OC(CC)C(C)(O)C(O)C(C)C(=O)C(C)CC(C)(O)C(OC3OC(C)CC(C3O)N(C)C)C2C)OC(C)C1O

> <InChI_Code_QSARr>
InChI=1S/C37H67NO13/c1-14-25-37(10,45)30(41)20(4)27(39)18(2)16-35(8,44)32(51-34-28(40)24(38(11)12)15-19(3)47-34)21(5)29(22(6)33(43)49-25)50-26-17-36(9,46-13)31(42)23(7)48-26/h18-26,28-32,34,40-42,44-45H,14-17H2,1-13H3

> <InChI Key_QSARr>
ULGZDMOVFRHVEP-UHFFFAOYSA-N

> <Salt_Solvent>


> <Salt_Solvent_ID>
0

> <Clint>
0.6063813651106049

> <Tr_1_Tst_0>
1

$$$$
Row509
  Mrv171c012261910192D          

 27 29  0  0  0  0            999 V2000
    0.0072   -2.2312    0.0000 N   0  0  0  0  0  0  0  0  0  0  0  0
    0.7217   -1.8187    0.0000 C   0  0  0  0  0  0  0  0  0  0  0  0
    1.4361   -2.2312    0.0000 C   0  0  0  0  0  0  0  0  0  0  0  0
    0.7217   -0.9937    0.0000 C   0  0  0  0  0  0  0  0  0  0  0  0
    1.4361   -0.5812    0.0000 C   0  0  0  0  0  0  0  0  0  0  0  0
    1.4361    0.2438    0.0000 O   0  0  0  0  0  0  0  0  0  0  0  0
    2.1506   -0.9937    0.0000 O   0  0  0  0  0  0  0  0  0  0  0  0
    2.8651   -0.5812    0.0000 C   0  0  0  0  0  0  0  0  0  0  0  0
    3.5796   -0.9937    0.0000 C   0  0  0  0  0  0  0  0  0  0  0  0
    2.8651    0.2438    0.0000 C   0  0  0  0  0  0  0  0  0  0  0  0
    0.0072   -0.5812    0.0000 C   0  0  0  0  0  0  0  0  0  0  0  0
    0.0072    0.2438    0.0000 C   0  0  0  0  0  0  0  0  0  0  0  0
    0.7217    0.6563    0.0000 C   0  0  0  0  0  0  0  0  0  0  0  0
    0.7217    1.4813    0.0000 C   0  0  0  0  0  0  0  0  0  0  0  0
    0.0072    1.8938    0.0000 C   0  0  0  0  0  0  0  0  0  0  0  0
   -0.7073    1.4813    0.0000 C   0  0  0  0  0  0  0  0  0  0  0  0
   -1.4919    1.7362    0.0000 N   0  0  0  0  0  0  0  0  0  0  0  0
   -1.9768    1.0688    0.0000 O   0  0  0  0  0  0  0  0  0  0  0  0
   -1.4919    0.4014    0.0000 N   0  0  0  0  0  0  0  0  0  0  0  0
   -0.7073    0.6563    0.0000 C   0  0  0  0  0  0  0  0  0  0  0  0
   -0.7073   -0.9937    0.0000 C   0  0  0  0  0  0  0  0  0  0  0  0
   -1.4217   -0.5812    0.0000 C   0  0  0  0  0  0  0  0  0  0  0  0
   -2.1362   -0.9937    0.0000 O   0  0  0  0  0  0  0  0  0  0  0  0
   -2.8507   -0.5812    0.0000 C   0  0  0  0  0  0  0  0  0  0  0  0
   -1.9067    0.0862    0.0000 O   0  0  0  0  0  0  0  0  0  0  0  0
   -0.7073   -1.8187    0.0000 C   0  0  0  0  0  0  0  0  0  0  0  0
   -1.4217   -2.2312    0.0000 C   0  0  0  0  0  0  0  0  0  0  0  0
  2  1  1  0  0  0  0
  2  3  1  0  0  0  0
  4  2  2  0  0  0  0
  4  5  1  0  0  0  0
  5  6  2  0  0  0  0
  5  7  1  0  0  0  0
  7  8  1  0  0  0  0
  8  9  1  0  0  0  0
  8 10  1  0  0  0  0
 11  4  1  0  0  0  0
 11 12  1  0  0  0  0
 13 12  2  0  0  0  0
 14 13  1  0  0  0  0
 15 14  2  0  0  0  0
 16 15  1  0  0  0  0
 16 17  2  0  0  0  0
 17 18  1  0  0  0  0
 18 19  1  0  0  0  0
 19 20  2  0  0  0  0
 12 20  1  0  0  0  0
 20 16  1  0  0  0  0
 21 11  1  0  0  0  0
 21 22  1  0  0  0  0
 22 23  1  0  0  0  0
 23 24  1  0  0  0  0
 22 25  2  0  0  0  0
 26 21  1  0  0  0  0
  1 26  2  0  0  0  0
 26 27  1  0  0  0  0
M  END
> <ChemID>
10244

> <CAS>
75695-93-1

> <Original_SMILES>
CC(C)OC(=O)C1C(C(C(=O)OC)=C(C)NC=1C)c1cccc2[n]o[n]c21

> <preferred_name>
Isradipine

> <dsstox_substance_id>
DTXSID4023179

> <dsstox_compound_id>
DTXCID203179

> <Canonical_QSARr>
CC(C)OC(=O)C1C(C(C(=O)OC)C(C)=NC=1C)C1=CC=CC2=NON=C21

> <InChI_Code_QSARr>
InChI=1S/C19H21N3O5/c1-9(2)26-19(24)15-11(4)20-10(3)14(18(23)25-5)16(15)12-7-6-8-13-17(12)22-27-21-13/h6-9,14,16H,1-5H3

> <InChI Key_QSARr>
QVGAECMHUSHDCG-UHFFFAOYSA-N

> <Salt_Solvent>


> <Salt_Solvent_ID>
0

> <Clint>
1.2552725051033058

> <Tr_1_Tst_0>
0

$$$$
Row15
  Mrv171c012261910192D          

 33 36  0  0  0  0            999 V2000
   -2.1434    0.3859    0.0000 O   0  0  0  0  0  0  0  0  0  0  0  0
   -1.4289   -0.0266    0.0000 C   0  0  0  0  0  0  0  0  0  0  0  0
   -1.4289   -0.8516    0.0000 C   0  0  0  0  0  0  0  0  0  0  0  0
   -2.1434   -1.2641    0.0000 C   0  0  0  0  0  0  0  0  0  0  0  0
   -2.1434   -2.0891    0.0000 O   0  0  0  0  0  0  0  0  0  0  0  0
   -2.8579   -0.8516    0.0000 N   0  0  0  0  0  0  0  0  0  0  0  0
   -0.7145   -1.2641    0.0000 C   0  0  0  0  0  0  0  0  0  0  0  0
   -0.7145   -2.0891    0.0000 O   0  0  0  0  0  0  0  0  0  0  0  0
    0.0000   -0.8516    0.0000 C   0  0  0  0  0  0  0  0  0  0  0  0
    0.0000   -1.6766    0.0000 O   0  0  0  0  0  0  0  0  0  0  0  0
    0.7145   -1.2641    0.0000 C   0  0  0  0  0  0  0  0  0  0  0  0
    0.7145   -2.0891    0.0000 O   0  0  0  0  0  0  0  0  0  0  0  0
    1.4290   -0.8516    0.0000 C   0  0  0  0  0  0  0  0  0  0  0  0
    2.1434   -1.2641    0.0000 C   0  0  0  0  0  0  0  0  0  0  0  0
    2.1434   -2.0891    0.0000 O   0  0  0  0  0  0  0  0  0  0  0  0
    2.8579   -0.8516    0.0000 C   0  0  0  0  0  0  0  0  0  0  0  0
    2.8579   -0.0266    0.0000 C   0  0  0  0  0  0  0  0  0  0  0  0
    3.5724    0.3859    0.0000 C   0  0  0  0  0  0  0  0  0  0  0  0
    4.2868   -0.0266    0.0000 C   0  0  0  0  0  0  0  0  0  0  0  0
    4.2868   -0.8516    0.0000 C   0  0  0  0  0  0  0  0  0  0  0  0
    3.5724   -1.2641    0.0000 C   0  0  0  0  0  0  0  0  0  0  0  0
    3.5724   -2.0891    0.0000 O   0  0  0  0  0  0  0  0  0  0  0  0
    2.1434    0.3859    0.0000 C   0  0  0  0  0  0  0  0  0  0  0  0
    2.6737    1.0179    0.0000 O   0  0  0  0  0  0  0  0  0  0  0  0
    1.6131    1.0179    0.0000 C   0  0  0  0  0  0  0  0  0  0  0  0
    1.4290   -0.0266    0.0000 C   0  0  0  0  0  0  0  0  0  0  0  0
    0.7145    0.3859    0.0000 C   0  0  0  0  0  0  0  0  0  0  0  0
    0.7145    1.2109    0.0000 O   0  0  0  0  0  0  0  0  0  0  0  0
    0.0000   -0.0266    0.0000 C   0  0  0  0  0  0  0  0  0  0  0  0
   -0.7145    0.3859    0.0000 C   0  0  0  0  0  0  0  0  0  0  0  0
   -0.7145    1.2109    0.0000 N   0  0  0  0  0  0  0  0  0  0  0  0
   -1.4289    1.6234    0.0000 C   0  0  0  0  0  0  0  0  0  0  0  0
    0.0000    1.6234    0.0000 C   0  0  0  0  0  0  0  0  0  0  0  0
  1  2  2  0  0  0  0
  3  2  1  0  0  0  0
  3  4  1  0  0  0  0
  4  5  2  0  0  0  0
  4  6  1  0  0  0  0
  7  3  1  0  0  0  0
  7  8  2  0  0  0  0
  9  7  1  0  0  0  0
  9 10  1  0  0  0  0
  9 11  1  0  0  0  0
 11 12  2  0  0  0  0
 11 13  1  0  0  0  0
 14 13  1  0  0  0  0
 14 15  2  0  0  0  0
 16 14  1  0  0  0  0
 16 17  2  0  0  0  0
 17 18  1  0  0  0  0
 18 19  2  0  0  0  0
 19 20  1  0  0  0  0
 20 21  2  0  0  0  0
 21 16  1  0  0  0  0
 21 22  1  0  0  0  0
 23 17  1  0  0  0  0
 23 24  1  0  0  0  0
 23 25  1  0  0  0  0
 26 23  1  0  0  0  0
 13 26  1  0  0  0  0
 26 27  1  0  0  0  0
 27 28  1  0  0  0  0
 27 29  1  0  0  0  0
 29  9  1  0  0  0  0
 30 29  1  0  0  0  0
  2 30  1  0  0  0  0
 30 31  1  0  0  0  0
 31 32  1  0  0  0  0
 31 33  1  0  0  0  0
M  END
> <ChemID>
10245

> <CAS>
6153-64-6

> <Original_SMILES>
O.O.C[C@]1(O)[C@H]2[C@H](O)[C@H]3[C@@H](C(O)=C(C(N)=O)C(=O)[C@@]3(O)C(O)=C2C(=O)c2c1cccc2O)N(C)C

> <preferred_name>
Oxytetracycline dihydrate

> <dsstox_substance_id>
DTXSID4023412

> <dsstox_compound_id>
DTXCID203412

> <Canonical_QSARr>
CC1(O)C2C(C(=O)C3=C1C=CC=C3O)C(=O)C1(O)C(C(C(=O)C(C(N)=O)C1=O)N(C)C)C2O

> <InChI_Code_QSARr>
InChI=1S/C22H24N2O9/c1-21(32)7-5-4-6-8(25)9(7)15(26)10-12(21)17(28)13-14(24(2)3)16(27)11(20(23)31)19(30)22(13,33)18(10)29/h4-6,10-14,17,25,28,32-33H,1-3H3,(H2,23,31)

> <InChI Key_QSARr>
TUEWQXNXQFRUTK-UHFFFAOYSA-N

> <Salt_Solvent>
O

> <Salt_Solvent_ID>
80

> <Clint>
-7.0

> <Tr_1_Tst_0>
1

$$$$
Row82
  Mrv171c012261910192D          

 24 27  0  0  0  0            999 V2000
    0.7513   -0.0335    0.0000 C   0  0  0  0  0  0  0  0  0  0  0  0
    1.4658    0.3790    0.0000 N   0  0  0  0  0  0  0  0  0  0  0  0
    1.3283   -0.1710    0.0000 C   0  0  0  0  0  0  0  0  0  0  0  0
    1.3283   -0.7210    0.0000 C   0  0  0  0  0  0  0  0  0  0  0  0
    1.4658   -1.2710    0.0000 C   0  0  0  0  0  0  0  0  0  0  0  0
    2.1803   -0.8585    0.0000 C   0  0  0  0  0  0  0  0  0  0  0  0
    2.8947   -1.2710    0.0000 C   0  0  0  0  0  0  0  0  0  0  0  0
    3.6092   -0.8585    0.0000 C   0  0  0  0  0  0  0  0  0  0  0  0
    2.1803   -0.0335    0.0000 C   0  0  0  0  0  0  0  0  0  0  0  0
    0.7513   -0.8585    0.0000 C   0  0  0  0  0  0  0  0  0  0  0  0
    0.0368    0.3790    0.0000 C   0  0  0  0  0  0  0  0  0  0  0  0
    0.0368    1.2040    0.0000 O   0  0  0  0  0  0  0  0  0  0  0  0
   -0.6776   -0.0335    0.0000 C   0  0  0  0  0  0  0  0  0  0  0  0
   -0.6776   -0.8585    0.0000 C   0  0  0  0  0  0  0  0  0  0  0  0
   -1.3921   -1.2710    0.0000 C   0  0  0  0  0  0  0  0  0  0  0  0
   -2.1066   -0.8585    0.0000 N   0  0  0  0  0  0  0  0  0  0  0  0
   -2.1066   -0.0335    0.0000 C   0  0  0  0  0  0  0  0  0  0  0  0
   -2.8210    0.3790    0.0000 C   0  0  0  0  0  0  0  0  0  0  0  0
   -2.8210    1.2040    0.0000 C   0  0  0  0  0  0  0  0  0  0  0  0
   -2.1066    1.6165    0.0000 C   0  0  0  0  0  0  0  0  0  0  0  0
   -2.1066    2.4415    0.0000 O   0  0  0  0  0  0  0  0  0  0  0  0
   -2.8210    2.8540    0.0000 C   0  0  0  0  0  0  0  0  0  0  0  0
   -1.3921    1.2040    0.0000 C   0  0  0  0  0  0  0  0  0  0  0  0
   -1.3921    0.3790    0.0000 C   0  0  0  0  0  0  0  0  0  0  0  0
  2  1  1  0  0  0  0
  2  3  1  0  0  0  0
  3  4  1  0  0  0  0
  4  5  1  0  0  0  0
  5  6  1  0  0  0  0
  6  7  1  0  0  0  0
  7  8  2  0  0  0  0
  6  9  1  0  0  0  0
  9  2  1  0  0  0  0
 10  5  1  0  0  0  0
  1 10  1  0  0  0  0
  1 11  1  0  0  0  0
 11 12  1  0  0  0  0
 11 13  1  0  0  0  0
 14 13  2  0  0  0  0
 15 14  1  0  0  0  0
 16 15  2  0  0  0  0
 17 16  1  0  0  0  0
 17 18  2  0  0  0  0
 18 19  1  0  0  0  0
 19 20  2  0  0  0  0
 20 21  1  0  0  0  0
 21 22  1  0  0  0  0
 20 23  1  0  0  0  0
 23 24  2  0  0  0  0
 13 24  1  0  0  0  0
 24 17  1  0  0  0  0
M  END
> <ChemID>
10246

> <CAS>
56-54-2

> <Original_SMILES>
COc1ccc2[n]ccc([C@H](O)[C@H]3C[C@@H]4CC[N@]3C[C@@H]4C=C)c2c1

> <preferred_name>
Quinidine

> <dsstox_substance_id>
DTXSID4023549

> <dsstox_compound_id>
DTXCID70819883

> <Canonical_QSARr>
COC1=CC=C2N=CC=C(C(O)C3CC4CCN3CC4C=C)C2=C1

> <InChI_Code_QSARr>
InChI=1S/C20H24N2O2/c1-3-13-12-22-9-7-14(13)10-19(22)20(23)16-6-8-21-18-5-4-15(24-2)11-17(16)18/h3-6,8,11,13-14,19-20,23H,1,7,9-10,12H2,2H3

> <InChI Key_QSARr>
LOUPRKONTZGTKE-UHFFFAOYSA-N

> <Salt_Solvent>


> <Salt_Solvent_ID>
0

> <Clint>
-0.21467016498923294

> <Tr_1_Tst_0>
1

$$$$
Row440
  Mrv171c012261910192D          

 21 22  0  0  0  0            999 V2000
    3.8419   -3.9928    0.0000 C   0  0  0  0  0  0  0  0  0  0  0  0
    3.0573   -3.7379    0.0000 N   0  0  0  0  0  0  0  0  0  0  0  0
    2.8857   -2.9309    0.0000 C   0  0  0  0  0  0  0  0  0  0  0  0
    2.1011   -2.6760    0.0000 C   0  0  0  0  0  0  0  0  0  0  0  0
    1.4880   -3.2280    0.0000 O   0  0  0  0  0  0  0  0  0  0  0  0
    1.6596   -4.0350    0.0000 C   0  0  0  0  0  0  0  0  0  0  0  0
    2.4442   -4.2899    0.0000 C   0  0  0  0  0  0  0  0  0  0  0  0
    4.0968   -4.7774    0.0000 N   0  0  0  0  0  0  0  0  0  0  0  0
    4.9218   -4.7774    0.0000 S   0  0  0  0  0  0  0  0  0  0  0  0
    5.1768   -3.9928    0.0000 N   0  0  0  0  0  0  0  0  0  0  0  0
    4.5093   -3.5079    0.0000 C   0  0  0  0  0  0  0  0  0  0  0  0
    4.5093   -2.6829    0.0000 O   0  0  0  0  0  0  0  0  0  0  0  0
    3.7949   -2.2704    0.0000 C   0  0  0  0  0  0  0  0  0  0  0  0
    3.7949   -1.4454    0.0000 C   0  0  0  0  0  0  0  0  0  0  0  0
    4.5093   -1.0329    0.0000 O   0  0  0  0  0  0  0  0  0  0  0  0
    3.0804   -1.0329    0.0000 C   0  0  0  0  0  0  0  0  0  0  0  0
    3.0804   -0.2079    0.0000 N   0  0  0  0  0  0  0  0  0  0  0  0
    2.3659    0.2046    0.0000 C   0  0  0  0  0  0  0  0  0  0  0  0
    1.6514    0.6171    0.0000 C   0  0  0  0  0  0  0  0  0  0  0  0
    2.7784    0.9191    0.0000 C   0  0  0  0  0  0  0  0  0  0  0  0
    1.9534   -0.5099    0.0000 C   0  0  0  0  0  0  0  0  0  0  0  0
  1  2  1  0  0  0  0
  3  2  1  0  0  0  0
  4  3  1  0  0  0  0
  5  4  1  0  0  0  0
  6  5  1  0  0  0  0
  7  6  1  0  0  0  0
  2  7  1  0  0  0  0
  8  1  2  0  0  0  0
  9  8  1  0  0  0  0
 10  9  1  0  0  0  0
 11 10  2  0  0  0  0
  1 11  1  0  0  0  0
 11 12  1  0  0  0  0
 12 13  1  0  0  0  0
 13 14  1  0  0  0  0
 14 15  1  0  0  0  0
 14 16  1  0  0  0  0
 16 17  1  0  0  0  0
 17 18  1  0  0  0  0
 18 19  1  0  0  0  0
 18 20  1  0  0  0  0
 18 21  1  0  0  0  0
M  END
> <ChemID>
10247

> <CAS>
26839-75-8

> <Original_SMILES>
CC(C)(C)NC[C@H](O)COc1[n][s][n]c1N1CCOCC1

> <preferred_name>
(S)-Timolol

> <dsstox_substance_id>
DTXSID4023674

> <dsstox_compound_id>
DTXCID203674

> <Canonical_QSARr>
CC(C)(C)NCC(O)COC1=NSN=C1N1CCOCC1

> <InChI_Code_QSARr>
InChI=1S/C13H24N4O3S/c1-13(2,3)14-8-10(18)9-20-12-11(15-21-16-12)17-4-6-19-7-5-17/h10,14,18H,4-9H2,1-3H3

> <InChI Key_QSARr>
BLJRIMJGRPQVNF-UHFFFAOYSA-N

> <Salt_Solvent>


> <Salt_Solvent_ID>
0

> <Clint>
-0.1611509092627447

> <Tr_1_Tst_0>
0

$$$$
Row83
  Mrv171c012261910192D          

 13 13  0  0  0  0            999 V2000
    1.7760   -1.2370    0.0000 C   0  0  0  0  0  0  0  0  0  0  0  0
    1.0616   -0.8245    0.0000 C   0  0  0  0  0  0  0  0  0  0  0  0
    1.0616    0.0005    0.0000 Cl  0  0  0  0  0  0  0  0  0  0  0  0
    0.3471   -1.2370    0.0000 C   0  0  0  0  0  0  0  0  0  0  0  0
    0.3471   -2.0620    0.0000 C   0  0  0  0  0  0  0  0  0  0  0  0
    1.0616   -2.4745    0.0000 C   0  0  0  0  0  0  0  0  0  0  0  0
    1.0616   -3.2995    0.0000 Cl  0  0  0  0  0  0  0  0  0  0  0  0
    1.7760   -2.0620    0.0000 C   0  0  0  0  0  0  0  0  0  0  0  0
    2.4905   -2.4745    0.0000 O   0  0  0  0  0  0  0  0  0  0  0  0
    3.2050   -2.0620    0.0000 C   0  0  0  0  0  0  0  0  0  0  0  0
    2.4905   -0.8245    0.0000 C   0  0  0  0  0  0  0  0  0  0  0  0
    3.2050   -1.2370    0.0000 O   0  0  0  0  0  0  0  0  0  0  0  0
    2.4905    0.0005    0.0000 O   0  0  0  0  0  0  0  0  0  0  0  0
  2  1  2  0  0  0  0
  2  3  1  0  0  0  0
  4  2  1  0  0  0  0
  5  4  2  0  0  0  0
  6  5  1  0  0  0  0
  6  7  1  0  0  0  0
  8  6  2  0  0  0  0
  1  8  1  0  0  0  0
  8  9  1  0  0  0  0
  9 10  1  0  0  0  0
  1 11  1  0  0  0  0
 11 12  1  0  0  0  0
 11 13  2  0  0  0  0
M  END
> <ChemID>
10248

> <CAS>
1918-00-9

> <Original_SMILES>
COc1c(C(O)=O)c(Cl)ccc1Cl

> <preferred_name>
Dicamba

> <dsstox_substance_id>
DTXSID4024018

> <dsstox_compound_id>
DTXCID904018

> <Canonical_QSARr>
COC1C(C(O)=O)=C(Cl)C=CC=1Cl

> <InChI_Code_QSARr>
InChI=1S/C8H6Cl2O3/c1-13-7-5(10)3-2-4(9)6(7)8(11)12/h2-3H,1H3,(H,11,12)

> <InChI Key_QSARr>
IWEDIXLBFLAXBO-UHFFFAOYSA-N

> <Salt_Solvent>


> <Salt_Solvent_ID>
0

> <Clint>
-0.1870866433571444

> <Tr_1_Tst_0>
1

$$$$
Row521
  Mrv171c012261910192D          

 12 12  0  0  0  0            999 V2000
    0.6379   -0.3820    0.0000 O   0  5  0  0  0  0  0  0  0  0  0  0
    0.6379   -1.2070    0.0000 N   0  3  0  0  0  0  0  0  0  0  0  0
    1.3523   -1.6195    0.0000 C   0  0  0  0  0  0  0  0  0  0  0  0
    1.3523   -2.4445    0.0000 C   0  0  0  0  0  0  0  0  0  0  0  0
    2.0668   -2.8570    0.0000 C   0  0  0  0  0  0  0  0  0  0  0  0
    2.7813   -2.4445    0.0000 C   0  0  0  0  0  0  0  0  0  0  0  0
    2.7813   -1.6195    0.0000 C   0  0  0  0  0  0  0  0  0  0  0  0
    2.0668   -1.2070    0.0000 C   0  0  0  0  0  0  0  0  0  0  0  0
    2.0668   -0.3820    0.0000 N   0  3  0  0  0  0  0  0  0  0  0  0
    1.3523    0.0305    0.0000 O   0  5  0  0  0  0  0  0  0  0  0  0
    2.7813    0.0305    0.0000 O   0  0  0  0  0  0  0  0  0  0  0  0
   -0.0766   -1.6195    0.0000 O   0  0  0  0  0  0  0  0  0  0  0  0
  1  2  1  0  0  0  0
  2  3  1  0  0  0  0
  4  3  1  0  0  0  0
  5  4  2  0  0  0  0
  6  5  1  0  0  0  0
  7  6  2  0  0  0  0
  8  7  1  0  0  0  0
  3  8  2  0  0  0  0
  8  9  1  0  0  0  0
  9 10  1  0  0  0  0
  9 11  2  0  0  0  0
  2 12  2  0  0  0  0
M  CHG  4   1  -1   2   1   9   1  10  -1
M  END
> <ChemID>
10249

> <CAS>
528-29-0

> <Original_SMILES>
[O-][N+](=O)c1ccccc1[N+]([O-])=O

> <preferred_name>
1,2-Dinitrobenzene

> <dsstox_substance_id>
DTXSID4024066

> <dsstox_compound_id>
DTXCID604066

> <Canonical_QSARr>
[O-][N+](=O)C1C=CC=CC=1[N+]([O-])=O

> <InChI_Code_QSARr>
InChI=1S/C6H4N2O4/c9-7(10)5-3-1-2-4-6(5)8(11)12/h1-4H

> <InChI Key_QSARr>
IZUKQUVSCNEFMJ-UHFFFAOYSA-N

> <Salt_Solvent>


> <Salt_Solvent_ID>
0

> <Clint>
1.383815365980431

> <Tr_1_Tst_0>
0

$$$$
Row193
  Mrv171c012261910192D          

 18 19  0  0  0  0            999 V2000
    3.9042   -1.6404    0.0000 N   0  0  0  0  0  0  0  0  0  0  0  0
    3.1898   -1.2279    0.0000 C   0  0  0  0  0  0  0  0  0  0  0  0
    3.1898   -0.4029    0.0000 O   0  0  0  0  0  0  0  0  0  0  0  0
    2.4753   -1.6404    0.0000 N   0  0  0  0  0  0  0  0  0  0  0  0
    1.7608   -1.2279    0.0000 C   0  0  0  0  0  0  0  0  0  0  0  0
    1.7608   -0.4029    0.0000 C   0  0  0  0  0  0  0  0  0  0  0  0
    1.0464    0.0096    0.0000 C   0  0  0  0  0  0  0  0  0  0  0  0
    0.3319   -0.4029    0.0000 C   0  0  0  0  0  0  0  0  0  0  0  0
    0.3319   -1.2279    0.0000 C   0  0  0  0  0  0  0  0  0  0  0  0
    1.0464   -1.6404    0.0000 C   0  0  0  0  0  0  0  0  0  0  0  0
    2.4753   -2.4654    0.0000 C   0  0  0  0  0  0  0  0  0  0  0  0
    1.7608   -2.8779    0.0000 O   0  0  0  0  0  0  0  0  0  0  0  0
    3.1898   -2.8779    0.0000 N   0  0  0  0  0  0  0  0  0  0  0  0
    3.1898   -3.7029    0.0000 C   0  0  0  0  0  0  0  0  0  0  0  0
    3.9042   -2.4654    0.0000 C   0  0  0  0  0  0  0  0  0  0  0  0
    4.6187   -2.8779    0.0000 N   0  0  0  0  0  0  0  0  0  0  0  0
    5.3332   -2.4654    0.0000 C   0  0  0  0  0  0  0  0  0  0  0  0
    4.6187   -3.7029    0.0000 C   0  0  0  0  0  0  0  0  0  0  0  0
  2  1  1  0  0  0  0
  2  3  2  0  0  0  0
  4  2  1  0  0  0  0
  4  5  1  0  0  0  0
  6  5  1  0  0  0  0
  7  6  1  0  0  0  0
  8  7  1  0  0  0  0
  9  8  1  0  0  0  0
 10  9  1  0  0  0  0
  5 10  1  0  0  0  0
 11  4  1  0  0  0  0
 11 12  2  0  0  0  0
 13 11  1  0  0  0  0
 13 14  1  0  0  0  0
 15 13  1  0  0  0  0
  1 15  2  0  0  0  0
 15 16  1  0  0  0  0
 16 17  1  0  0  0  0
 16 18  1  0  0  0  0
M  END
> <ChemID>
10250

> <CAS>
51235-04-2

> <Original_SMILES>
CN(C)C1=NC(=O)N(C2CCCCC2)C(=O)N1C

> <preferred_name>
Hexazinone

> <dsstox_substance_id>
DTXSID4024145

> <dsstox_compound_id>
DTXCID804145

> <Canonical_QSARr>
CN(C)C1=NC(=O)N(C2CCCCC2)C(=O)N1C

> <InChI_Code_QSARr>
InChI=1S/C12H20N4O2/c1-14(2)10-13-11(17)16(12(18)15(10)3)9-7-5-4-6-8-9/h9H,4-8H2,1-3H3

> <InChI Key_QSARr>
CAWXEEYDBZRFPE-UHFFFAOYSA-N

> <Salt_Solvent>


> <Salt_Solvent_ID>
0

> <Clint>
0.8034571156484138

> <Tr_1_Tst_0>
1

$$$$
Row13
  Mrv171c012261910192D          

 13 13  0  0  0  0            999 V2000
    4.1301   -1.3647    0.0000 C   0  0  0  0  0  0  0  0  0  0  0  0
    4.8446   -1.7772    0.0000 C   0  0  0  0  0  0  0  0  0  0  0  0
    4.1301   -0.5397    0.0000 C   0  0  0  0  0  0  0  0  0  0  0  0
    3.4156   -0.1272    0.0000 C   0  0  0  0  0  0  0  0  0  0  0  0
    3.4156    0.6978    0.0000 Cl  0  0  0  0  0  0  0  0  0  0  0  0
    2.7012   -0.5397    0.0000 C   0  0  0  0  0  0  0  0  0  0  0  0
    2.7012   -1.3647    0.0000 C   0  0  0  0  0  0  0  0  0  0  0  0
    3.4156   -1.7772    0.0000 C   0  0  0  0  0  0  0  0  0  0  0  0
    3.4156   -2.6022    0.0000 O   0  0  0  0  0  0  0  0  0  0  0  0
    4.1301   -3.0147    0.0000 C   0  0  0  0  0  0  0  0  0  0  0  0
    4.1301   -3.8397    0.0000 C   0  0  0  0  0  0  0  0  0  0  0  0
    4.8446   -4.2522    0.0000 O   0  0  0  0  0  0  0  0  0  0  0  0
    3.4156   -4.2522    0.0000 O   0  0  0  0  0  0  0  0  0  0  0  0
  1  2  1  0  0  0  0
  3  1  1  0  0  0  0
  4  3  2  0  0  0  0
  4  5  1  0  0  0  0
  6  4  1  0  0  0  0
  7  6  2  0  0  0  0
  8  7  1  0  0  0  0
  1  8  2  0  0  0  0
  8  9  1  0  0  0  0
  9 10  1  0  0  0  0
 10 11  1  0  0  0  0
 11 12  1  0  0  0  0
 11 13  2  0  0  0  0
M  END
> <ChemID>
10251

> <CAS>
94-74-6

> <Original_SMILES>
Cc1cc(Cl)ccc1OCC(O)=O

> <preferred_name>
MCPA

> <dsstox_substance_id>
DTXSID4024195

> <dsstox_compound_id>
DTXCID304195

> <Canonical_QSARr>
CC1C=C(Cl)C=CC=1OCC(O)=O

> <InChI_Code_QSARr>
InChI=1S/C9H9ClO3/c1-6-4-7(10)2-3-8(6)13-5-9(11)12/h2-4H,5H2,1H3,(H,11,12)

> <InChI Key_QSARr>
WHKUVVPPKQRRBV-UHFFFAOYSA-N

> <Salt_Solvent>


> <Salt_Solvent_ID>
0

> <Clint>
-7.0

> <Tr_1_Tst_0>
1

$$$$
Row282
  Mrv171c012261910192D          

 23 24  0  0  0  0            999 V2000
    1.0399   -4.0341    0.0000 N   0  0  0  0  0  0  0  0  0  0  0  0
    0.5550   -3.3667    0.0000 C   0  0  0  0  0  0  0  0  0  0  0  0
   -0.2297   -3.6216    0.0000 C   0  0  0  0  0  0  0  0  0  0  0  0
   -0.2297   -4.4466    0.0000 N   0  0  0  0  0  0  0  0  0  0  0  0
    0.5550   -4.7016    0.0000 C   0  0  0  0  0  0  0  0  0  0  0  0
    1.8649   -4.0341    0.0000 C   0  0  0  0  0  0  0  0  0  0  0  0
    2.2774   -4.7486    0.0000 O   0  0  0  0  0  0  0  0  0  0  0  0
    2.2774   -3.3196    0.0000 N   0  0  0  0  0  0  0  0  0  0  0  0
    1.8649   -2.6052    0.0000 C   0  0  0  0  0  0  0  0  0  0  0  0
    1.0399   -2.6052    0.0000 C   0  0  0  0  0  0  0  0  0  0  0  0
    0.6274   -1.8907    0.0000 C   0  0  0  0  0  0  0  0  0  0  0  0
    3.1024   -3.3196    0.0000 C   0  0  0  0  0  0  0  0  0  0  0  0
    3.5149   -2.6052    0.0000 C   0  0  0  0  0  0  0  0  0  0  0  0
    4.3399   -2.6052    0.0000 O   0  0  0  0  0  0  0  0  0  0  0  0
    4.7524   -1.8907    0.0000 C   0  0  0  0  0  0  0  0  0  0  0  0
    5.5774   -1.8907    0.0000 C   0  0  0  0  0  0  0  0  0  0  0  0
    5.9899   -2.6052    0.0000 Cl  0  0  0  0  0  0  0  0  0  0  0  0
    5.9899   -1.1762    0.0000 C   0  0  0  0  0  0  0  0  0  0  0  0
    5.5774   -0.4618    0.0000 C   0  0  0  0  0  0  0  0  0  0  0  0
    5.9899    0.2527    0.0000 Cl  0  0  0  0  0  0  0  0  0  0  0  0
    4.7524   -0.4618    0.0000 C   0  0  0  0  0  0  0  0  0  0  0  0
    4.3399   -1.1762    0.0000 C   0  0  0  0  0  0  0  0  0  0  0  0
    3.5149   -1.1762    0.0000 Cl  0  0  0  0  0  0  0  0  0  0  0  0
  2  1  1  0  0  0  0
  3  2  2  0  0  0  0
  4  3  1  0  0  0  0
  5  4  2  0  0  0  0
  1  5  1  0  0  0  0
  1  6  1  0  0  0  0
  6  7  2  0  0  0  0
  6  8  1  0  0  0  0
  8  9  1  0  0  0  0
  9 10  1  0  0  0  0
 10 11  1  0  0  0  0
  8 12  1  0  0  0  0
 12 13  1  0  0  0  0
 13 14  1  0  0  0  0
 14 15  1  0  0  0  0
 16 15  1  0  0  0  0
 16 17  1  0  0  0  0
 18 16  2  0  0  0  0
 19 18  1  0  0  0  0
 19 20  1  0  0  0  0
 21 19  2  0  0  0  0
 22 21  1  0  0  0  0
 15 22  2  0  0  0  0
 22 23  1  0  0  0  0
M  END
> <ChemID>
10252

> <CAS>
67747-09-5

> <Original_SMILES>
CCCN(CCOc1c(Cl)cc(Cl)cc1Cl)C(=O)[n]1cc[n]c1

> <preferred_name>
Prochloraz

> <dsstox_substance_id>
DTXSID4024270

> <dsstox_compound_id>
DTXCID904270

> <Canonical_QSARr>
CCCN(CCOC1C(Cl)=CC(Cl)=CC=1Cl)C(=O)N1C=CN=C1

> <InChI_Code_QSARr>
InChI=1S/C15H16Cl3N3O2/c1-2-4-20(15(22)21-5-3-19-10-21)6-7-23-14-12(17)8-11(16)9-13(14)18/h3,5,8-10H,2,4,6-7H2,1H3

> <InChI Key_QSARr>
TVLSRXXIMLFWEO-UHFFFAOYSA-N

> <Salt_Solvent>


> <Salt_Solvent_ID>
0

> <Clint>
1.2148438480476977

> <Tr_1_Tst_0>
1

$$$$
Row532
  Mrv171c012261910192D          

 16 16  0  0  0  0            999 V2000
    5.7152   -2.8770    0.0000 C   0  0  0  0  0  0  0  0  0  0  0  0
    5.0007   -2.4645    0.0000 C   0  0  0  0  0  0  0  0  0  0  0  0
    4.2862   -2.8770    0.0000 N   0  0  0  0  0  0  0  0  0  0  0  0
    3.5717   -2.4645    0.0000 C   0  0  0  0  0  0  0  0  0  0  0  0
    3.5717   -1.6395    0.0000 N   0  0  0  0  0  0  0  0  0  0  0  0
    2.8573   -1.2270    0.0000 C   0  0  0  0  0  0  0  0  0  0  0  0
    2.8573   -0.4020    0.0000 S   0  0  0  0  0  0  0  0  0  0  0  0
    2.1428    0.0105    0.0000 C   0  0  0  0  0  0  0  0  0  0  0  0
    2.1428   -1.6395    0.0000 N   0  0  0  0  0  0  0  0  0  0  0  0
    2.1428   -2.4645    0.0000 C   0  0  0  0  0  0  0  0  0  0  0  0
    1.4283   -2.8770    0.0000 N   0  0  0  0  0  0  0  0  0  0  0  0
    0.7139   -2.4645    0.0000 C   0  0  0  0  0  0  0  0  0  0  0  0
   -0.0006   -2.8770    0.0000 C   0  0  0  0  0  0  0  0  0  0  0  0
    0.7139   -1.6395    0.0000 C   0  0  0  0  0  0  0  0  0  0  0  0
    2.8573   -2.8770    0.0000 N   0  0  0  0  0  0  0  0  0  0  0  0
    5.0007   -1.6395    0.0000 C   0  0  0  0  0  0  0  0  0  0  0  0
  1  2  1  0  0  0  0
  2  3  1  0  0  0  0
  3  4  1  0  0  0  0
  5  4  1  0  0  0  0
  6  5  2  0  0  0  0
  6  7  1  0  0  0  0
  7  8  1  0  0  0  0
  9  6  1  0  0  0  0
 10  9  2  0  0  0  0
 10 11  1  0  0  0  0
 11 12  1  0  0  0  0
 12 13  1  0  0  0  0
 12 14  1  0  0  0  0
 15 10  1  0  0  0  0
  4 15  2  0  0  0  0
  2 16  1  0  0  0  0
M  END
> <ChemID>
10253

> <CAS>
7287-19-6

> <Original_SMILES>
CSc1[n]c(NC(C)C)[n]c(NC(C)C)[n]1

> <preferred_name>
Prometryn

> <dsstox_substance_id>
DTXSID4024272

> <dsstox_compound_id>
DTXCID704272

> <Canonical_QSARr>
CSC1N=C(NC(C)C)N=C(NC(C)C)N=1

> <InChI_Code_QSARr>
InChI=1S/C10H19N5S/c1-6(2)11-8-13-9(12-7(3)4)15-10(14-8)16-5/h6-7H,1-5H3,(H2,11,12,13,14,15)

> <InChI Key_QSARr>
AAEVYOVXGOFMJO-UHFFFAOYSA-N

> <Salt_Solvent>


> <Salt_Solvent_ID>
0

> <Clint>
1.5536403362313542

> <Tr_1_Tst_0>
0

$$$$
Row334
  Mrv171c012261910192D          

 10 10  0  0  0  0            999 V2000
    2.8552   -1.6506    0.0000 Cl  0  0  0  0  0  0  0  0  0  0  0  0
    2.1408   -1.2381    0.0000 C   0  0  0  0  0  0  0  0  0  0  0  0
    2.1408   -0.4131    0.0000 C   0  0  0  0  0  0  0  0  0  0  0  0
    1.4263   -0.0006    0.0000 C   0  0  0  0  0  0  0  0  0  0  0  0
    1.4263    0.8244    0.0000 Cl  0  0  0  0  0  0  0  0  0  0  0  0
    0.7118   -0.4131    0.0000 C   0  0  0  0  0  0  0  0  0  0  0  0
   -0.0026   -0.0006    0.0000 Cl  0  0  0  0  0  0  0  0  0  0  0  0
    0.7118   -1.2381    0.0000 C   0  0  0  0  0  0  0  0  0  0  0  0
    1.4263   -1.6506    0.0000 C   0  0  0  0  0  0  0  0  0  0  0  0
    1.4263   -2.4756    0.0000 O   0  0  0  0  0  0  0  0  0  0  0  0
  1  2  1  0  0  0  0
  3  2  1  0  0  0  0
  4  3  2  0  0  0  0
  4  5  1  0  0  0  0
  6  4  1  0  0  0  0
  6  7  1  0  0  0  0
  8  6  2  0  0  0  0
  9  8  1  0  0  0  0
  2  9  2  0  0  0  0
  9 10  1  0  0  0  0
M  END
> <ChemID>
10254

> <CAS>
95-95-4

> <Original_SMILES>
Oc1cc(Cl)c(Cl)cc1Cl

> <preferred_name>
2,4,5-Trichlorophenol

> <dsstox_substance_id>
DTXSID4024359

> <dsstox_compound_id>
DTXCID104359

> <Canonical_QSARr>
OC1C=C(Cl)C(Cl)=CC=1Cl

> <InChI_Code_QSARr>
InChI=1S/C6H3Cl3O/c7-3-1-5(9)6(10)2-4(3)8/h1-2,10H

> <InChI Key_QSARr>
LHJGJYXLEPZJPM-UHFFFAOYSA-N

> <Salt_Solvent>


> <Salt_Solvent_ID>
0

> <Clint>
1.4189638307036225

> <Tr_1_Tst_0>
1

$$$$
Row325
  Mrv171c012261910192D          

 14 15  0  0  0  0            999 V2000
    1.0943   -0.7248    0.0000 N   0  0  0  0  0  0  0  0  0  0  0  0
    1.9193   -0.7248    0.0000 C   0  0  0  0  0  0  0  0  0  0  0  0
    2.4042   -0.0574    0.0000 N   0  0  0  0  0  0  0  0  0  0  0  0
    3.1888   -0.3123    0.0000 C   0  0  0  0  0  0  0  0  0  0  0  0
    3.9033    0.1002    0.0000 C   0  0  0  0  0  0  0  0  0  0  0  0
    4.6177   -0.3123    0.0000 C   0  0  0  0  0  0  0  0  0  0  0  0
    4.6177   -1.1373    0.0000 C   0  0  0  0  0  0  0  0  0  0  0  0
    3.9033   -1.5498    0.0000 C   0  0  0  0  0  0  0  0  0  0  0  0
    3.1888   -1.1373    0.0000 C   0  0  0  0  0  0  0  0  0  0  0  0
    2.4042   -1.3923    0.0000 N   0  0  0  0  0  0  0  0  0  0  0  0
    0.6818   -1.4393    0.0000 C   0  0  0  0  0  0  0  0  0  0  0  0
   -0.1432   -1.4393    0.0000 O   0  0  0  0  0  0  0  0  0  0  0  0
   -0.5557   -2.1538    0.0000 C   0  0  0  0  0  0  0  0  0  0  0  0
    1.0943   -2.1538    0.0000 O   0  0  0  0  0  0  0  0  0  0  0  0
  1  2  1  0  0  0  0
  3  2  1  0  0  0  0
  4  3  1  0  0  0  0
  4  5  2  0  0  0  0
  5  6  1  0  0  0  0
  6  7  2  0  0  0  0
  7  8  1  0  0  0  0
  8  9  2  0  0  0  0
  9  4  1  0  0  0  0
 10  9  1  0  0  0  0
  2 10  2  0  0  0  0
  1 11  1  0  0  0  0
 11 12  1  0  0  0  0
 12 13  1  0  0  0  0
 11 14  2  0  0  0  0
M  END
> <ChemID>
10255

> <CAS>
10605-21-7

> <Original_SMILES>
COC(=O)Nc1[nH]c2ccccc2[n]1

> <preferred_name>
Carbendazim

> <dsstox_substance_id>
DTXSID4024729

> <dsstox_compound_id>
DTXCID004729

> <Canonical_QSARr>
COC(=O)NC1NC2=CC=CC=C2N=1

> <InChI_Code_QSARr>
InChI=1S/C9H9N3O2/c1-14-9(13)12-8-10-6-4-2-3-5-7(6)11-8/h2-5H,1H3,(H2,10,11,12,13)

> <InChI Key_QSARr>
TWFZGCMQGLPBSX-UHFFFAOYSA-N

> <Salt_Solvent>


> <Salt_Solvent_ID>
0

> <Clint>
1.380211241711606

> <Tr_1_Tst_0>
1

$$$$
Row266
  Mrv171c012261910192D          

 16 16  0  0  0  0            999 V2000
    4.2868   -0.8250    0.0000 C   0  0  0  0  0  0  0  0  0  0  0  0
    5.0013   -1.2375    0.0000 C   0  0  0  0  0  0  0  0  0  0  0  0
    5.7158   -0.8250    0.0000 C   0  0  0  0  0  0  0  0  0  0  0  0
    6.4302   -1.2375    0.0000 C   0  0  0  0  0  0  0  0  0  0  0  0
    7.1447   -0.8250    0.0000 C   0  0  0  0  0  0  0  0  0  0  0  0
    7.8592   -1.2375    0.0000 C   0  0  0  0  0  0  0  0  0  0  0  0
    8.5737   -0.8250    0.0000 C   0  0  0  0  0  0  0  0  0  0  0  0
    8.5737    0.0000    0.0000 C   0  0  0  0  0  0  0  0  0  0  0  0
    9.2881    0.4125    0.0000 O   0  0  0  0  0  0  0  0  0  0  0  0
    9.2881   -1.2375    0.0000 C   0  0  0  0  0  0  0  0  0  0  0  0
    9.2881   -2.0625    0.0000 C   0  0  0  0  0  0  0  0  0  0  0  0
   10.0026   -2.4750    0.0000 C   0  0  0  0  0  0  0  0  0  0  0  0
   10.0026   -3.3000    0.0000 C   0  0  0  0  0  0  0  0  0  0  0  0
    9.2881   -3.7125    0.0000 C   0  0  0  0  0  0  0  0  0  0  0  0
    8.5737   -3.3000    0.0000 C   0  0  0  0  0  0  0  0  0  0  0  0
    8.5737   -2.4750    0.0000 C   0  0  0  0  0  0  0  0  0  0  0  0
  1  2  1  0  0  0  0
  2  3  1  0  0  0  0
  3  4  1  0  0  0  0
  4  5  1  0  0  0  0
  5  6  1  0  0  0  0
  6  7  1  0  0  0  0
  7  8  1  0  0  0  0
  8  9  2  0  0  0  0
  7 10  2  0  0  0  0
 10 11  1  4  0  0  0
 11 12  1  0  0  0  0
 12 13  2  0  0  0  0
 13 14  1  0  0  0  0
 14 15  2  0  0  0  0
 15 16  1  0  0  0  0
 11 16  2  0  0  0  0
M  END
> <ChemID>
10256

> <CAS>
101-86-0

> <Original_SMILES>
CCCCCCC(C=O)=Cc1ccccc1

> <preferred_name>
2-(Phenylmethylene)octanal

> <dsstox_substance_id>
DTXSID4026684

> <dsstox_compound_id>
DTXCID806684

> <Canonical_QSARr>
CCCCCCC(C=O)=CC1C=CC=CC=1

> <InChI_Code_QSARr>
InChI=1S/C15H20O/c1-2-3-4-6-11-15(13-16)12-14-9-7-5-8-10-14/h5,7-10,12-13H,2-4,6,11H2,1H3

> <InChI Key_QSARr>
GUUHFMWKWLOQMM-UHFFFAOYSA-N

> <Salt_Solvent>


> <Salt_Solvent_ID>
0

> <Clint>
1.1572753964540354

> <Tr_1_Tst_0>
1

$$$$
Row327
  Mrv171c012261910192D          

 27 30  0  0  0  0            999 V2000
    3.4249   -5.4673    0.0000 C   0  0  0  0  0  0  0  0  0  0  0  0
    2.7574   -5.9522    0.0000 O   0  0  0  0  0  0  0  0  0  0  0  0
    3.0124   -6.7368    0.0000 C   0  0  0  0  0  0  0  0  0  0  0  0
    3.8374   -6.7368    0.0000 C   0  0  0  0  0  0  0  0  0  0  0  0
    4.3223   -7.4043    0.0000 C   0  0  0  0  0  0  0  0  0  0  0  0
    4.0923   -5.9522    0.0000 O   0  0  0  0  0  0  0  0  0  0  0  0
    3.0199   -4.7485    0.0000 C   0  0  0  0  0  0  0  0  0  0  0  0
    2.1949   -4.7399    0.0000 N   0  0  0  0  0  0  0  0  0  0  0  0
    1.7170   -4.0674    0.0000 C   0  0  0  0  0  0  0  0  0  0  0  0
    0.9298   -4.3141    0.0000 N   0  0  0  0  0  0  0  0  0  0  0  0
    0.9211   -5.1391    0.0000 C   0  0  0  0  0  0  0  0  0  0  0  0
    1.7030   -5.4022    0.0000 N   0  0  0  0  0  0  0  0  0  0  0  0
    3.8299   -4.7485    0.0000 C   0  0  0  0  0  0  0  0  0  0  0  0
    4.6548   -4.7399    0.0000 C   0  0  0  0  0  0  0  0  0  0  0  0
    5.0598   -4.0211    0.0000 C   0  0  0  0  0  0  0  0  0  0  0  0
    4.6399   -3.3110    0.0000 C   0  0  0  0  0  0  0  0  0  0  0  0
    5.0449   -2.5923    0.0000 O   0  0  0  0  0  0  0  0  0  0  0  0
    4.6249   -1.8822    0.0000 C   0  0  0  0  0  0  0  0  0  0  0  0
    5.0299   -1.1634    0.0000 C   0  0  0  0  0  0  0  0  0  0  0  0
    4.6099   -0.4533    0.0000 C   0  0  0  0  0  0  0  0  0  0  0  0
    3.7850   -0.4619    0.0000 C   0  0  0  0  0  0  0  0  0  0  0  0
    3.3650    0.2482    0.0000 Cl  0  0  0  0  0  0  0  0  0  0  0  0
    3.3800   -1.1807    0.0000 C   0  0  0  0  0  0  0  0  0  0  0  0
    3.7999   -1.8908    0.0000 C   0  0  0  0  0  0  0  0  0  0  0  0
    3.8149   -3.3197    0.0000 C   0  0  0  0  0  0  0  0  0  0  0  0
    3.4099   -4.0384    0.0000 C   0  0  0  0  0  0  0  0  0  0  0  0
    2.5850   -4.0471    0.0000 Cl  0  0  0  0  0  0  0  0  0  0  0  0
  2  1  1  0  0  0  0
  3  2  1  0  0  0  0
  4  3  1  0  0  0  0
  4  5  1  0  0  0  0
  6  4  1  0  0  0  0
  1  6  1  0  0  0  0
  1  7  1  0  0  0  0
  7  8  1  0  0  0  0
  9  8  1  0  0  0  0
 10  9  2  0  0  0  0
 11 10  1  0  0  0  0
 12 11  2  0  0  0  0
  8 12  1  0  0  0  0
  1 13  1  0  0  0  0
 14 13  1  0  0  0  0
 15 14  2  0  0  0  0
 16 15  1  0  0  0  0
 16 17  1  0  0  0  0
 17 18  1  0  0  0  0
 19 18  2  0  0  0  0
 20 19  1  0  0  0  0
 21 20  2  0  0  0  0
 21 22  1  0  0  0  0
 23 21  1  0  0  0  0
 24 23  2  0  0  0  0
 18 24  1  0  0  0  0
 25 16  2  0  0  0  0
 26 25  1  0  0  0  0
 13 26  2  0  0  0  0
 26 27  1  0  0  0  0
M  END
> <ChemID>
10257

> <CAS>
119446-68-3

> <Original_SMILES>
CC1COC(C[n]2c[n]c[n]2)(O1)c1ccc(cc1Cl)Oc1ccc(Cl)cc1

> <preferred_name>
Difenoconazole

> <dsstox_substance_id>
DTXSID4032372

> <dsstox_compound_id>
DTXCID2012372

> <Canonical_QSARr>
CC1COC(CN2C=NC=N2)(O1)C1C=CC(=CC=1Cl)OC1C=CC(Cl)=CC=1

> <InChI_Code_QSARr>
InChI=1S/C19H17Cl2N3O3/c1-13-9-25-19(27-13,10-24-12-22-11-23-24)17-7-6-16(8-18(17)21)26-15-4-2-14(20)3-5-15/h2-8,11-13H,9-10H2,1H3

> <InChI Key_QSARr>
BQYJATMQXGBDHF-UHFFFAOYSA-N

> <Salt_Solvent>


> <Salt_Solvent_ID>
0

> <Clint>
1.3839947894417328

> <Tr_1_Tst_0>
1

$$$$
Row514
  Mrv171c012261910192D          

 17 17  0  0  0  0            999 V2000
    1.1897   -2.8029    0.0000 C   0  0  0  0  0  0  0  0  0  0  0  0
    0.4752   -2.3904    0.0000 C   0  0  0  0  0  0  0  0  0  0  0  0
   -0.2393   -2.8029    0.0000 Cl  0  0  0  0  0  0  0  0  0  0  0  0
    1.9041   -2.3904    0.0000 N   0  0  0  0  0  0  0  0  0  0  0  0
    2.6186   -2.8029    0.0000 C   0  0  0  0  0  0  0  0  0  0  0  0
    2.6186   -3.6279    0.0000 C   0  0  0  0  0  0  0  0  0  0  0  0
    3.3331   -2.3904    0.0000 C   0  0  0  0  0  0  0  0  0  0  0  0
    4.0476   -2.8029    0.0000 O   0  0  0  0  0  0  0  0  0  0  0  0
    4.7620   -2.3904    0.0000 C   0  0  0  0  0  0  0  0  0  0  0  0
    1.9041   -1.5654    0.0000 C   0  0  0  0  0  0  0  0  0  0  0  0
    2.5716   -1.0805    0.0000 C   0  0  0  0  0  0  0  0  0  0  0  0
    3.3562   -1.3354    0.0000 C   0  0  0  0  0  0  0  0  0  0  0  0
    2.3166   -0.2959    0.0000 C   0  0  0  0  0  0  0  0  0  0  0  0
    1.4916   -0.2959    0.0000 S   0  0  0  0  0  0  0  0  0  0  0  0
    1.2367   -1.0805    0.0000 C   0  0  0  0  0  0  0  0  0  0  0  0
    0.4521   -1.3354    0.0000 C   0  0  0  0  0  0  0  0  0  0  0  0
    1.1897   -3.6279    0.0000 O   0  0  0  0  0  0  0  0  0  0  0  0
  1  2  1  0  0  0  0
  2  3  1  0  0  0  0
  1  4  1  0  0  0  0
  4  5  1  0  0  0  0
  5  6  1  0  0  0  0
  5  7  1  0  0  0  0
  7  8  1  0  0  0  0
  8  9  1  0  0  0  0
  4 10  1  0  0  0  0
 11 10  1  0  0  0  0
 11 12  1  0  0  0  0
 13 11  2  0  0  0  0
 14 13  1  0  0  0  0
 15 14  1  0  0  0  0
 10 15  2  0  0  0  0
 15 16  1  0  0  0  0
  1 17  2  0  0  0  0
M  END
> <ChemID>
10258

> <CAS>
87674-68-8

> <Original_SMILES>
COCC(C)N(C(=O)CCl)c1c(C)c[s]c1C

> <preferred_name>
Dimethenamid

> <dsstox_substance_id>
DTXSID4032376

> <dsstox_compound_id>
DTXCID2012376

> <Canonical_QSARr>
CC1SC=C(C)C=1N(C(C)COC)C(=O)CCl

> <InChI_Code_QSARr>
InChI=1S/C12H18ClNO2S/c1-8-7-17-10(3)12(8)14(11(15)5-13)9(2)6-16-4/h7,9H,5-6H2,1-4H3

> <InChI Key_QSARr>
JLYFCTQDENRSOL-UHFFFAOYSA-N

> <Salt_Solvent>


> <Salt_Solvent_ID>
0

> <Clint>
1.2992893340876799

> <Tr_1_Tst_0>
0

$$$$
Row258
  Mrv171c012261910192D          

 16 16  0  0  0  0            999 V2000
   -0.7145    3.7125    0.0000 C   0  0  0  0  0  0  0  0  0  0  0  0
    0.0000    3.3000    0.0000 N   0  0  0  0  0  0  0  0  0  0  0  0
    0.0000    2.4750    0.0000 C   0  0  0  0  0  0  0  0  0  0  0  0
   -0.7145    2.0625    0.0000 O   0  0  0  0  0  0  0  0  0  0  0  0
    0.7145    2.0625    0.0000 O   0  0  0  0  0  0  0  0  0  0  0  0
    0.7145    1.2375    0.0000 C   0  0  0  0  0  0  0  0  0  0  0  0
    1.4289    0.8250    0.0000 C   0  0  0  0  0  0  0  0  0  0  0  0
    1.4289   -0.0000    0.0000 C   0  0  0  0  0  0  0  0  0  0  0  0
    0.7145   -0.4125    0.0000 C   0  0  0  0  0  0  0  0  0  0  0  0
    0.0000    0.0000    0.0000 C   0  0  0  0  0  0  0  0  0  0  0  0
    0.0000    0.8250    0.0000 C   0  0  0  0  0  0  0  0  0  0  0  0
    2.1434   -0.4125    0.0000 N   0  0  0  0  0  0  0  0  0  0  0  0
    2.1434   -1.2375    0.0000 C   0  0  0  0  0  0  0  0  0  0  0  0
    2.8579   -1.6500    0.0000 N   0  0  0  0  0  0  0  0  0  0  0  0
    3.5724   -1.2375    0.0000 C   0  0  0  0  0  0  0  0  0  0  0  0
    2.8579   -2.4750    0.0000 C   0  0  0  0  0  0  0  0  0  0  0  0
  1  2  1  0  0  0  0
  2  3  1  0  0  0  0
  3  4  2  0  0  0  0
  3  5  1  0  0  0  0
  5  6  1  0  0  0  0
  6  7  1  0  0  0  0
  7  8  2  0  0  0  0
  8  9  1  0  0  0  0
  9 10  2  0  0  0  0
 10 11  1  0  0  0  0
  6 11  2  0  0  0  0
 12  8  1  4  0  0  0
 12 13  2  0  0  0  0
 13 14  1  0  0  0  0
 14 15  1  0  0  0  0
 14 16  1  0  0  0  0
M  END
> <ChemID>
10259

> <CAS>
23422-53-9

> <Original_SMILES>
Cl.CNC(=O)Oc1cc(ccc1)N=CN(C)C

> <preferred_name>
Formetanate hydrochloride

> <dsstox_substance_id>
DTXSID4032405

> <dsstox_compound_id>
DTXCID2012405

> <Canonical_QSARr>
CNC(=O)OC1C=C(C=CC=1)N=CN(C)C

> <InChI_Code_QSARr>
InChI=1S/C11H15N3O2/c1-12-11(15)16-10-6-4-5-9(7-10)13-8-14(2)3/h4-8H,1-3H3,(H,12,15)

> <InChI Key_QSARr>
RMFNNCGOSPBBAD-UHFFFAOYSA-N

> <Salt_Solvent>
Cl

> <Salt_Solvent_ID>
170

> <Clint>
1.1373541113707328

> <Tr_1_Tst_0>
1

$$$$
Row38
  Mrv171c012261910192D          

 13 12  0  0  0  0            999 V2000
    2.6891   -1.8101    0.0000 P   0  0  0  0  0  0  0  0  0  0  0  0
    3.5141   -1.8101    0.0000 O   0  0  0  0  0  0  0  0  0  0  0  0
    3.9266   -2.5246    0.0000 C   0  0  0  0  0  0  0  0  0  0  0  0
    4.7516   -2.5246    0.0000 C   0  0  0  0  0  0  0  0  0  0  0  0
    2.6891   -0.9851    0.0000 O   0  0  0  0  0  0  0  0  0  0  0  0
    1.9747   -0.5726    0.0000 C   0  0  0  0  0  0  0  0  0  0  0  0
    1.9747    0.2524    0.0000 C   0  0  0  0  0  0  0  0  0  0  0  0
    2.6891   -2.6351    0.0000 S   0  0  0  0  0  0  0  0  0  0  0  0
    1.8641   -1.8101    0.0000 S   0  0  0  0  0  0  0  0  0  0  0  0
    1.4516   -1.0956    0.0000 C   0  0  0  0  0  0  0  0  0  0  0  0
    0.6266   -1.0956    0.0000 S   0  0  0  0  0  0  0  0  0  0  0  0
    0.2141   -0.3811    0.0000 C   0  0  0  0  0  0  0  0  0  0  0  0
   -0.6109   -0.3811    0.0000 C   0  0  0  0  0  0  0  0  0  0  0  0
  1  2  1  0  0  0  0
  2  3  1  0  0  0  0
  3  4  1  0  0  0  0
  1  5  1  0  0  0  0
  5  6  1  0  0  0  0
  6  7  1  0  0  0  0
  1  8  2  0  0  0  0
  1  9  1  0  0  0  0
  9 10  1  0  0  0  0
 10 11  1  0  0  0  0
 11 12  1  0  0  0  0
 12 13  1  0  0  0  0
M  END
> <ChemID>
10260

> <CAS>
298-02-2

> <Original_SMILES>
CCSCSP(=S)(OCC)OCC

> <preferred_name>
Phorate

> <dsstox_substance_id>
DTXSID4032459

> <dsstox_compound_id>
DTXCID2012459

> <Canonical_QSARr>
CCSCSP(=S)(OCC)OCC

> <InChI_Code_QSARr>
InChI=1S/C7H17O2PS3/c1-4-8-10(11,9-5-2)13-7-12-6-3/h4-7H2,1-3H3

> <InChI Key_QSARr>
BULVZWIRKLYCBC-UHFFFAOYSA-N

> <Salt_Solvent>


> <Salt_Solvent_ID>
0

> <Clint>
-7.0

> <Tr_1_Tst_0>
1

$$$$
Row516
  Mrv171c012261910192D          

 13 12  0  0  0  0            999 V2000
    2.3069   -1.5741    0.0000 P   0  0  0  0  0  0  0  0  0  0  0  0
    3.1319   -1.5741    0.0000 O   0  0  0  0  0  0  0  0  0  0  0  0
    3.5444   -2.2886    0.0000 C   0  0  0  0  0  0  0  0  0  0  0  0
    4.3694   -2.2886    0.0000 C   0  0  0  0  0  0  0  0  0  0  0  0
    2.3069   -0.7491    0.0000 S   0  0  0  0  0  0  0  0  0  0  0  0
    1.5924   -0.3366    0.0000 C   0  0  0  0  0  0  0  0  0  0  0  0
    1.5924    0.4884    0.0000 C   0  0  0  0  0  0  0  0  0  0  0  0
    0.8780    0.9009    0.0000 C   0  0  0  0  0  0  0  0  0  0  0  0
    2.3069   -2.3991    0.0000 S   0  0  0  0  0  0  0  0  0  0  0  0
    3.0214   -2.8116    0.0000 C   0  0  0  0  0  0  0  0  0  0  0  0
    3.0214   -3.6366    0.0000 C   0  0  0  0  0  0  0  0  0  0  0  0
    3.7359   -4.0491    0.0000 C   0  0  0  0  0  0  0  0  0  0  0  0
    1.4819   -1.5741    0.0000 O   0  0  0  0  0  0  0  0  0  0  0  0
  1  2  1  0  0  0  0
  2  3  1  0  0  0  0
  3  4  1  0  0  0  0
  1  5  1  0  0  0  0
  5  6  1  0  0  0  0
  6  7  1  0  0  0  0
  7  8  1  0  0  0  0
  1  9  1  0  0  0  0
  9 10  1  0  0  0  0
 10 11  1  0  0  0  0
 11 12  1  0  0  0  0
  1 13  2  0  0  0  0
M  END
> <ChemID>
10261

> <CAS>
13194-48-4

> <Original_SMILES>
CCOP(=O)(SCCC)SCCC

> <preferred_name>
Ethoprop

> <dsstox_substance_id>
DTXSID4032611

> <dsstox_compound_id>
DTXCID2012611

> <Canonical_QSARr>
CCOP(=O)(SCCC)SCCC

> <InChI_Code_QSARr>
InChI=1S/C8H19O2PS2/c1-4-7-12-11(9,10-6-3)13-8-5-2/h4-8H2,1-3H3

> <InChI Key_QSARr>
VJYFKVYYMZPMAB-UHFFFAOYSA-N

> <Salt_Solvent>


> <Salt_Solvent_ID>
0

> <Clint>
1.3211840273023139

> <Tr_1_Tst_0>
0

$$$$
Row489
  Mrv171c012261910192D          

 17 17  0  0  0  0            999 V2000
    2.0185   -2.3363    0.0000 S   0  0  0  0  0  0  0  0  0  0  0  0
    2.4310   -3.0508    0.0000 P   0  0  0  0  0  0  0  0  0  0  0  0
    1.7166   -3.4633    0.0000 O   0  0  0  0  0  0  0  0  0  0  0  0
    1.7166   -4.2883    0.0000 C   0  0  0  0  0  0  0  0  0  0  0  0
    2.8435   -3.7653    0.0000 O   0  0  0  0  0  0  0  0  0  0  0  0
    2.4310   -4.4797    0.0000 C   0  0  0  0  0  0  0  0  0  0  0  0
    3.1455   -2.6383    0.0000 O   0  0  0  0  0  0  0  0  0  0  0  0
    3.1455   -1.8133    0.0000 C   0  0  0  0  0  0  0  0  0  0  0  0
    3.8600   -1.4008    0.0000 C   0  0  0  0  0  0  0  0  0  0  0  0
    3.8600   -0.5758    0.0000 C   0  0  0  0  0  0  0  0  0  0  0  0
    3.1455   -0.1633    0.0000 C   0  0  0  0  0  0  0  0  0  0  0  0
    3.1455    0.6617    0.0000 N   0  3  0  0  0  0  0  0  0  0  0  0
    2.4310    1.0742    0.0000 O   0  5  0  0  0  0  0  0  0  0  0  0
    3.8600    1.0742    0.0000 O   0  0  0  0  0  0  0  0  0  0  0  0
    2.4310   -0.5758    0.0000 C   0  0  0  0  0  0  0  0  0  0  0  0
    1.7166   -0.1633    0.0000 C   0  0  0  0  0  0  0  0  0  0  0  0
    2.4310   -1.4008    0.0000 C   0  0  0  0  0  0  0  0  0  0  0  0
  1  2  2  0  0  0  0
  2  3  1  0  0  0  0
  3  4  1  0  0  0  0
  2  5  1  0  0  0  0
  5  6  1  0  0  0  0
  2  7  1  0  0  0  0
  7  8  1  0  0  0  0
  9  8  2  0  0  0  0
 10  9  1  0  0  0  0
 11 10  2  0  0  0  0
 11 12  1  0  0  0  0
 12 13  1  0  0  0  0
 12 14  2  0  0  0  0
 15 11  1  0  0  0  0
 15 16  1  0  0  0  0
 17 15  2  0  0  0  0
  8 17  1  0  0  0  0
M  CHG  2  12   1  13  -1
M  END
> <ChemID>
10262

> <CAS>
122-14-5

> <Original_SMILES>
Cc1cc(ccc1[N+]([O-])=O)OP(=S)(OC)OC

> <preferred_name>
Fenitrothion

> <dsstox_substance_id>
DTXSID4032613

> <dsstox_compound_id>
DTXCID2012613

> <Canonical_QSARr>
CC1=CC(=CC=C1[N+]([O-])=O)OP(=S)(OC)OC

> <InChI_Code_QSARr>
InChI=1S/C9H12NO5PS/c1-7-6-8(4-5-9(7)10(11)12)15-16(17,13-2)14-3/h4-6H,1-3H3

> <InChI Key_QSARr>
ZNOLGFHPUIJIMJ-UHFFFAOYSA-N

> <Salt_Solvent>


> <Salt_Solvent_ID>
0

> <Clint>
1.0008677215312267

> <Tr_1_Tst_0>
0

$$$$
Row207
  Mrv171c012261910192D          

 22 24  0  0  0  0            999 V2000
   -0.2199   -1.5343    0.0000 F   0  0  0  0  0  0  0  0  0  0  0  0
    0.1926   -2.2488    0.0000 C   0  0  0  0  0  0  0  0  0  0  0  0
   -0.2199   -2.9633    0.0000 C   0  0  0  0  0  0  0  0  0  0  0  0
    0.1926   -3.6777    0.0000 C   0  0  0  0  0  0  0  0  0  0  0  0
    1.0176   -3.6777    0.0000 C   0  0  0  0  0  0  0  0  0  0  0  0
    1.4301   -2.9633    0.0000 C   0  0  0  0  0  0  0  0  0  0  0  0
    2.2551   -2.9633    0.0000 F   0  0  0  0  0  0  0  0  0  0  0  0
    1.0176   -2.2488    0.0000 C   0  0  0  0  0  0  0  0  0  0  0  0
    1.4301   -1.5343    0.0000 N   0  0  0  0  0  0  0  0  0  0  0  0
    2.2551   -1.5343    0.0000 S   0  0  0  0  0  0  0  0  0  0  0  0
    3.0801   -1.5343    0.0000 C   0  0  0  0  0  0  0  0  0  0  0  0
    3.5650   -0.8669    0.0000 N   0  0  0  0  0  0  0  0  0  0  0  0
    4.3496   -1.1218    0.0000 C   0  0  0  0  0  0  0  0  0  0  0  0
    5.0641   -0.7093    0.0000 N   0  0  0  0  0  0  0  0  0  0  0  0
    5.7785   -1.1218    0.0000 C   0  0  0  0  0  0  0  0  0  0  0  0
    6.4930   -0.7093    0.0000 C   0  0  0  0  0  0  0  0  0  0  0  0
    5.7785   -1.9468    0.0000 C   0  0  0  0  0  0  0  0  0  0  0  0
    5.0641   -2.3593    0.0000 C   0  0  0  0  0  0  0  0  0  0  0  0
    4.3496   -1.9468    0.0000 N   0  0  0  0  0  0  0  0  0  0  0  0
    3.5650   -2.2018    0.0000 N   0  0  0  0  0  0  0  0  0  0  0  0
    2.2551   -2.3593    0.0000 O   0  0  0  0  0  0  0  0  0  0  0  0
    2.2551   -0.7093    0.0000 O   0  0  0  0  0  0  0  0  0  0  0  0
  1  2  1  0  0  0  0
  3  2  2  0  0  0  0
  4  3  1  0  0  0  0
  5  4  2  0  0  0  0
  6  5  1  0  0  0  0
  6  7  1  0  0  0  0
  8  6  2  0  0  0  0
  2  8  1  0  0  0  0
  8  9  1  0  0  0  0
  9 10  1  0  0  0  0
 10 11  1  0  0  0  0
 12 11  1  0  0  0  0
 13 12  2  0  0  0  0
 13 14  1  0  0  0  0
 14 15  2  0  0  0  0
 15 16  1  0  0  0  0
 15 17  1  0  0  0  0
 17 18  2  0  0  0  0
 18 19  1  0  0  0  0
 19 13  1  0  0  0  0
 20 19  1  0  0  0  0
 11 20  2  0  0  0  0
 10 21  2  0  0  0  0
 10 22  2  0  0  0  0
M  END
> <ChemID>
10263

> <CAS>
98967-40-9

> <Original_SMILES>
Cc1cc[n]2[n]c([n]c2[n]1)S(=O)(=O)Nc1c(F)cccc1F

> <preferred_name>
Flumetsulam

> <dsstox_substance_id>
DTXSID4032615

> <dsstox_compound_id>
DTXCID2012615

> <Canonical_QSARr>
CC1C=CN2N=C(N=C2N=1)S(=O)(=O)NC1C(F)=CC=CC=1F

> <InChI_Code_QSARr>
InChI=1S/C12H9F2N5O2S/c1-7-5-6-19-11(15-7)16-12(17-19)22(20,21)18-10-8(13)3-2-4-9(10)14/h2-6,18H,1H3

> <InChI Key_QSARr>
RXCPQSJAVKGONC-UHFFFAOYSA-N

> <Salt_Solvent>


> <Salt_Solvent_ID>
0

> <Clint>
0.8762178405916421

> <Tr_1_Tst_0>
1

$$$$
Row471
  Mrv171c012261910192D          

 26 28  0  0  0  0            999 V2000
    2.7026   -2.7141    0.0000 C   0  0  0  0  0  0  0  0  0  0  0  0
    1.8901   -2.8573    0.0000 C   0  0  0  0  0  0  0  0  0  0  0  0
    1.6079   -3.6326    0.0000 C   0  0  0  0  0  0  0  0  0  0  0  0
    2.1382   -4.2646    0.0000 C   0  0  0  0  0  0  0  0  0  0  0  0
    1.8561   -5.0398    0.0000 Cl  0  0  0  0  0  0  0  0  0  0  0  0
    2.9507   -4.1213    0.0000 C   0  0  0  0  0  0  0  0  0  0  0  0
    3.2329   -3.3461    0.0000 C   0  0  0  0  0  0  0  0  0  0  0  0
    2.9847   -1.9388    0.0000 C   0  0  0  0  0  0  0  0  0  0  0  0
    2.1723   -1.7956    0.0000 O   0  0  0  0  0  0  0  0  0  0  0  0
    3.6992   -2.3513    0.0000 C   0  0  0  0  0  0  0  0  0  0  0  0
    4.4137   -1.9388    0.0000 C   0  0  0  0  0  0  0  0  0  0  0  0
    4.4137   -1.1138    0.0000 N   0  0  0  0  0  0  0  0  0  0  0  0
    5.1282   -0.7013    0.0000 C   0  0  0  0  0  0  0  0  0  0  0  0
    5.8426   -1.1138    0.0000 C   0  0  0  0  0  0  0  0  0  0  0  0
    6.5571   -0.7013    0.0000 C   0  0  0  0  0  0  0  0  0  0  0  0
    7.2716   -1.1138    0.0000 C   0  0  0  0  0  0  0  0  0  0  0  0
    7.2716   -1.9388    0.0000 O   0  0  0  0  0  0  0  0  0  0  0  0
    7.9860   -0.7013    0.0000 C   0  0  0  0  0  0  0  0  0  0  0  0
    8.7005   -1.1138    0.0000 C   0  0  0  0  0  0  0  0  0  0  0  0
    9.4150   -0.7013    0.0000 C   0  0  0  0  0  0  0  0  0  0  0  0
    9.4150    0.1237    0.0000 C   0  0  0  0  0  0  0  0  0  0  0  0
   10.1295    0.5362    0.0000 F   0  0  0  0  0  0  0  0  0  0  0  0
    8.7005    0.5362    0.0000 C   0  0  0  0  0  0  0  0  0  0  0  0
    7.9860    0.1237    0.0000 C   0  0  0  0  0  0  0  0  0  0  0  0
    3.6992   -0.7013    0.0000 C   0  0  0  0  0  0  0  0  0  0  0  0
    2.9847   -1.1138    0.0000 C   0  0  0  0  0  0  0  0  0  0  0  0
  2  1  1  0  0  0  0
  3  2  2  0  0  0  0
  4  3  1  0  0  0  0
  4  5  1  0  0  0  0
  6  4  2  0  0  0  0
  7  6  1  0  0  0  0
  1  7  2  0  0  0  0
  1  8  1  0  0  0  0
  8  9  1  0  0  0  0
 10  8  1  0  0  0  0
 11 10  1  0  0  0  0
 12 11  1  0  0  0  0
 12 13  1  0  0  0  0
 13 14  1  0  0  0  0
 14 15  1  0  0  0  0
 15 16  1  0  0  0  0
 16 17  2  0  0  0  0
 16 18  1  0  0  0  0
 19 18  2  0  0  0  0
 20 19  1  0  0  0  0
 21 20  2  0  0  0  0
 21 22  1  0  0  0  0
 23 21  1  0  0  0  0
 24 23  2  0  0  0  0
 18 24  1  0  0  0  0
 25 12  1  0  0  0  0
 26 25  1  0  0  0  0
  8 26  1  0  0  0  0
M  END
> <ChemID>
10265

> <CAS>
52-86-8

> <Original_SMILES>
OC1(CCN(CCCC(=O)c2ccc(F)cc2)CC1)c1ccc(Cl)cc1

> <preferred_name>
Haloperidol

> <dsstox_substance_id>
DTXSID4034150

> <dsstox_compound_id>
DTXCID2014150

> <Canonical_QSARr>
OC1(CCN(CCCC(=O)C2C=CC(F)=CC=2)CC1)C1C=CC(Cl)=CC=1

> <InChI_Code_QSARr>
InChI=1S/C21H23ClFNO2/c22-18-7-5-17(6-8-18)21(26)11-14-24(15-12-21)13-1-2-20(25)16-3-9-19(23)10-4-16/h3-10,26H,1-2,11-15H2

> <InChI Key_QSARr>
LNEPOXFFQSENCJ-UHFFFAOYSA-N

> <Salt_Solvent>


> <Salt_Solvent_ID>
0

> <Clint>
0.7178368674869255

> <Tr_1_Tst_0>
0

$$$$
Row409
  Mrv171c012261910192D          

 13 13  0  0  0  0            999 V2000
   -4.1770   -0.4916    0.0000 C   0  0  0  0  0  0  0  0  0  0  0  0
   -3.4626   -0.0791    0.0000 C   0  0  0  0  0  0  0  0  0  0  0  0
   -2.7481   -0.4916    0.0000 C   0  0  0  0  0  0  0  0  0  0  0  0
   -2.0336   -0.0791    0.0000 C   0  0  0  0  0  0  0  0  0  0  0  0
   -1.3192   -0.4916    0.0000 C   0  0  0  0  0  0  0  0  0  0  0  0
   -0.6047   -0.0791    0.0000 C   0  0  0  0  0  0  0  0  0  0  0  0
    0.1098   -0.4916    0.0000 C   0  0  0  0  0  0  0  0  0  0  0  0
    0.8243   -0.0791    0.0000 C   0  0  0  0  0  0  0  0  0  0  0  0
    1.5779   -0.4147    0.0000 O   0  0  0  0  0  0  0  0  0  0  0  0
    2.1300    0.1984    0.0000 C   0  0  0  0  0  0  0  0  0  0  0  0
    2.9504    0.1122    0.0000 O   0  0  0  0  0  0  0  0  0  0  0  0
    1.7175    0.9129    0.0000 C   0  0  0  0  0  0  0  0  0  0  0  0
    0.9105    0.7414    0.0000 C   0  0  0  0  0  0  0  0  0  0  0  0
  1  2  1  0  0  0  0
  2  3  1  0  0  0  0
  3  4  1  0  0  0  0
  4  5  1  0  0  0  0
  5  6  1  0  0  0  0
  6  7  1  0  0  0  0
  7  8  1  0  0  0  0
  9  8  1  0  0  0  0
 10  9  1  0  0  0  0
 10 11  2  0  0  0  0
 12 10  1  0  0  0  0
 13 12  1  0  0  0  0
  8 13  1  0  0  0  0
M  END
> <ChemID>
10266

> <CAS>
104-67-6

> <Original_SMILES>
CCCCCCCC1CCC(=O)O1

> <preferred_name>
5-Heptyldihydro-2(3H)-furanone

> <dsstox_substance_id>
DTXSID4034287

> <dsstox_compound_id>
DTXCID2014287

> <Canonical_QSARr>
CCCCCCCC1CCC(=O)O1

> <InChI_Code_QSARr>
InChI=1S/C11H20O2/c1-2-3-4-5-6-7-10-8-9-11(12)13-10/h10H,2-9H2,1H3

> <InChI Key_QSARr>
PHXATPHONSXBIL-UHFFFAOYSA-N

> <Salt_Solvent>


> <Salt_Solvent_ID>
0

> <Clint>
2.4712917110589383

> <Tr_1_Tst_0>
1

$$$$
Row462
  Mrv171c012261910192D          

 28 30  0  0  0  0            999 V2000
    3.6359   -2.4616    0.0000 C   0  0  0  0  0  0  0  0  0  0  0  0
    4.3504   -2.8741    0.0000 O   0  0  0  0  0  0  0  0  0  0  0  0
    4.3504   -3.6991    0.0000 C   0  0  0  0  0  0  0  0  0  0  0  0
    3.7670   -4.2825    0.0000 C   0  0  0  0  0  0  0  0  0  0  0  0
    4.3504   -4.8658    0.0000 O   0  0  0  0  0  0  0  0  0  0  0  0
    4.9338   -4.2825    0.0000 C   0  0  0  0  0  0  0  0  0  0  0  0
    3.6359   -1.6366    0.0000 C   0  0  0  0  0  0  0  0  0  0  0  0
    4.3504   -1.2241    0.0000 C   0  0  0  0  0  0  0  0  0  0  0  0
    4.3504   -0.3991    0.0000 C   0  0  0  0  0  0  0  0  0  0  0  0
    3.6359    0.0134    0.0000 C   0  0  0  0  0  0  0  0  0  0  0  0
    2.9214   -0.3991    0.0000 C   0  0  0  0  0  0  0  0  0  0  0  0
    2.9214   -1.2241    0.0000 C   0  0  0  0  0  0  0  0  0  0  0  0
    2.2070   -1.6366    0.0000 S   0  0  0  0  0  0  0  0  0  0  0  0
    1.4925   -2.0491    0.0000 N   0  0  0  0  0  0  0  0  0  0  0  0
    1.4925   -2.8741    0.0000 C   0  0  0  0  0  0  0  0  0  0  0  0
    0.7780   -3.2866    0.0000 N   0  0  0  0  0  0  0  0  0  0  0  0
    0.7780   -4.1116    0.0000 C   0  0  0  0  0  0  0  0  0  0  0  0
    0.0636   -4.5241    0.0000 N   0  0  0  0  0  0  0  0  0  0  0  0
    0.0636   -5.3491    0.0000 C   0  0  0  0  0  0  0  0  0  0  0  0
   -0.6509   -5.7616    0.0000 C   0  0  0  0  0  0  0  0  0  0  0  0
    0.7780   -5.7616    0.0000 C   0  0  0  0  0  0  0  0  0  0  0  0
    1.4925   -5.3491    0.0000 C   0  0  0  0  0  0  0  0  0  0  0  0
    2.2070   -5.7616    0.0000 C   0  0  0  0  0  0  0  0  0  0  0  0
    1.4925   -4.5241    0.0000 N   0  0  0  0  0  0  0  0  0  0  0  0
    2.2070   -3.2866    0.0000 O   0  0  0  0  0  0  0  0  0  0  0  0
    1.7945   -0.9221    0.0000 O   0  0  0  0  0  0  0  0  0  0  0  0
    2.6195   -2.3511    0.0000 O   0  0  0  0  0  0  0  0  0  0  0  0
    2.9214   -2.8741    0.0000 O   0  0  0  0  0  0  0  0  0  0  0  0
  1  2  1  0  0  0  0
  2  3  1  0  0  0  0
  4  3  1  0  0  0  0
  5  4  1  0  0  0  0
  6  5  1  0  0  0  0
  3  6  1  0  0  0  0
  1  7  1  0  0  0  0
  8  7  1  0  0  0  0
  9  8  2  0  0  0  0
 10  9  1  0  0  0  0
 11 10  2  0  0  0  0
 12 11  1  0  0  0  0
  7 12  2  0  0  0  0
 12 13  1  0  0  0  0
 13 14  1  0  0  0  0
 14 15  1  0  0  0  0
 15 16  1  0  0  0  0
 16 17  1  0  0  0  0
 18 17  1  0  0  0  0
 19 18  2  0  0  0  0
 19 20  1  0  0  0  0
 21 19  1  0  0  0  0
 22 21  2  0  0  0  0
 22 23  1  0  0  0  0
 24 22  1  0  0  0  0
 17 24  2  0  0  0  0
 15 25  2  0  0  0  0
 13 26  2  0  0  0  0
 13 27  2  0  0  0  0
  1 28  2  0  0  0  0
M  END
> <ChemID>
10267

> <CAS>
144651-06-9

> <Original_SMILES>
Cc1cc(C)[n]c(NC(=O)NS(=O)(=O)c2ccccc2C(=O)OC2COC2)[n]1

> <preferred_name>
Oxasulfuron

> <dsstox_substance_id>
DTXSID4034364

> <dsstox_compound_id>
DTXCID2014364

> <Canonical_QSARr>
CC1=CC(C)=NC(NC(=O)NS(=O)(=O)C2C=CC=CC=2C(=O)OC2COC2)=N1

> <InChI_Code_QSARr>
InChI=1S/C17H18N4O6S/c1-10-7-11(2)19-16(18-10)20-17(23)21-28(24,25)14-6-4-3-5-13(14)15(22)27-12-8-26-9-12/h3-7,12H,8-9H2,1-2H3,(H2,18,19,20,21,23)

> <InChI Key_QSARr>
IOXAXYHXMLCCJJ-UHFFFAOYSA-N

> <Salt_Solvent>


> <Salt_Solvent_ID>
0

> <Clint>
0.4927603890268375

> <Tr_1_Tst_0>
0

$$$$
Row155
  Mrv171c012261910192D          

 25 27  0  0  0  0            999 V2000
    6.0820   -3.7358    0.0000 N   0  0  0  0  0  0  0  0  0  0  0  0
    6.0820   -2.9108    0.0000 C   0  0  0  0  0  0  0  0  0  0  0  0
    6.7965   -2.4983    0.0000 F   0  0  0  0  0  0  0  0  0  0  0  0
    5.3676   -2.4983    0.0000 C   0  0  0  0  0  0  0  0  0  0  0  0
    4.6531   -2.9108    0.0000 C   0  0  0  0  0  0  0  0  0  0  0  0
    3.8685   -2.6559    0.0000 N   0  0  0  0  0  0  0  0  0  0  0  0
    3.3836   -3.3233    0.0000 C   0  0  0  0  0  0  0  0  0  0  0  0
    2.5586   -3.3233    0.0000 S   0  0  0  0  0  0  0  0  0  0  0  0
    2.5586   -2.4983    0.0000 O   0  0  0  0  0  0  0  0  0  0  0  0
    1.7336   -3.3233    0.0000 N   0  0  0  0  0  0  0  0  0  0  0  0
    1.3211   -2.6088    0.0000 C   0  0  0  0  0  0  0  0  0  0  0  0
    1.7336   -1.8944    0.0000 C   0  0  0  0  0  0  0  0  0  0  0  0
    2.5586   -1.8944    0.0000 Cl  0  0  0  0  0  0  0  0  0  0  0  0
    1.3211   -1.1799    0.0000 C   0  0  0  0  0  0  0  0  0  0  0  0
    0.4961   -1.1799    0.0000 C   0  0  0  0  0  0  0  0  0  0  0  0
    0.0836   -1.8944    0.0000 C   0  0  0  0  0  0  0  0  0  0  0  0
    0.4961   -2.6088    0.0000 C   0  0  0  0  0  0  0  0  0  0  0  0
    0.0836   -3.3233    0.0000 Cl  0  0  0  0  0  0  0  0  0  0  0  0
    2.5586   -4.1483    0.0000 O   0  0  0  0  0  0  0  0  0  0  0  0
    3.8685   -3.9907    0.0000 N   0  0  0  0  0  0  0  0  0  0  0  0
    4.6531   -3.7358    0.0000 N   0  0  0  0  0  0  0  0  0  0  0  0
    5.3676   -4.1483    0.0000 C   0  0  0  0  0  0  0  0  0  0  0  0
    5.3676   -4.9733    0.0000 O   0  0  0  0  0  0  0  0  0  0  0  0
    4.6531   -5.3858    0.0000 C   0  0  0  0  0  0  0  0  0  0  0  0
    4.6531   -6.2108    0.0000 C   0  0  0  0  0  0  0  0  0  0  0  0
  2  1  1  0  0  0  0
  2  3  1  0  0  0  0
  4  2  2  0  0  0  0
  5  4  1  0  0  0  0
  5  6  2  0  0  0  0
  6  7  1  0  0  0  0
  7  8  1  0  0  0  0
  8  9  2  0  0  0  0
  8 10  1  0  0  0  0
 10 11  1  0  0  0  0
 12 11  1  0  0  0  0
 12 13  1  0  0  0  0
 14 12  2  0  0  0  0
 15 14  1  0  0  0  0
 16 15  2  0  0  0  0
 17 16  1  0  0  0  0
 11 17  2  0  0  0  0
 17 18  1  0  0  0  0
  8 19  2  0  0  0  0
  7 20  2  0  0  0  0
 20 21  1  0  0  0  0
 21  5  1  0  0  0  0
 22 21  1  0  0  0  0
  1 22  2  0  0  0  0
 22 23  1  0  0  0  0
 23 24  1  0  0  0  0
 24 25  1  0  0  0  0
M  END
> <ChemID>
10268

> <CAS>
145701-21-9

> <Original_SMILES>
CCOc1[n]c(F)cc2[n]c([n][n]21)S(=O)(=O)Nc1c(Cl)cccc1Cl

> <preferred_name>
Diclosulam

> <dsstox_substance_id>
DTXSID4034528

> <dsstox_compound_id>
DTXCID2014528

> <Canonical_QSARr>
CCOC1=NC(F)=CC2=NC(=NN21)S(=O)(=O)NC1C(Cl)=CC=CC=1Cl

> <InChI_Code_QSARr>
InChI=1S/C13H10Cl2FN5O3S/c1-2-24-13-17-9(16)6-10-18-12(19-21(10)13)25(22,23)20-11-7(14)4-3-5-8(11)15/h3-6,20H,2H2,1H3

> <InChI Key_QSARr>
QNXAVFXEJCPCJO-UHFFFAOYSA-N

> <Salt_Solvent>


> <Salt_Solvent_ID>
0

> <Clint>
0.5365584425715301

> <Tr_1_Tst_0>
1

$$$$
Row447
  Mrv171c012261910192D          

 26 27  0  0  0  0            999 V2000
    3.0241   -1.6018    0.0000 N   0  0  0  0  0  0  0  0  0  0  0  0
    3.2790   -0.8172    0.0000 N   0  0  0  0  0  0  0  0  0  0  0  0
    2.6116   -0.3322    0.0000 C   0  0  0  0  0  0  0  0  0  0  0  0
    2.6116    0.4928    0.0000 C   0  0  0  0  0  0  0  0  0  0  0  0
    2.6116    1.3178    0.0000 N   0  0  0  0  0  0  0  0  0  0  0  0
    1.9441   -0.8172    0.0000 C   0  0  0  0  0  0  0  0  0  0  0  0
    1.1595   -0.5622    0.0000 S   0  0  0  0  0  0  0  0  0  0  0  0
    0.5464   -1.1142    0.0000 O   0  0  0  0  0  0  0  0  0  0  0  0
    0.9880    0.2448    0.0000 C   0  0  0  0  0  0  0  0  0  0  0  0
    0.8164    1.0517    0.0000 F   0  0  0  0  0  0  0  0  0  0  0  0
    0.1810    0.0732    0.0000 F   0  0  0  0  0  0  0  0  0  0  0  0
    1.7949    0.4163    0.0000 F   0  0  0  0  0  0  0  0  0  0  0  0
    2.1991   -1.6018    0.0000 C   0  0  0  0  0  0  0  0  0  0  0  0
    1.7141   -2.2692    0.0000 N   0  0  0  0  0  0  0  0  0  0  0  0
    3.5090   -2.2692    0.0000 C   0  0  0  0  0  0  0  0  0  0  0  0
    3.1734   -3.0229    0.0000 C   0  0  0  0  0  0  0  0  0  0  0  0
    2.3529   -3.1091    0.0000 Cl  0  0  0  0  0  0  0  0  0  0  0  0
    3.6583   -3.6903    0.0000 C   0  0  0  0  0  0  0  0  0  0  0  0
    4.4788   -3.6041    0.0000 C   0  0  0  0  0  0  0  0  0  0  0  0
    4.9638   -4.2715    0.0000 C   0  0  0  0  0  0  0  0  0  0  0  0
    5.4487   -4.9390    0.0000 F   0  0  0  0  0  0  0  0  0  0  0  0
    4.2963   -4.7565    0.0000 F   0  0  0  0  0  0  0  0  0  0  0  0
    5.6312   -3.7866    0.0000 F   0  0  0  0  0  0  0  0  0  0  0  0
    4.8144   -2.8504    0.0000 C   0  0  0  0  0  0  0  0  0  0  0  0
    4.3295   -2.1830    0.0000 C   0  0  0  0  0  0  0  0  0  0  0  0
    4.6650   -1.4293    0.0000 Cl  0  0  0  0  0  0  0  0  0  0  0  0
  2  1  1  0  0  0  0
  3  2  2  0  0  0  0
  3  4  1  0  0  0  0
  4  5  3  0  0  0  0
  6  3  1  0  0  0  0
  6  7  1  0  0  0  0
  7  8  2  0  0  0  0
  7  9  1  0  0  0  0
  9 10  1  0  0  0  0
  9 11  1  0  0  0  0
  9 12  1  0  0  0  0
 13  6  2  0  0  0  0
  1 13  1  0  0  0  0
 13 14  1  0  0  0  0
  1 15  1  0  0  0  0
 16 15  1  0  0  0  0
 16 17  1  0  0  0  0
 18 16  2  0  0  0  0
 19 18  1  0  0  0  0
 19 20  1  0  0  0  0
 20 21  1  0  0  0  0
 20 22  1  0  0  0  0
 20 23  1  0  0  0  0
 24 19  2  0  0  0  0
 25 24  1  0  0  0  0
 15 25  2  0  0  0  0
 25 26  1  0  0  0  0
M  END
> <ChemID>
10269

> <CAS>
120068-37-3

> <Original_SMILES>
Nc1c(c(C#N)[n][n]1-c1c(Cl)cc(cc1Cl)C(F)(F)F)S(=O)C(F)(F)F

> <preferred_name>
Fipronil

> <dsstox_substance_id>
DTXSID4034609

> <dsstox_compound_id>
DTXCID2014609

> <Canonical_QSARr>
NC1=C(C(C#N)=NN1C1C(Cl)=CC(=CC=1Cl)C(F)(F)F)S(=O)C(F)(F)F

> <InChI_Code_QSARr>
InChI=1S/C12H4Cl2F6N4OS/c13-5-1-4(11(15,16)17)2-6(14)8(5)24-10(22)9(7(3-21)23-24)26(25)12(18,19)20/h1-2H,22H2

> <InChI Key_QSARr>
ZOCSXAVNDGMNBV-UHFFFAOYSA-N

> <Salt_Solvent>


> <Salt_Solvent_ID>
0

> <Clint>
0.1367205671564068

> <Tr_1_Tst_0>
0

$$$$
Row279
  Mrv171c012261910192D          

 20 21  0  0  0  0            999 V2000
    4.6906   -4.6288    0.0000 N   0  0  0  0  0  0  0  0  0  0  0  0
    4.9455   -3.8442    0.0000 C   0  0  0  0  0  0  0  0  0  0  0  0
    4.2781   -3.3593    0.0000 N   0  0  0  0  0  0  0  0  0  0  0  0
    4.2781   -2.5343    0.0000 C   0  0  0  0  0  0  0  0  0  0  0  0
    3.5636   -2.1218    0.0000 C   0  0  0  0  0  0  0  0  0  0  0  0
    3.9761   -1.4073    0.0000 O   0  0  0  0  0  0  0  0  0  0  0  0
    3.1511   -2.8363    0.0000 C   0  0  0  0  0  0  0  0  0  0  0  0
    2.3261   -2.8363    0.0000 C   0  0  0  0  0  0  0  0  0  0  0  0
    1.9136   -3.5507    0.0000 C   0  0  0  0  0  0  0  0  0  0  0  0
    1.0886   -3.5507    0.0000 C   0  0  0  0  0  0  0  0  0  0  0  0
    2.8492   -1.7093    0.0000 C   0  0  0  0  0  0  0  0  0  0  0  0
    2.8492   -0.8843    0.0000 C   0  0  0  0  0  0  0  0  0  0  0  0
    3.5636   -0.4718    0.0000 Cl  0  0  0  0  0  0  0  0  0  0  0  0
    2.1347   -0.4718    0.0000 C   0  0  0  0  0  0  0  0  0  0  0  0
    1.4202   -0.8843    0.0000 C   0  0  0  0  0  0  0  0  0  0  0  0
    0.7058   -0.4718    0.0000 Cl  0  0  0  0  0  0  0  0  0  0  0  0
    1.4202   -1.7093    0.0000 C   0  0  0  0  0  0  0  0  0  0  0  0
    2.1347   -2.1218    0.0000 C   0  0  0  0  0  0  0  0  0  0  0  0
    3.6107   -3.8442    0.0000 N   0  0  0  0  0  0  0  0  0  0  0  0
    3.8656   -4.6288    0.0000 C   0  0  0  0  0  0  0  0  0  0  0  0
  2  1  2  0  0  0  0
  3  2  1  0  0  0  0
  3  4  1  0  0  0  0
  4  5  1  0  0  0  0
  5  6  1  0  0  0  0
  5  7  1  0  0  0  0
  7  8  1  0  0  0  0
  8  9  1  0  0  0  0
  9 10  1  0  0  0  0
  5 11  1  0  0  0  0
 12 11  1  0  0  0  0
 12 13  1  0  0  0  0
 14 12  2  0  0  0  0
 15 14  1  0  0  0  0
 15 16  1  0  0  0  0
 17 15  2  0  0  0  0
 18 17  1  0  0  0  0
 11 18  2  0  0  0  0
 19  3  1  0  0  0  0
 20 19  2  0  0  0  0
  1 20  1  0  0  0  0
M  END
> <ChemID>
10270

> <CAS>
79983-71-4

> <Original_SMILES>
CCCCC(O)(C[n]1c[n]c[n]1)c1ccc(Cl)cc1Cl

> <preferred_name>
Hexaconazole

> <dsstox_substance_id>
DTXSID4034653

> <dsstox_compound_id>
DTXCID2014653

> <Canonical_QSARr>
CCCCC(O)(CN1C=NC=N1)C1=CC=C(Cl)C=C1Cl

> <InChI_Code_QSARr>
InChI=1S/C14H17Cl2N3O/c1-2-3-6-14(20,8-19-10-17-9-18-19)12-5-4-11(15)7-13(12)16/h4-5,7,9-10,20H,2-3,6,8H2,1H3

> <InChI Key_QSARr>
STMIIPIFODONDC-UHFFFAOYSA-N

> <Salt_Solvent>


> <Salt_Solvent_ID>
0

> <Clint>
1.210050849875137

> <Tr_1_Tst_0>
1

$$$$
Row318
  Mrv171c012261910192D          

 26 27  0  0  0  0            999 V2000
    2.8356   -3.0654    0.0000 C   0  0  0  0  0  0  0  0  0  0  0  0
    3.5501   -2.6529    0.0000 N   0  0  0  0  0  0  0  0  0  0  0  0
    4.2646   -3.0654    0.0000 C   0  0  0  0  0  0  0  0  0  0  0  0
    4.9791   -3.4779    0.0000 C   0  0  0  0  0  0  0  0  0  0  0  0
    4.6771   -2.3509    0.0000 C   0  0  0  0  0  0  0  0  0  0  0  0
    3.8521   -3.7799    0.0000 C   0  0  0  0  0  0  0  0  0  0  0  0
    3.5501   -1.8279    0.0000 N   0  0  0  0  0  0  0  0  0  0  0  0
    4.2646   -1.4154    0.0000 C   0  0  0  0  0  0  0  0  0  0  0  0
    4.2646   -0.5904    0.0000 C   0  0  0  0  0  0  0  0  0  0  0  0
    4.9791   -0.1779    0.0000 C   0  0  0  0  0  0  0  0  0  0  0  0
    4.9791    0.6471    0.0000 C   0  0  0  0  0  0  0  0  0  0  0  0
    4.2646    1.0596    0.0000 C   0  0  0  0  0  0  0  0  0  0  0  0
    4.2646    1.8846    0.0000 C   0  0  0  0  0  0  0  0  0  0  0  0
    3.5501    2.2971    0.0000 C   0  0  0  0  0  0  0  0  0  0  0  0
    3.5501    0.6471    0.0000 C   0  0  0  0  0  0  0  0  0  0  0  0
    3.5501   -0.1779    0.0000 C   0  0  0  0  0  0  0  0  0  0  0  0
    4.9791   -1.8279    0.0000 O   0  0  0  0  0  0  0  0  0  0  0  0
    2.8356   -3.8904    0.0000 C   0  0  0  0  0  0  0  0  0  0  0  0
    2.1212   -4.3029    0.0000 C   0  0  0  0  0  0  0  0  0  0  0  0
    2.1212   -5.1279    0.0000 C   0  0  0  0  0  0  0  0  0  0  0  0
    1.4067   -5.5404    0.0000 C   0  0  0  0  0  0  0  0  0  0  0  0
    2.8356   -5.5404    0.0000 C   0  0  0  0  0  0  0  0  0  0  0  0
    3.5501   -5.1279    0.0000 C   0  0  0  0  0  0  0  0  0  0  0  0
    4.2646   -5.5404    0.0000 C   0  0  0  0  0  0  0  0  0  0  0  0
    3.5501   -4.3029    0.0000 C   0  0  0  0  0  0  0  0  0  0  0  0
    2.1212   -2.6529    0.0000 O   0  0  0  0  0  0  0  0  0  0  0  0
  1  2  1  0  0  0  0
  2  3  1  0  0  0  0
  3  4  1  0  0  0  0
  3  5  1  0  0  0  0
  3  6  1  0  0  0  0
  2  7  1  0  0  0  0
  7  8  1  0  0  0  0
  8  9  1  0  0  0  0
 10  9  1  0  0  0  0
 11 10  2  0  0  0  0
 12 11  1  0  0  0  0
 12 13  1  0  0  0  0
 13 14  1  0  0  0  0
 15 12  2  0  0  0  0
 16 15  1  0  0  0  0
  9 16  2  0  0  0  0
  8 17  2  0  0  0  0
  1 18  1  0  0  0  0
 19 18  1  0  0  0  0
 20 19  2  0  0  0  0
 20 21  1  0  0  0  0
 22 20  1  0  0  0  0
 23 22  2  0  0  0  0
 23 24  1  0  0  0  0
 25 23  1  0  0  0  0
 18 25  2  0  0  0  0
  1 26  2  0  0  0  0
M  END
> <ChemID>
10271

> <CAS>
112410-23-8

> <Original_SMILES>
CCc1ccc(cc1)C(=O)NN(C(=O)c1cc(C)cc(C)c1)C(C)(C)C

> <preferred_name>
Tebufenozide

> <dsstox_substance_id>
DTXSID4034948

> <dsstox_compound_id>
DTXCID2014948

> <Canonical_QSARr>
CCC1C=CC(=CC=1)C(=O)NN(C(=O)C1C=C(C)C=C(C)C=1)C(C)(C)C

> <InChI_Code_QSARr>
InChI=1S/C22H28N2O2/c1-7-17-8-10-18(11-9-17)20(25)23-24(22(4,5)6)21(26)19-13-15(2)12-16(3)14-19/h8-14H,7H2,1-6H3,(H,23,25)

> <InChI Key_QSARr>
QYPNKSZPJQQLRK-UHFFFAOYSA-N

> <Salt_Solvent>


> <Salt_Solvent_ID>
0

> <Clint>
1.3502480183341627

> <Tr_1_Tst_0>
1

$$$$
Row90
  Mrv171c012261910192D          

 16 16  0  0  0  0            999 V2000
    1.7429   -1.2101    0.0000 C   0  0  0  0  0  0  0  0  0  0  0  0
    1.7429   -0.3851    0.0000 C   0  0  0  0  0  0  0  0  0  0  0  0
    1.0284    0.0274    0.0000 C   0  0  0  0  0  0  0  0  0  0  0  0
    0.3140   -0.3851    0.0000 C   0  0  0  0  0  0  0  0  0  0  0  0
    0.3140   -1.2101    0.0000 C   0  0  0  0  0  0  0  0  0  0  0  0
    1.0284   -1.6226    0.0000 C   0  0  0  0  0  0  0  0  0  0  0  0
    1.0284   -2.4476    0.0000 C   0  0  0  0  0  0  0  0  0  0  0  0
    1.7429   -2.8601    0.0000 O   0  0  0  0  0  0  0  0  0  0  0  0
    0.3140   -2.8601    0.0000 O   0  0  0  0  0  0  0  0  0  0  0  0
    2.4574   -1.6226    0.0000 C   0  0  0  0  0  0  0  0  0  0  0  0
    3.1719   -1.2101    0.0000 O   0  0  0  0  0  0  0  0  0  0  0  0
    3.8863   -1.6226    0.0000 C   0  0  0  0  0  0  0  0  0  0  0  0
    4.6008   -1.2101    0.0000 C   0  0  0  0  0  0  0  0  0  0  0  0
    5.3153   -1.6226    0.0000 C   0  0  0  0  0  0  0  0  0  0  0  0
    6.0297   -1.2101    0.0000 C   0  0  0  0  0  0  0  0  0  0  0  0
    2.4574   -2.4476    0.0000 O   0  0  0  0  0  0  0  0  0  0  0  0
  2  1  1  0  0  0  0
  3  2  2  0  0  0  0
  4  3  1  0  0  0  0
  5  4  2  0  0  0  0
  6  5  1  0  0  0  0
  1  6  2  0  0  0  0
  6  7  1  0  0  0  0
  7  8  1  0  0  0  0
  7  9  2  0  0  0  0
  1 10  1  0  0  0  0
 10 11  1  0  0  0  0
 11 12  1  0  0  0  0
 12 13  1  0  0  0  0
 13 14  1  0  0  0  0
 14 15  1  0  0  0  0
 10 16  2  0  0  0  0
M  END
> <ChemID>
10272

> <CAS>
131-70-4

> <Original_SMILES>
CCCCOC(=O)c1ccccc1C(O)=O

> <preferred_name>
Monobutyl phthalate

> <dsstox_substance_id>
DTXSID4040002

> <dsstox_compound_id>
DTXCID2020002

> <Canonical_QSARr>
CCCCOC(=O)C1C=CC=CC=1C(O)=O

> <InChI_Code_QSARr>
InChI=1S/C12H14O4/c1-2-3-8-16-12(15)10-7-5-4-6-9(10)11(13)14/h4-7H,2-3,8H2,1H3,(H,13,14)

> <InChI Key_QSARr>
YZBOVSFWWNVKRJ-UHFFFAOYSA-N

> <Salt_Solvent>


> <Salt_Solvent_ID>
0

> <Clint>
-0.1307682802690238

> <Tr_1_Tst_0>
1

$$$$
Row68
  Mrv171c012261910192D          

 17 18  0  0  0  0            999 V2000
    2.4451   -1.8164    0.0000 C   0  0  0  0  0  0  0  0  0  0  0  0
    2.4451   -0.9914    0.0000 C   0  0  0  0  0  0  0  0  0  0  0  0
    3.1596   -0.5789    0.0000 C   0  0  0  0  0  0  0  0  0  0  0  0
    3.8741   -0.9914    0.0000 C   0  0  0  0  0  0  0  0  0  0  0  0
    4.5885   -0.5789    0.0000 C   0  0  0  0  0  0  0  0  0  0  0  0
    5.3030   -0.9914    0.0000 C   0  0  0  0  0  0  0  0  0  0  0  0
    5.3030   -1.8164    0.0000 C   0  0  0  0  0  0  0  0  0  0  0  0
    4.5885   -2.2289    0.0000 C   0  0  0  0  0  0  0  0  0  0  0  0
    3.8741   -1.8164    0.0000 C   0  0  0  0  0  0  0  0  0  0  0  0
    3.1596   -2.2289    0.0000 C   0  0  0  0  0  0  0  0  0  0  0  0
    6.0175   -0.5789    0.0000 O   0  0  0  0  0  0  0  0  0  0  0  0
    6.7320   -0.9914    0.0000 C   0  0  0  0  0  0  0  0  0  0  0  0
    1.7307   -2.2289    0.0000 C   0  0  0  0  0  0  0  0  0  0  0  0
    1.7307   -3.0539    0.0000 C   0  0  0  0  0  0  0  0  0  0  0  0
    1.0162   -1.8164    0.0000 C   0  0  0  0  0  0  0  0  0  0  0  0
    0.3017   -2.2289    0.0000 O   0  0  0  0  0  0  0  0  0  0  0  0
    1.0162   -0.9914    0.0000 O   0  0  0  0  0  0  0  0  0  0  0  0
  2  1  2  0  0  0  0
  3  2  1  0  0  0  0
  4  3  2  0  0  0  0
  4  5  1  0  0  0  0
  5  6  2  0  0  0  0
  6  7  1  0  0  0  0
  7  8  2  0  0  0  0
  8  9  1  0  0  0  0
  9  4  1  0  0  0  0
 10  9  2  0  0  0  0
  1 10  1  0  0  0  0
  6 11  1  0  0  0  0
 11 12  1  0  0  0  0
  1 13  1  0  0  0  0
 13 14  1  0  0  0  0
 13 15  1  0  0  0  0
 15 16  1  0  0  0  0
 15 17  2  0  0  0  0
M  END
> <ChemID>
10273

> <CAS>
22204-53-1

> <Original_SMILES>
COc1cc2ccc(cc2cc1)[C@H](C)C(O)=O

> <preferred_name>
Naproxen

> <dsstox_substance_id>
DTXSID4040686

> <dsstox_compound_id>
DTXCID2020686

> <Canonical_QSARr>
COC1=CC2=CC=C(C=C2C=C1)C(C)C(O)=O

> <InChI_Code_QSARr>
InChI=1S/C14H14O3/c1-9(14(15)16)10-3-4-12-8-13(17-2)6-5-11(12)7-10/h3-9H,1-2H3,(H,15,16)

> <InChI Key_QSARr>
CMWTZPSULFXXJA-UHFFFAOYSA-N

> <Salt_Solvent>


> <Salt_Solvent_ID>
0

> <Clint>
-4.84163750790475

> <Tr_1_Tst_0>
1

$$$$
Row250
  Mrv171c012261910192D          

 17 18  0  0  0  0            999 V2000
    3.2782   -1.4042    0.0000 N   0  0  0  0  0  0  0  0  0  0  0  0
    2.5637   -0.9917    0.0000 C   0  0  0  0  0  0  0  0  0  0  0  0
    2.5637   -0.1667    0.0000 C   0  0  0  0  0  0  0  0  0  0  0  0
    2.5637    0.6583    0.0000 C   0  0  0  0  0  0  0  0  0  0  0  0
    2.5637    1.4833    0.0000 C   0  0  0  0  0  0  0  0  0  0  0  0
    1.8492   -1.4042    0.0000 C   0  0  0  0  0  0  0  0  0  0  0  0
    1.8492   -2.2292    0.0000 C   0  0  0  0  0  0  0  0  0  0  0  0
    1.1347   -2.6417    0.0000 C   0  0  0  0  0  0  0  0  0  0  0  0
    2.5637   -2.6417    0.0000 N   0  0  0  0  0  0  0  0  0  0  0  0
    3.2782   -2.2292    0.0000 C   0  0  0  0  0  0  0  0  0  0  0  0
    3.9926   -2.6417    0.0000 N   0  0  0  0  0  0  0  0  0  0  0  0
    4.7071   -2.2292    0.0000 C   0  0  0  0  0  0  0  0  0  0  0  0
    5.4216   -2.6417    0.0000 C   0  0  0  0  0  0  0  0  0  0  0  0
    6.1360   -2.2292    0.0000 C   0  0  0  0  0  0  0  0  0  0  0  0
    6.1360   -1.4042    0.0000 C   0  0  0  0  0  0  0  0  0  0  0  0
    5.4216   -0.9917    0.0000 C   0  0  0  0  0  0  0  0  0  0  0  0
    4.7071   -1.4042    0.0000 C   0  0  0  0  0  0  0  0  0  0  0  0
  2  1  1  0  0  0  0
  2  3  1  0  0  0  0
  3  4  3  0  0  0  0
  4  5  1  0  0  0  0
  6  2  2  0  0  0  0
  7  6  1  0  0  0  0
  7  8  1  0  0  0  0
  9  7  2  0  0  0  0
 10  9  1  0  0  0  0
  1 10  2  0  0  0  0
 10 11  1  0  0  0  0
 11 12  1  0  0  0  0
 13 12  1  0  0  0  0
 14 13  2  0  0  0  0
 15 14  1  0  0  0  0
 16 15  2  0  0  0  0
 17 16  1  0  0  0  0
 12 17  2  0  0  0  0
M  END
> <ChemID>
10274

> <CAS>
110235-47-7

> <Original_SMILES>
Cc1cc(C#CC)[n]c(Nc2ccccc2)[n]1

> <preferred_name>
Mepanipyrim

> <dsstox_substance_id>
DTXSID4042121

> <dsstox_compound_id>
DTXCID2022121

> <Canonical_QSARr>
CC1C=C(C#CC)N=C(NC2C=CC=CC=2)N=1

> <InChI_Code_QSARr>
InChI=1S/C14H13N3/c1-3-7-13-10-11(2)15-14(17-13)16-12-8-5-4-6-9-12/h4-6,8-10H,1-2H3,(H,15,16,17)

> <InChI Key_QSARr>
CIFWZNRJIBNXRE-UHFFFAOYSA-N

> <Salt_Solvent>


> <Salt_Solvent_ID>
0

> <Clint>
1.0941215958405612

> <Tr_1_Tst_0>
1

$$$$
Row212
  Mrv171c012261910192D          

 21 23  0  0  0  0            999 V2000
    3.7771   -2.2033    0.0000 N   0  0  0  0  0  0  0  0  0  0  0  0
    4.2915   -2.8483    0.0000 O   0  0  0  0  0  0  0  0  0  0  0  0
    4.1351   -1.4600    0.0000 C   0  0  0  0  0  0  0  0  0  0  0  0
    3.7771   -0.7167    0.0000 C   0  0  0  0  0  0  0  0  0  0  0  0
    4.2915   -0.0716    0.0000 N   0  0  0  0  0  0  0  0  0  0  0  0
    3.9901    0.6963    0.0000 C   0  0  0  0  0  0  0  0  0  0  0  0
    2.9728   -0.5331    0.0000 N   0  0  0  0  0  0  0  0  0  0  0  0
    2.3278   -1.0475    0.0000 C   0  0  0  0  0  0  0  0  0  0  0  0
    1.6133   -0.6350    0.0000 C   0  0  0  0  0  0  0  0  0  0  0  0
    0.8988   -1.0475    0.0000 C   0  0  0  0  0  0  0  0  0  0  0  0
    0.8988   -1.8725    0.0000 C   0  0  0  0  0  0  0  0  0  0  0  0
    0.1844   -2.2850    0.0000 Cl  0  0  0  0  0  0  0  0  0  0  0  0
    1.6133   -2.2850    0.0000 C   0  0  0  0  0  0  0  0  0  0  0  0
    2.3278   -1.8725    0.0000 C   0  0  0  0  0  0  0  0  0  0  0  0
    2.9728   -2.3868    0.0000 C   0  0  0  0  0  0  0  0  0  0  0  0
    2.7892   -3.1912    0.0000 C   0  0  0  0  0  0  0  0  0  0  0  0
    2.0009   -3.4343    0.0000 C   0  0  0  0  0  0  0  0  0  0  0  0
    1.8173   -4.2386    0.0000 C   0  0  0  0  0  0  0  0  0  0  0  0
    2.4221   -4.7998    0.0000 C   0  0  0  0  0  0  0  0  0  0  0  0
    3.2104   -4.5566    0.0000 C   0  0  0  0  0  0  0  0  0  0  0  0
    3.3940   -3.7523    0.0000 C   0  0  0  0  0  0  0  0  0  0  0  0
  1  2  2  0  0  0  0
  3  1  1  0  0  0  0
  4  3  1  0  0  0  0
  4  5  1  0  0  0  0
  5  6  1  0  0  0  0
  7  4  2  0  0  0  0
  8  7  1  0  0  0  0
  8  9  1  0  0  0  0
  9 10  2  0  0  0  0
 10 11  1  0  0  0  0
 11 12  1  0  0  0  0
 11 13  2  0  0  0  0
 13 14  1  0  0  0  0
 14  8  2  0  0  0  0
 15 14  1  0  0  0  0
  1 15  2  0  0  0  0
 15 16  1  0  0  0  0
 17 16  2  0  0  0  0
 18 17  1  0  0  0  0
 19 18  2  0  0  0  0
 20 19  1  0  0  0  0
 21 20  2  0  0  0  0
 16 21  1  0  0  0  0
M  END
> <ChemID>
10275

> <CAS>
58-25-3

> <Original_SMILES>
CNC1CN(=O)=C(c2cc(Cl)ccc2N=1)c1ccccc1

> <preferred_name>
Chlordiazepoxide

> <dsstox_substance_id>
DTXSID4046022

> <dsstox_compound_id>
DTXCID2026022

> <Canonical_QSARr>
CNC1CN(=O)=C(C2C=C(Cl)C=CC=2N=1)C1C=CC=CC=1

> <InChI_Code_QSARr>
InChI=1S/C16H14ClN3O/c1-18-15-10-20(21)16(11-5-3-2-4-6-11)13-9-12(17)7-8-14(13)19-15/h2-9H,10H2,1H3,(H,18,19)

> <InChI Key_QSARr>
ANTSCNMPPGJYLG-UHFFFAOYSA-N

> <Salt_Solvent>


> <Salt_Solvent_ID>
0

> <Clint>
0.9030899869919434

> <Tr_1_Tst_0>
1

$$$$
Row127
  Mrv171c012261910192D          

 28 31  0  0  0  0            999 V2000
    4.6321   -2.4783    0.0000 C   0  0  0  0  0  0  0  0  0  0  0  0
    3.9176   -2.0658    0.0000 N   0  0  0  0  0  0  0  0  0  0  0  0
    3.9176   -1.2408    0.0000 C   0  0  0  0  0  0  0  0  0  0  0  0
    3.2032   -0.8283    0.0000 C   0  0  0  0  0  0  0  0  0  0  0  0
    2.4887   -1.2408    0.0000 N   0  0  0  0  0  0  0  0  0  0  0  0
    1.7742   -0.8283    0.0000 C   0  0  0  0  0  0  0  0  0  0  0  0
    1.7742   -0.0033    0.0000 O   0  0  0  0  0  0  0  0  0  0  0  0
    1.0597   -1.2408    0.0000 C   0  0  0  0  0  0  0  0  0  0  0  0
    0.3061   -0.9052    0.0000 C   0  0  0  0  0  0  0  0  0  0  0  0
   -0.2460   -1.5183    0.0000 C   0  0  0  0  0  0  0  0  0  0  0  0
    0.1665   -2.2328    0.0000 C   0  0  0  0  0  0  0  0  0  0  0  0
    0.9735   -2.0612    0.0000 O   0  0  0  0  0  0  0  0  0  0  0  0
    2.4887   -2.0658    0.0000 C   0  0  0  0  0  0  0  0  0  0  0  0
    3.2032   -2.4783    0.0000 C   0  0  0  0  0  0  0  0  0  0  0  0
    5.3466   -2.0658    0.0000 N   0  0  0  0  0  0  0  0  0  0  0  0
    6.0610   -2.4783    0.0000 C   0  0  0  0  0  0  0  0  0  0  0  0
    6.7755   -2.0658    0.0000 C   0  0  0  0  0  0  0  0  0  0  0  0
    7.4900   -2.4783    0.0000 C   0  0  0  0  0  0  0  0  0  0  0  0
    8.2044   -2.0658    0.0000 O   0  0  0  0  0  0  0  0  0  0  0  0
    8.9189   -2.4783    0.0000 C   0  0  0  0  0  0  0  0  0  0  0  0
    7.4900   -3.3033    0.0000 C   0  0  0  0  0  0  0  0  0  0  0  0
    8.2044   -3.7158    0.0000 O   0  0  0  0  0  0  0  0  0  0  0  0
    8.9189   -3.3033    0.0000 C   0  0  0  0  0  0  0  0  0  0  0  0
    6.7755   -3.7158    0.0000 C   0  0  0  0  0  0  0  0  0  0  0  0
    6.0610   -3.3033    0.0000 C   0  0  0  0  0  0  0  0  0  0  0  0
    5.3466   -3.7158    0.0000 C   0  0  0  0  0  0  0  0  0  0  0  0
    5.3466   -4.5408    0.0000 N   0  0  0  0  0  0  0  0  0  0  0  0
    4.6321   -3.3033    0.0000 N   0  0  0  0  0  0  0  0  0  0  0  0
  1  2  1  0  0  0  0
  3  2  1  0  0  0  0
  4  3  1  0  0  0  0
  5  4  1  0  0  0  0
  5  6  1  0  0  0  0
  6  7  2  0  0  0  0
  6  8  1  0  0  0  0
  9  8  2  0  0  0  0
 10  9  1  0  0  0  0
 11 10  2  0  0  0  0
 12 11  1  0  0  0  0
  8 12  1  0  0  0  0
 13  5  1  0  0  0  0
 14 13  1  0  0  0  0
  2 14  1  0  0  0  0
 15  1  1  0  0  0  0
 16 15  2  0  0  0  0
 16 17  1  0  0  0  0
 17 18  2  0  0  0  0
 18 19  1  0  0  0  0
 19 20  1  0  0  0  0
 18 21  1  0  0  0  0
 21 22  1  0  0  0  0
 22 23  1  0  0  0  0
 21 24  2  0  0  0  0
 24 25  1  0  0  0  0
 25 16  1  0  0  0  0
 26 25  2  0  0  0  0
 26 27  1  0  0  0  0
 28 26  1  0  0  0  0
  1 28  2  0  0  0  0
M  END
> <ChemID>
10276

> <CAS>
19216-56-9

> <Original_SMILES>
COc1cc2c(N)[n]c([n]c2cc1OC)N1CCN(CC1)C(=O)c1ccco1

> <preferred_name>
Prazosin

> <dsstox_substance_id>
DTXSID4049082

> <dsstox_compound_id>
DTXCID0029008

> <Canonical_QSARr>
COC1=CC2=C(N)N=C(N=C2C=C1OC)N1CCN(CC1)C(=O)C1=CC=CO1

> <InChI_Code_QSARr>
InChI=1S/C19H21N5O4/c1-26-15-10-12-13(11-16(15)27-2)21-19(22-17(12)20)24-7-5-23(6-8-24)18(25)14-4-3-9-28-14/h3-4,9-11H,5-8H2,1-2H3,(H2,20,21,22)

> <InChI Key_QSARr>
IENZQIKPVFGBNW-UHFFFAOYSA-N

> <Salt_Solvent>


> <Salt_Solvent_ID>
0

> <Clint>
0.3617278360175928

> <Tr_1_Tst_0>
1

$$$$
Row435
  Mrv171c012261910192D          

 16 17  0  0  0  0            999 V2000
    0.3572   -0.2068    0.0000 C   0  0  0  0  0  0  0  0  0  0  0  0
   -0.3572    0.2057    0.0000 C   0  0  0  0  0  0  0  0  0  0  0  0
   -0.3572    1.0307    0.0000 C   0  0  0  0  0  0  0  0  0  0  0  0
   -1.0717    1.4432    0.0000 C   0  0  0  0  0  0  0  0  0  0  0  0
   -1.0717    2.2682    0.0000 Cl  0  0  0  0  0  0  0  0  0  0  0  0
   -1.7862    1.0307    0.0000 C   0  0  0  0  0  0  0  0  0  0  0  0
   -1.7862    0.2057    0.0000 C   0  0  0  0  0  0  0  0  0  0  0  0
   -2.5006   -0.2068    0.0000 Cl  0  0  0  0  0  0  0  0  0  0  0  0
   -1.0717   -0.2068    0.0000 C   0  0  0  0  0  0  0  0  0  0  0  0
    0.3572   -1.0318    0.0000 C   0  0  0  0  0  0  0  0  0  0  0  0
    1.0717   -1.4443    0.0000 C   0  0  0  0  0  0  0  0  0  0  0  0
    1.0717   -2.2693    0.0000 Cl  0  0  0  0  0  0  0  0  0  0  0  0
    1.7862   -1.0318    0.0000 C   0  0  0  0  0  0  0  0  0  0  0  0
    1.7862   -0.2068    0.0000 C   0  0  0  0  0  0  0  0  0  0  0  0
    2.5006    0.2057    0.0000 Cl  0  0  0  0  0  0  0  0  0  0  0  0
    1.0717    0.2057    0.0000 C   0  0  0  0  0  0  0  0  0  0  0  0
  1  2  1  0  0  0  0
  3  2  2  0  0  0  0
  4  3  1  0  0  0  0
  4  5  1  0  0  0  0
  6  4  2  0  0  0  0
  7  6  1  0  0  0  0
  7  8  1  0  0  0  0
  9  7  2  0  0  0  0
  2  9  1  0  0  0  0
 10  1  2  0  0  0  0
 11 10  1  0  0  0  0
 11 12  1  0  0  0  0
 13 11  2  0  0  0  0
 14 13  1  0  0  0  0
 14 15  1  0  0  0  0
 16 14  2  0  0  0  0
  1 16  1  0  0  0  0
M  END
> <ChemID>
10277

> <CAS>
33284-52-5

> <Original_SMILES>
Clc1cc(Cl)cc(c1)-c1cc(Cl)cc(Cl)c1

> <preferred_name>
3,3',5,5'-Tetrachlorobiphenyl

> <dsstox_substance_id>
DTXSID4058657

> <dsstox_compound_id>
DTXCID60769

> <Canonical_QSARr>
ClC1=CC(Cl)=CC(=C1)C1=CC(Cl)=CC(Cl)=C1

> <InChI_Code_QSARr>
InChI=1S/C12H6Cl4/c13-9-1-7(2-10(14)5-9)8-3-11(15)6-12(16)4-8/h1-6H

> <InChI Key_QSARr>
UTMWFJSRHLYRPY-UHFFFAOYSA-N

> <Salt_Solvent>


> <Salt_Solvent_ID>
0

> <Clint>
-4.47755576649368

> <Tr_1_Tst_0>
0

$$$$
Row174
  Mrv171c012261910192D          

 15 16  0  0  0  0            999 V2000
    2.6675   -2.8051    0.0000 O   0  0  0  0  0  0  0  0  0  0  0  0
    2.6675   -1.9801    0.0000 C   0  0  0  0  0  0  0  0  0  0  0  0
    3.3820   -1.5676    0.0000 C   0  0  0  0  0  0  0  0  0  0  0  0
    3.3820   -0.7426    0.0000 C   0  0  0  0  0  0  0  0  0  0  0  0
    2.6675   -0.3301    0.0000 C   0  0  0  0  0  0  0  0  0  0  0  0
    2.6675    0.4949    0.0000 Cl  0  0  0  0  0  0  0  0  0  0  0  0
    1.9530   -0.7426    0.0000 C   0  0  0  0  0  0  0  0  0  0  0  0
    1.9530   -1.5676    0.0000 C   0  0  0  0  0  0  0  0  0  0  0  0
    1.2386   -1.9801    0.0000 C   0  0  0  0  0  0  0  0  0  0  0  0
    1.2386   -2.8051    0.0000 C   0  0  0  0  0  0  0  0  0  0  0  0
    0.5241   -3.2176    0.0000 C   0  0  0  0  0  0  0  0  0  0  0  0
    0.5241   -4.0426    0.0000 C   0  0  0  0  0  0  0  0  0  0  0  0
    1.2386   -4.4551    0.0000 C   0  0  0  0  0  0  0  0  0  0  0  0
    1.9530   -4.0426    0.0000 C   0  0  0  0  0  0  0  0  0  0  0  0
    1.9530   -3.2176    0.0000 C   0  0  0  0  0  0  0  0  0  0  0  0
  1  2  1  0  0  0  0
  3  2  1  0  0  0  0
  4  3  2  0  0  0  0
  5  4  1  0  0  0  0
  5  6  1  0  0  0  0
  7  5  2  0  0  0  0
  8  7  1  0  0  0  0
  2  8  2  0  0  0  0
  8  9  1  0  0  0  0
  9 10  1  0  0  0  0
 11 10  1  0  0  0  0
 12 11  2  0  0  0  0
 13 12  1  0  0  0  0
 14 13  2  0  0  0  0
 15 14  1  0  0  0  0
 10 15  2  0  0  0  0
M  END
> <ChemID>
10278

> <CAS>
120-32-1

> <Original_SMILES>
Oc1ccc(Cl)cc1Cc1ccccc1

> <preferred_name>
Clorophene

> <dsstox_substance_id>
DTXSID5020154

> <dsstox_compound_id>
DTXCID30154

> <Canonical_QSARr>
OC1C=CC(Cl)=CC=1CC1C=CC=CC=1

> <InChI_Code_QSARr>
InChI=1S/C13H11ClO/c14-12-6-7-13(15)11(9-12)8-10-4-2-1-3-5-10/h1-7,9,15H,8H2

> <InChI Key_QSARr>
NCKMMSIFQUPKCK-UHFFFAOYSA-N

> <Salt_Solvent>


> <Salt_Solvent_ID>
0

> <Clint>
0.6989700043360187

> <Tr_1_Tst_0>
1

$$$$
Row354
  Mrv171c012261910192D          

 13 13  0  0  0  0            999 V2000
    3.0758   -0.8542    0.0000 C   0  0  0  0  0  0  0  0  0  0  0  0
    2.3614   -1.2667    0.0000 C   0  0  0  0  0  0  0  0  0  0  0  0
    1.6469   -0.8542    0.0000 C   0  0  0  0  0  0  0  0  0  0  0  0
    1.6469   -0.0292    0.0000 N   0  3  0  0  0  0  0  0  0  0  0  0
    0.9324    0.3833    0.0000 O   0  5  0  0  0  0  0  0  0  0  0  0
    2.3614    0.3833    0.0000 O   0  0  0  0  0  0  0  0  0  0  0  0
    0.9324   -1.2667    0.0000 C   0  0  0  0  0  0  0  0  0  0  0  0
    0.9324   -2.0917    0.0000 C   0  0  0  0  0  0  0  0  0  0  0  0
    1.6469   -2.5042    0.0000 C   0  0  0  0  0  0  0  0  0  0  0  0
    2.3614   -2.0917    0.0000 C   0  0  0  0  0  0  0  0  0  0  0  0
    3.0758   -2.5042    0.0000 N   0  3  0  0  0  0  0  0  0  0  0  0
    3.7903   -2.0917    0.0000 O   0  5  0  0  0  0  0  0  0  0  0  0
    3.0758   -3.3292    0.0000 O   0  0  0  0  0  0  0  0  0  0  0  0
  1  2  1  0  0  0  0
  3  2  1  0  0  0  0
  3  4  1  0  0  0  0
  4  5  1  0  0  0  0
  4  6  2  0  0  0  0
  7  3  2  0  0  0  0
  8  7  1  0  0  0  0
  9  8  2  0  0  0  0
 10  9  1  0  0  0  0
  2 10  2  0  0  0  0
 10 11  1  0  0  0  0
 11 12  1  0  0  0  0
 11 13  2  0  0  0  0
M  CHG  4   4   1   5  -1  11   1  12  -1
M  END
> <ChemID>
10279

> <CAS>
606-20-2

> <Original_SMILES>
Cc1c(cccc1[N+]([O-])=O)[N+]([O-])=O

> <preferred_name>
2,6-Dinitrotoluene

> <dsstox_substance_id>
DTXSID5020528

> <dsstox_compound_id>
DTXCID30528

> <Canonical_QSARr>
CC1C(=CC=CC=1[N+]([O-])=O)[N+]([O-])=O

> <InChI_Code_QSARr>
InChI=1S/C7H6N2O4/c1-5-6(8(10)11)3-2-4-7(5)9(12)13/h2-4H,1H3

> <InChI Key_QSARr>
XTRDKALNCIHHNI-UHFFFAOYSA-N

> <Salt_Solvent>


> <Salt_Solvent_ID>
0

> <Clint>
1.5395778833453089

> <Tr_1_Tst_0>
1

$$$$
Row200
  Mrv171c012261910192D          

 22 25  0  0  0  0            999 V2000
   -1.1374   -1.4406    0.0000 C   0  0  0  0  0  0  0  0  0  0  0  0
   -0.7775   -0.6982    0.0000 C   0  0  0  0  0  0  0  0  0  0  0  0
   -0.2457   -1.3289    0.0000 C   0  0  0  0  0  0  0  0  0  0  0  0
    0.5664   -1.1837    0.0000 C   0  0  0  0  0  0  0  0  0  0  0  0
    0.8467   -0.4078    0.0000 C   0  0  0  0  0  0  0  0  0  0  0  0
    1.6588   -0.2626    0.0000 C   0  0  0  0  0  0  0  0  0  0  0  0
    2.1907   -0.8933    0.0000 C   0  0  0  0  0  0  0  0  0  0  0  0
    3.0028   -0.7481    0.0000 C   0  0  0  0  0  0  0  0  0  0  0  0
    3.2831    0.0279    0.0000 C   0  0  0  0  0  0  0  0  0  0  0  0
    4.0952    0.1731    0.0000 O   0  0  0  0  0  0  0  0  0  0  0  0
    2.7512    0.6586    0.0000 C   0  0  0  0  0  0  0  0  0  0  0  0
    1.9391    0.5134    0.0000 C   0  0  0  0  0  0  0  0  0  0  0  0
    1.4073    1.1441    0.0000 C   0  0  0  0  0  0  0  0  0  0  0  0
    0.5952    0.9988    0.0000 C   0  0  0  0  0  0  0  0  0  0  0  0
    0.3149    0.2229    0.0000 C   0  0  0  0  0  0  0  0  0  0  0  0
   -0.4972    0.0777    0.0000 C   0  0  0  0  0  0  0  0  0  0  0  0
   -1.1486    0.5841    0.0000 C   0  0  0  0  0  0  0  0  0  0  0  0
   -1.8314    0.1211    0.0000 C   0  0  0  0  0  0  0  0  0  0  0  0
   -1.6021   -0.6714    0.0000 C   0  0  0  0  0  0  0  0  0  0  0  0
   -2.3630   -0.9903    0.0000 O   0  0  0  0  0  0  0  0  0  0  0  0
   -1.7235   -1.4874    0.0000 C   0  0  0  0  0  0  0  0  0  0  0  0
   -1.8449   -2.3034    0.0000 C   0  0  0  0  0  0  0  0  0  0  0  0
  1  2  1  0  0  0  0
  3  2  1  0  0  0  0
  4  3  1  0  0  0  0
  5  4  1  0  0  0  0
  5  6  1  0  0  0  0
  7  6  1  0  0  0  0
  8  7  2  0  0  0  0
  9  8  1  0  0  0  0
  9 10  1  0  0  0  0
 11  9  2  0  0  0  0
 12 11  1  0  0  0  0
  6 12  2  0  0  0  0
 12 13  1  0  0  0  0
 13 14  1  0  0  0  0
 14 15  1  0  0  0  0
 15  5  1  0  0  0  0
 16 15  1  0  0  0  0
 16  2  1  0  0  0  0
 17 16  1  0  0  0  0
 18 17  1  0  0  0  0
 19 18  1  0  0  0  0
  2 19  1  0  0  0  0
 19 20  1  0  0  0  0
 19 21  1  0  0  0  0
 21 22  3  0  0  0  0
M  END
> <ChemID>
10280

> <CAS>
57-63-6

> <Original_SMILES>
C[C@]12CC[C@H]3[C@@H](CCc4cc(O)ccc43)[C@@H]1CC[C@@]2(O)C#C

> <preferred_name>
17alpha-Ethinylestradiol

> <dsstox_substance_id>
DTXSID5020576

> <dsstox_compound_id>
DTXCID70576

> <Canonical_QSARr>
CC12CCC3C(CCC4C=C(O)C=CC=43)C1CCC2(O)C#C

> <InChI_Code_QSARr>
InChI=1S/C20H24O2/c1-3-20(22)11-9-18-17-6-4-13-12-14(21)5-7-15(13)16(17)8-10-19(18,20)2/h1,5,7,12,16-18,21-22H,4,6,8-11H2,2H3

> <InChI Key_QSARr>
BFPYWIDHMRZLRN-UHFFFAOYSA-N

> <Salt_Solvent>


> <Salt_Solvent_ID>
0

> <Clint>
0.8450980400142567

> <Tr_1_Tst_0>
1

$$$$
Row140
  Mrv171c012261910192D          

 28 28  0  0  0  0            999 V2000
    4.1649   -1.8641    0.0000 O   0  0  0  0  0  0  0  0  0  0  0  0
    4.1649   -2.6891    0.0000 C   0  0  0  0  0  0  0  0  0  0  0  0
    3.4505   -3.1016    0.0000 O   0  0  0  0  0  0  0  0  0  0  0  0
    2.7360   -2.6891    0.0000 C   0  0  0  0  0  0  0  0  0  0  0  0
    2.0215   -3.1016    0.0000 C   0  0  0  0  0  0  0  0  0  0  0  0
    2.0215   -3.9266    0.0000 C   0  0  0  0  0  0  0  0  0  0  0  0
    1.3070   -4.3391    0.0000 C   0  0  0  0  0  0  0  0  0  0  0  0
    1.3070   -2.6891    0.0000 C   0  0  0  0  0  0  0  0  0  0  0  0
    0.5926   -3.1016    0.0000 C   0  0  0  0  0  0  0  0  0  0  0  0
   -0.1219   -2.6891    0.0000 C   0  0  0  0  0  0  0  0  0  0  0  0
   -0.8364   -3.1016    0.0000 C   0  0  0  0  0  0  0  0  0  0  0  0
    4.8794   -3.1016    0.0000 C   0  0  0  0  0  0  0  0  0  0  0  0
    4.8794   -3.9266    0.0000 C   0  0  0  0  0  0  0  0  0  0  0  0
    5.5939   -4.3391    0.0000 C   0  0  0  0  0  0  0  0  0  0  0  0
    6.3083   -3.9266    0.0000 C   0  0  0  0  0  0  0  0  0  0  0  0
    6.3083   -3.1016    0.0000 C   0  0  0  0  0  0  0  0  0  0  0  0
    5.5939   -2.6891    0.0000 C   0  0  0  0  0  0  0  0  0  0  0  0
    5.5939   -1.8641    0.0000 C   0  0  0  0  0  0  0  0  0  0  0  0
    6.3083   -1.4516    0.0000 O   0  0  0  0  0  0  0  0  0  0  0  0
    7.0228   -1.8641    0.0000 C   0  0  0  0  0  0  0  0  0  0  0  0
    7.7373   -1.4516    0.0000 C   0  0  0  0  0  0  0  0  0  0  0  0
    7.7373   -0.6266    0.0000 C   0  0  0  0  0  0  0  0  0  0  0  0
    8.4518   -0.2141    0.0000 C   0  0  0  0  0  0  0  0  0  0  0  0
    8.4518   -1.8641    0.0000 C   0  0  0  0  0  0  0  0  0  0  0  0
    9.1662   -1.4516    0.0000 C   0  0  0  0  0  0  0  0  0  0  0  0
    9.8807   -1.8641    0.0000 C   0  0  0  0  0  0  0  0  0  0  0  0
   10.5952   -1.4516    0.0000 C   0  0  0  0  0  0  0  0  0  0  0  0
    4.8794   -1.4516    0.0000 O   0  0  0  0  0  0  0  0  0  0  0  0
  1  2  2  0  0  0  0
  2  3  1  0  0  0  0
  3  4  1  0  0  0  0
  4  5  1  0  0  0  0
  5  6  1  0  0  0  0
  6  7  1  0  0  0  0
  5  8  1  0  0  0  0
  8  9  1  0  0  0  0
  9 10  1  0  0  0  0
 10 11  1  0  0  0  0
  2 12  1  0  0  0  0
 13 12  1  0  0  0  0
 14 13  2  0  0  0  0
 15 14  1  0  0  0  0
 16 15  2  0  0  0  0
 17 16  1  0  0  0  0
 12 17  2  0  0  0  0
 17 18  1  0  0  0  0
 18 19  1  0  0  0  0
 19 20  1  0  0  0  0
 20 21  1  0  0  0  0
 21 22  1  0  0  0  0
 22 23  1  0  0  0  0
 21 24  1  0  0  0  0
 24 25  1  0  0  0  0
 25 26  1  0  0  0  0
 26 27  1  0  0  0  0
 18 28  2  0  0  0  0
M  END
> <ChemID>
10281

> <CAS>
117-81-7

> <Original_SMILES>
CCCCC(COC(=O)c1ccccc1C(=O)OCC(CCCC)CC)CC

> <preferred_name>
Di(2-ethylhexyl) phthalate

> <dsstox_substance_id>
DTXSID5020607

> <dsstox_compound_id>
DTXCID70607

> <Canonical_QSARr>
CCCCC(COC(=O)C1C=CC=CC=1C(=O)OCC(CCCC)CC)CC

> <InChI_Code_QSARr>
InChI=1S/C24H38O4/c1-5-9-13-19(7-3)17-27-23(25)21-15-11-12-16-22(21)24(26)28-18-20(8-4)14-10-6-2/h11-12,15-16,19-20H,5-10,13-14,17-18H2,1-4H3

> <InChI Key_QSARr>
BJQHLKABXJIVAM-UHFFFAOYSA-N

> <Salt_Solvent>


> <Salt_Solvent_ID>
0

> <Clint>
0.4232458739368078

> <Tr_1_Tst_0>
1

$$$$
Row217
  Mrv171c001112020422D          

 28 30  0  0  0  0            999 V2000
    0.0000   -3.3000    0.0000 N   0  3  0  0  0  0  0  0  0  0  0  0
    0.0000   -2.4750    0.0000 C   0  0  0  0  0  0  0  0  0  0  0  0
    0.7145   -2.0625    0.0000 C   0  0  0  0  0  0  0  0  0  0  0  0
    0.7145   -1.2375    0.0000 C   0  0  0  0  0  0  0  0  0  0  0  0
    0.0000   -0.8250    0.0000 C   0  0  0  0  0  0  0  0  0  0  0  0
    0.0000   -0.0000    0.0000 C   0  0  0  0  0  0  0  0  0  0  0  0
   -0.7145    0.4125    0.0000 C   0  0  0  0  0  0  0  0  0  0  0  0
   -0.7145    1.2375    0.0000 C   0  0  0  0  0  0  0  0  0  0  0  0
   -1.4289    1.6500    0.0000 C   0  0  0  0  0  0  0  0  0  0  0  0
   -2.1434    1.2375    0.0000 C   0  0  0  0  0  0  0  0  0  0  0  0
   -2.8579    1.6500    0.0000 N   0  0  0  0  0  0  0  0  0  0  0  0
   -3.5723    1.2375    0.0000 C   0  0  0  0  0  0  0  0  0  0  0  0
   -2.8579    2.4750    0.0000 C   0  0  0  0  0  0  0  0  0  0  0  0
   -2.1434    0.4125    0.0000 C   0  0  0  0  0  0  0  0  0  0  0  0
   -1.4289   -0.0000    0.0000 C   0  0  0  0  0  0  0  0  0  0  0  0
    0.7145    0.4125    0.0000 C   0  0  0  0  0  0  0  0  0  0  0  0
    1.4290    0.0000    0.0000 C   0  0  0  0  0  0  0  0  0  0  0  0
    2.1434    0.4125    0.0000 C   0  0  0  0  0  0  0  0  0  0  0  0
    2.1434    1.2375    0.0000 C   0  0  0  0  0  0  0  0  0  0  0  0
    2.8579    1.6500    0.0000 N   0  0  0  0  0  0  0  0  0  0  0  0
    2.8579    2.4750    0.0000 C   0  0  0  0  0  0  0  0  0  0  0  0
    3.5724    1.2375    0.0000 C   0  0  0  0  0  0  0  0  0  0  0  0
    1.4290    1.6500    0.0000 C   0  0  0  0  0  0  0  0  0  0  0  0
    0.7145    1.2375    0.0000 C   0  0  0  0  0  0  0  0  0  0  0  0
   -0.7145   -1.2375    0.0000 C   0  0  0  0  0  0  0  0  0  0  0  0
   -0.7145   -2.0625    0.0000 C   0  0  0  0  0  0  0  0  0  0  0  0
    0.7145   -3.7125    0.0000 C   0  0  0  0  0  0  0  0  0  0  0  0
   -0.7145   -3.7125    0.0000 C   0  0  0  0  0  0  0  0  0  0  0  0
  1  2  2  0  0  0  0
  3  2  1  0  0  0  0
  4  3  2  0  0  0  0
  5  4  1  0  0  0  0
  5  6  2  0  0  0  0
  6  7  1  0  0  0  0
  8  7  1  0  0  0  0
  9  8  2  0  0  0  0
 10  9  1  0  0  0  0
 10 11  1  0  0  0  0
 11 12  1  0  0  0  0
 11 13  1  0  0  0  0
 14 10  2  0  0  0  0
 15 14  1  0  0  0  0
  7 15  2  0  0  0  0
  6 16  1  0  0  0  0
 17 16  1  0  0  0  0
 18 17  2  0  0  0  0
 19 18  1  0  0  0  0
 19 20  1  0  0  0  0
 20 21  1  0  0  0  0
 20 22  1  0  0  0  0
 23 19  2  0  0  0  0
 24 23  1  0  0  0  0
 16 24  2  0  0  0  0
 25  5  1  0  0  0  0
 26 25  2  0  0  0  0
  2 26  1  0  0  0  0
  1 27  1  0  0  0  0
  1 28  1  0  0  0  0
M  CHG  1   1   1
M  END
> <ChemID>
10282

> <CAS>
548-62-9

> <Original_SMILES>
[Cl-].C[N+](C)=C1C=CC(C=C1)=C(c1ccc(cc1)N(C)C)c1ccc(cc1)N(C)C

> <preferred_name>
Gentian Violet

> <dsstox_substance_id>
DTXSID5020653

> <dsstox_compound_id>
DTXCID50653

> <Canonical_QSARr>
C[N+](C)=C1C=CC(C=C1)=C(C1C=CC(=CC=1)N(C)C)C1C=CC(=CC=1)N(C)C

> <InChI_Code_QSARr>
InChI=1S/C25H30N3/c1-26(2)22-13-7-19(8-14-22)25(20-9-15-23(16-10-20)27(3)4)21-11-17-24(18-12-21)28(5)6/h7-18H,1-6H3/q+1

> <InChI Key_QSARr>
LGLFFNDHMLKUMI-UHFFFAOYSA-N

> <Salt_Solvent>
[Cl-]

> <Salt_Solvent_ID>
170

> <Clint>
0.9202277114569283

> <Tr_1_Tst_0>
1

$$$$
Row542
  Mrv171c012261910192D          

 11 12  0  0  0  0            999 V2000
    0.8453   -0.0013    0.0000 O   0  0  0  0  0  0  0  0  0  0  0  0
    0.8453   -0.8263    0.0000 C   0  0  0  0  0  0  0  0  0  0  0  0
    1.5597   -1.2388    0.0000 C   0  0  0  0  0  0  0  0  0  0  0  0
    2.2742   -0.8263    0.0000 N   0  0  0  0  0  0  0  0  0  0  0  0
    2.9887   -1.2388    0.0000 C   0  0  0  0  0  0  0  0  0  0  0  0
    2.9887   -2.0638    0.0000 C   0  0  0  0  0  0  0  0  0  0  0  0
    2.2742   -2.4763    0.0000 C   0  0  0  0  0  0  0  0  0  0  0  0
    1.5597   -2.0638    0.0000 C   0  0  0  0  0  0  0  0  0  0  0  0
    0.8453   -2.4763    0.0000 C   0  0  0  0  0  0  0  0  0  0  0  0
    0.1308   -2.0638    0.0000 C   0  0  0  0  0  0  0  0  0  0  0  0
    0.1308   -1.2388    0.0000 C   0  0  0  0  0  0  0  0  0  0  0  0
  1  2  1  0  0  0  0
  3  2  1  0  0  0  0
  3  4  2  0  0  0  0
  4  5  1  0  0  0  0
  5  6  2  0  0  0  0
  6  7  1  0  0  0  0
  7  8  2  0  0  0  0
  8  3  1  0  0  0  0
  9  8  1  0  0  0  0
 10  9  2  0  0  0  0
 11 10  1  0  0  0  0
  2 11  2  0  0  0  0
M  END
> <ChemID>
10283

> <CAS>
148-24-3

> <Original_SMILES>
Oc1cccc2ccc[n]c21

> <preferred_name>
8-Hydroxyquinoline

> <dsstox_substance_id>
DTXSID5020730

> <dsstox_compound_id>
DTXCID30730

> <Canonical_QSARr>
OC1=CC=CC2=CC=CN=C21

> <InChI_Code_QSARr>
InChI=1S/C9H7NO/c11-8-5-1-3-7-4-2-6-10-9(7)8/h1-6,11H

> <InChI Key_QSARr>
MCJGNVYPOGVAJF-UHFFFAOYSA-N

> <Salt_Solvent>


> <Salt_Solvent_ID>
0

> <Clint>
1.8431081419996065

> <Tr_1_Tst_0>
0

$$$$
Row166
  Mrv171c012261910192D          

 15 15  0  0  0  0            999 V2000
    3.4310   -3.4649    0.0000 C   0  0  0  0  0  0  0  0  0  0  0  0
    2.7165   -3.0524    0.0000 C   0  0  0  0  0  0  0  0  0  0  0  0
    2.0021   -3.4649    0.0000 C   0  0  0  0  0  0  0  0  0  0  0  0
    2.0021   -4.2899    0.0000 O   0  0  0  0  0  0  0  0  0  0  0  0
    1.2876   -3.0524    0.0000 O   0  0  0  0  0  0  0  0  0  0  0  0
    2.7165   -2.2274    0.0000 C   0  0  0  0  0  0  0  0  0  0  0  0
    3.4310   -1.8149    0.0000 C   0  0  0  0  0  0  0  0  0  0  0  0
    3.4310   -0.9899    0.0000 C   0  0  0  0  0  0  0  0  0  0  0  0
    2.7165   -0.5774    0.0000 C   0  0  0  0  0  0  0  0  0  0  0  0
    2.7165    0.2476    0.0000 C   0  0  0  0  0  0  0  0  0  0  0  0
    3.4310    0.6601    0.0000 C   0  0  0  0  0  0  0  0  0  0  0  0
    3.4310    1.4851    0.0000 C   0  0  0  0  0  0  0  0  0  0  0  0
    4.1455    0.2476    0.0000 C   0  0  0  0  0  0  0  0  0  0  0  0
    2.0021   -0.9899    0.0000 C   0  0  0  0  0  0  0  0  0  0  0  0
    2.0021   -1.8149    0.0000 C   0  0  0  0  0  0  0  0  0  0  0  0
  1  2  1  0  0  0  0
  2  3  1  0  0  0  0
  3  4  1  0  0  0  0
  3  5  2  0  0  0  0
  2  6  1  0  0  0  0
  7  6  1  0  0  0  0
  8  7  2  0  0  0  0
  9  8  1  0  0  0  0
  9 10  1  0  0  0  0
 10 11  1  0  0  0  0
 11 12  1  0  0  0  0
 11 13  1  0  0  0  0
 14  9  2  0  0  0  0
 15 14  1  0  0  0  0
  6 15  2  0  0  0  0
M  END
> <ChemID>
10284

> <CAS>
15687-27-1

> <Original_SMILES>
CC(C)Cc1ccc(cc1)C(C)C(O)=O

> <preferred_name>
Ibuprofen

> <dsstox_substance_id>
DTXSID5020732

> <dsstox_compound_id>
DTXCID90732

> <Canonical_QSARr>
CC(C)CC1=CC=C(C=C1)C(C)C(O)=O

> <InChI_Code_QSARr>
InChI=1S/C13H18O2/c1-9(2)8-11-4-6-12(7-5-11)10(3)13(14)15/h4-7,9-10H,8H2,1-3H3,(H,14,15)

> <InChI Key_QSARr>
HEFNNWSXXWATRW-UHFFFAOYSA-N

> <Salt_Solvent>


> <Salt_Solvent_ID>
0

> <Clint>
0.6232492903979004

> <Tr_1_Tst_0>
1

$$$$
Row316
  Mrv171c012261910192D          

 29 31  0  0  0  0            999 V2000
   -0.8590   -0.9711    0.0000 C   0  0  0  0  0  0  0  0  0  0  0  0
   -0.8590   -0.1461    0.0000 C   0  0  0  0  0  0  0  0  0  0  0  0
   -0.1445    0.2664    0.0000 C   0  0  0  0  0  0  0  0  0  0  0  0
   -0.1445    1.0914    0.0000 C   0  0  0  0  0  0  0  0  0  0  0  0
    0.5700    1.5039    0.0000 C   0  0  0  0  0  0  0  0  0  0  0  0
    1.2844    1.0914    0.0000 C   0  0  0  0  0  0  0  0  0  0  0  0
    1.9989    1.5039    0.0000 C   0  0  0  0  0  0  0  0  0  0  0  0
    2.7134    1.0914    0.0000 O   0  0  0  0  0  0  0  0  0  0  0  0
    1.9989    2.3289    0.0000 C   0  0  0  0  0  0  0  0  0  0  0  0
    1.2844    2.7414    0.0000 C   0  0  0  0  0  0  0  0  0  0  0  0
    1.2844    3.5664    0.0000 O   0  0  0  0  0  0  0  0  0  0  0  0
    0.5700    2.3289    0.0000 O   0  0  0  0  0  0  0  0  0  0  0  0
   -1.5734    0.2664    0.0000 C   0  0  0  0  0  0  0  0  0  0  0  0
   -1.5734    1.0914    0.0000 C   0  0  0  0  0  0  0  0  0  0  0  0
   -2.2879   -0.1461    0.0000 C   0  0  0  0  0  0  0  0  0  0  0  0
   -2.2879   -0.9711    0.0000 C   0  0  0  0  0  0  0  0  0  0  0  0
   -1.5734   -1.3836    0.0000 C   0  0  0  0  0  0  0  0  0  0  0  0
   -1.5734   -2.2086    0.0000 C   0  0  0  0  0  0  0  0  0  0  0  0
   -0.8590   -2.6211    0.0000 C   0  0  0  0  0  0  0  0  0  0  0  0
   -0.8590   -3.4461    0.0000 C   0  0  0  0  0  0  0  0  0  0  0  0
   -0.1445   -2.2086    0.0000 C   0  0  0  0  0  0  0  0  0  0  0  0
   -0.1445   -1.3836    0.0000 C   0  0  0  0  0  0  0  0  0  0  0  0
    0.5700   -0.9711    0.0000 O   0  0  0  0  0  0  0  0  0  0  0  0
    1.2844   -1.3836    0.0000 C   0  0  0  0  0  0  0  0  0  0  0  0
    1.9989   -0.9711    0.0000 C   0  0  0  0  0  0  0  0  0  0  0  0
    1.9989   -0.1461    0.0000 C   0  0  0  0  0  0  0  0  0  0  0  0
    2.7134   -1.3836    0.0000 C   0  0  0  0  0  0  0  0  0  0  0  0
    2.7134   -2.2086    0.0000 C   0  0  0  0  0  0  0  0  0  0  0  0
    1.2844   -2.2086    0.0000 O   0  0  0  0  0  0  0  0  0  0  0  0
  2  1  1  0  0  0  0
  2  3  1  0  0  0  0
  3  4  1  0  0  0  0
  4  5  1  0  0  0  0
  6  5  1  0  0  0  0
  7  6  1  0  0  0  0
  7  8  1  0  0  0  0
  9  7  1  0  0  0  0
 10  9  1  0  0  0  0
 10 11  2  0  0  0  0
 12 10  1  0  0  0  0
  5 12  1  0  0  0  0
 13  2  1  0  0  0  0
 13 14  1  0  0  0  0
 15 13  1  0  0  0  0
 16 15  2  0  0  0  0
 17 16  1  0  0  0  0
 17  1  1  0  0  0  0
 18 17  2  0  0  0  0
 19 18  1  0  0  0  0
 19 20  1  0  0  0  0
 21 19  1  0  0  0  0
 22 21  1  0  0  0  0
  1 22  1  0  0  0  0
 22 23  1  0  0  0  0
 23 24  1  0  0  0  0
 24 25  1  0  0  0  0
 25 26  1  0  0  0  0
 25 27  1  0  0  0  0
 27 28  1  0  0  0  0
 24 29  2  0  0  0  0
M  END
> <ChemID>
10285

> <CAS>
75330-75-5

> <Original_SMILES>
CC[C@H](C)C(=O)O[C@H]1C[C@@H](C)C=C2C=C[C@H](C)[C@H](CC[C@@H]3C[C@@H](O)CC(=O)O3)[C@H]21

> <preferred_name>
Lovastatin

> <dsstox_substance_id>
DTXSID5020784

> <dsstox_compound_id>
DTXCID50784

> <Canonical_QSARr>
CCC(C)C(=O)OC1CC(C)C=C2C=CC(C)C(CCC3CC(O)CC(=O)O3)C21

> <InChI_Code_QSARr>
InChI=1S/C24H36O5/c1-5-15(3)24(27)29-21-11-14(2)10-17-7-6-16(4)20(23(17)21)9-8-19-12-18(25)13-22(26)28-19/h6-7,10,14-16,18-21,23,25H,5,8-9,11-13H2,1-4H3

> <InChI Key_QSARr>
PCZOHLXUXFIOCF-UHFFFAOYSA-N

> <Salt_Solvent>


> <Salt_Solvent_ID>
0

> <Clint>
1.3404441148401183

> <Tr_1_Tst_0>
1

$$$$
Row466
  Mrv171c012261910192D          

 16 16  0  0  0  0            999 V2000
    3.1108   -3.1397    0.0000 S   0  0  0  0  0  0  0  0  0  0  0  0
    3.7783   -2.6548    0.0000 P   0  0  0  0  0  0  0  0  0  0  0  0
    4.2632   -3.3222    0.0000 O   0  0  0  0  0  0  0  0  0  0  0  0
    3.9276   -4.0759    0.0000 C   0  0  0  0  0  0  0  0  0  0  0  0
    4.4457   -2.1698    0.0000 O   0  0  0  0  0  0  0  0  0  0  0  0
    5.1994   -2.5054    0.0000 C   0  0  0  0  0  0  0  0  0  0  0  0
    3.2934   -1.9873    0.0000 S   0  0  0  0  0  0  0  0  0  0  0  0
    3.6289   -1.2336    0.0000 C   0  0  0  0  0  0  0  0  0  0  0  0
    3.1440   -0.5662    0.0000 N   0  0  0  0  0  0  0  0  0  0  0  0
    3.3989    0.2184    0.0000 N   0  0  0  0  0  0  0  0  0  0  0  0
    2.7315    0.7033    0.0000 C   0  0  0  0  0  0  0  0  0  0  0  0
    2.7315    1.5283    0.0000 O   0  0  0  0  0  0  0  0  0  0  0  0
    2.0170    1.9408    0.0000 C   0  0  0  0  0  0  0  0  0  0  0  0
    2.0641    0.2184    0.0000 S   0  0  0  0  0  0  0  0  0  0  0  0
    2.3190   -0.5662    0.0000 C   0  0  0  0  0  0  0  0  0  0  0  0
    1.8341   -1.2336    0.0000 O   0  0  0  0  0  0  0  0  0  0  0  0
  1  2  2  0  0  0  0
  2  3  1  0  0  0  0
  3  4  1  0  0  0  0
  2  5  1  0  0  0  0
  5  6  1  0  0  0  0
  2  7  1  0  0  0  0
  7  8  1  0  0  0  0
  8  9  1  0  0  0  0
 10  9  1  0  0  0  0
 11 10  2  0  0  0  0
 11 12  1  0  0  0  0
 12 13  1  0  0  0  0
 14 11  1  0  0  0  0
 15 14  1  0  0  0  0
  9 15  1  0  0  0  0
 15 16  2  0  0  0  0
M  END
> <ChemID>
10286

> <CAS>
950-37-8

> <Original_SMILES>
COC1=NN(CSP(=S)(OC)OC)C(=O)S1

> <preferred_name>
Methidathion

> <dsstox_substance_id>
DTXSID5020819

> <dsstox_compound_id>
DTXCID70819

> <Canonical_QSARr>
COC1=NN(CSP(=S)(OC)OC)C(=O)S1

> <InChI_Code_QSARr>
InChI=1S/C6H11N2O4PS3/c1-10-5-7-8(6(9)16-5)4-15-13(14,11-2)12-3/h4H2,1-3H3

> <InChI Key_QSARr>
MEBQXILRKZHVCX-UHFFFAOYSA-N

> <Salt_Solvent>


> <Salt_Solvent_ID>
0

> <Clint>
0.5932860670204572

> <Tr_1_Tst_0>
0

$$$$
Row162
  Mrv171c012261910192D          

 17 18  0  0  0  0            999 V2000
    4.9610   -3.4941    0.0000 C   0  0  0  0  0  0  0  0  0  0  0  0
    4.2465   -3.0816    0.0000 C   0  0  0  0  0  0  0  0  0  0  0  0
    4.2465   -2.2566    0.0000 C   0  0  0  0  0  0  0  0  0  0  0  0
    3.5321   -1.8441    0.0000 C   0  0  0  0  0  0  0  0  0  0  0  0
    3.5321   -1.0191    0.0000 C   0  0  0  0  0  0  0  0  0  0  0  0
    2.8176   -0.6066    0.0000 C   0  0  0  0  0  0  0  0  0  0  0  0
    2.8176    0.2184    0.0000 C   0  0  0  0  0  0  0  0  0  0  0  0
    2.1031    0.6309    0.0000 C   0  0  0  0  0  0  0  0  0  0  0  0
    1.3887    0.2184    0.0000 C   0  0  0  0  0  0  0  0  0  0  0  0
    0.6742    0.6309    0.0000 N   0  0  0  0  0  0  0  0  0  0  0  0
    1.3887   -0.6066    0.0000 C   0  0  0  0  0  0  0  0  0  0  0  0
    0.6742   -1.0191    0.0000 C   0  0  0  0  0  0  0  0  0  0  0  0
    2.1031   -1.0191    0.0000 C   0  0  0  0  0  0  0  0  0  0  0  0
    2.8176   -2.2566    0.0000 C   0  0  0  0  0  0  0  0  0  0  0  0
    2.8176   -3.0816    0.0000 C   0  0  0  0  0  0  0  0  0  0  0  0
    3.5321   -3.4941    0.0000 C   0  0  0  0  0  0  0  0  0  0  0  0
    3.5321   -4.3191    0.0000 N   0  0  0  0  0  0  0  0  0  0  0  0
  1  2  1  0  0  0  0
  3  2  1  0  0  0  0
  4  3  2  0  0  0  0
  4  5  1  0  0  0  0
  5  6  1  0  0  0  0
  7  6  1  0  0  0  0
  8  7  2  0  0  0  0
  9  8  1  0  0  0  0
  9 10  1  0  0  0  0
 11  9  2  0  0  0  0
 11 12  1  0  0  0  0
 13 11  1  0  0  0  0
  6 13  2  0  0  0  0
 14  4  1  0  0  0  0
 15 14  2  0  0  0  0
 16 15  1  0  0  0  0
  2 16  2  0  0  0  0
 16 17  1  0  0  0  0
M  END
> <ChemID>
10287

> <CAS>
838-88-0

> <Original_SMILES>
Cc1cc(Cc2cc(C)c(N)cc2)ccc1N

> <preferred_name>
4,4'-Diamino-3,3'-dimethyldiphenylmethane

> <dsstox_substance_id>
DTXSID5020867

> <dsstox_compound_id>
DTXCID10867

> <Canonical_QSARr>
CC1C=C(CC2=CC(C)=C(N)C=C2)C=CC=1N

> <InChI_Code_QSARr>
InChI=1S/C15H18N2/c1-10-7-12(3-5-14(10)16)9-13-4-6-15(17)11(2)8-13/h3-8H,9,16-17H2,1-2H3

> <InChI Key_QSARr>
WECDUOXQLAIPQW-UHFFFAOYSA-N

> <Salt_Solvent>


> <Salt_Solvent_ID>
0

> <Clint>
0.600319329751661

> <Tr_1_Tst_0>
1

$$$$
Row512
  Mrv171c012261910192D          

 19 20  0  0  0  0            999 V2000
    2.6164   -1.6255    0.0000 C   0  0  0  0  0  0  0  0  0  0  0  0
    2.6164   -0.8005    0.0000 C   0  0  0  0  0  0  0  0  0  0  0  0
    3.3308   -0.3880    0.0000 C   0  0  0  0  0  0  0  0  0  0  0  0
    3.3308    0.4370    0.0000 C   0  0  0  0  0  0  0  0  0  0  0  0
    2.6164    0.8495    0.0000 C   0  0  0  0  0  0  0  0  0  0  0  0
    2.6164    1.6745    0.0000 N   0  0  0  0  0  0  0  0  0  0  0  0
    1.9019    2.0870    0.0000 C   0  0  0  0  0  0  0  0  0  0  0  0
    3.3308    2.0870    0.0000 C   0  0  0  0  0  0  0  0  0  0  0  0
    1.9019    0.4370    0.0000 C   0  0  0  0  0  0  0  0  0  0  0  0
    1.9019   -0.3880    0.0000 C   0  0  0  0  0  0  0  0  0  0  0  0
    3.3308   -2.0380    0.0000 C   0  0  0  0  0  0  0  0  0  0  0  0
    3.3308   -2.8630    0.0000 C   0  0  0  0  0  0  0  0  0  0  0  0
    4.0453   -3.2755    0.0000 C   0  0  0  0  0  0  0  0  0  0  0  0
    4.7598   -2.8630    0.0000 C   0  0  0  0  0  0  0  0  0  0  0  0
    5.4743   -3.2755    0.0000 N   0  0  0  0  0  0  0  0  0  0  0  0
    6.1887   -2.8630    0.0000 C   0  0  0  0  0  0  0  0  0  0  0  0
    5.4743   -4.1005    0.0000 C   0  0  0  0  0  0  0  0  0  0  0  0
    4.7598   -2.0380    0.0000 C   0  0  0  0  0  0  0  0  0  0  0  0
    4.0453   -1.6255    0.0000 C   0  0  0  0  0  0  0  0  0  0  0  0
  1  2  1  0  0  0  0
  3  2  1  0  0  0  0
  4  3  2  0  0  0  0
  5  4  1  0  0  0  0
  5  6  1  0  0  0  0
  6  7  1  0  0  0  0
  6  8  1  0  0  0  0
  9  5  2  0  0  0  0
 10  9  1  0  0  0  0
  2 10  2  0  0  0  0
  1 11  1  0  0  0  0
 12 11  1  0  0  0  0
 13 12  2  0  0  0  0
 14 13  1  0  0  0  0
 14 15  1  0  0  0  0
 15 16  1  0  0  0  0
 15 17  1  0  0  0  0
 18 14  2  0  0  0  0
 19 18  1  0  0  0  0
 11 19  2  0  0  0  0
M  END
> <ChemID>
10288

> <CAS>
101-61-1

> <Original_SMILES>
CN(C)c1ccc(Cc2ccc(cc2)N(C)C)cc1

> <preferred_name>
4,4'-Methylenebis(N,N-dimethylaniline)

> <dsstox_substance_id>
DTXSID5020869

> <dsstox_compound_id>
DTXCID70869

> <Canonical_QSARr>
CN(C)C1C=CC(CC2C=CC(=CC=2)N(C)C)=CC=1

> <InChI_Code_QSARr>
InChI=1S/C17H22N2/c1-18(2)16-9-5-14(6-10-16)13-15-7-11-17(12-8-15)19(3)4/h5-12H,13H2,1-4H3

> <InChI Key_QSARr>
JNRLEMMIVRBKJE-UHFFFAOYSA-N

> <Salt_Solvent>


> <Salt_Solvent_ID>
0

> <Clint>
1.2752191867821483

> <Tr_1_Tst_0>
0

$$$$
Row33
  Mrv171c012261910192D          

 33 36  0  0  0  0            999 V2000
   -2.1434    0.3859    0.0000 O   0  0  0  0  0  0  0  0  0  0  0  0
   -1.4289   -0.0266    0.0000 C   0  0  0  0  0  0  0  0  0  0  0  0
   -1.4289   -0.8516    0.0000 C   0  0  0  0  0  0  0  0  0  0  0  0
   -2.1434   -1.2641    0.0000 C   0  0  0  0  0  0  0  0  0  0  0  0
   -2.1434   -2.0891    0.0000 O   0  0  0  0  0  0  0  0  0  0  0  0
   -2.8579   -0.8516    0.0000 N   0  0  0  0  0  0  0  0  0  0  0  0
   -0.7145   -1.2641    0.0000 C   0  0  0  0  0  0  0  0  0  0  0  0
   -0.7145   -2.0891    0.0000 O   0  0  0  0  0  0  0  0  0  0  0  0
    0.0000   -0.8516    0.0000 C   0  0  0  0  0  0  0  0  0  0  0  0
    0.0000   -1.6766    0.0000 O   0  0  0  0  0  0  0  0  0  0  0  0
    0.7145   -1.2641    0.0000 C   0  0  0  0  0  0  0  0  0  0  0  0
    0.7145   -2.0891    0.0000 O   0  0  0  0  0  0  0  0  0  0  0  0
    1.4290   -0.8516    0.0000 C   0  0  0  0  0  0  0  0  0  0  0  0
    2.1434   -1.2641    0.0000 C   0  0  0  0  0  0  0  0  0  0  0  0
    2.1434   -2.0891    0.0000 O   0  0  0  0  0  0  0  0  0  0  0  0
    2.8579   -0.8516    0.0000 C   0  0  0  0  0  0  0  0  0  0  0  0
    2.8579   -0.0266    0.0000 C   0  0  0  0  0  0  0  0  0  0  0  0
    3.5724    0.3859    0.0000 C   0  0  0  0  0  0  0  0  0  0  0  0
    4.2868   -0.0266    0.0000 C   0  0  0  0  0  0  0  0  0  0  0  0
    4.2868   -0.8516    0.0000 C   0  0  0  0  0  0  0  0  0  0  0  0
    3.5724   -1.2641    0.0000 C   0  0  0  0  0  0  0  0  0  0  0  0
    3.5724   -2.0891    0.0000 O   0  0  0  0  0  0  0  0  0  0  0  0
    2.1434    0.3859    0.0000 C   0  0  0  0  0  0  0  0  0  0  0  0
    2.6737    1.0179    0.0000 O   0  0  0  0  0  0  0  0  0  0  0  0
    1.6131    1.0179    0.0000 C   0  0  0  0  0  0  0  0  0  0  0  0
    1.4290   -0.0266    0.0000 C   0  0  0  0  0  0  0  0  0  0  0  0
    0.7145    0.3859    0.0000 C   0  0  0  0  0  0  0  0  0  0  0  0
    0.7145    1.2109    0.0000 O   0  0  0  0  0  0  0  0  0  0  0  0
    0.0000   -0.0266    0.0000 C   0  0  0  0  0  0  0  0  0  0  0  0
   -0.7145    0.3859    0.0000 C   0  0  0  0  0  0  0  0  0  0  0  0
   -0.7145    1.2109    0.0000 N   0  0  0  0  0  0  0  0  0  0  0  0
   -1.4289    1.6234    0.0000 C   0  0  0  0  0  0  0  0  0  0  0  0
    0.0000    1.6234    0.0000 C   0  0  0  0  0  0  0  0  0  0  0  0
  1  2  2  0  0  0  0
  3  2  1  0  0  0  0
  3  4  1  0  0  0  0
  4  5  2  0  0  0  0
  4  6  1  0  0  0  0
  7  3  1  0  0  0  0
  7  8  2  0  0  0  0
  9  7  1  0  0  0  0
  9 10  1  0  0  0  0
  9 11  1  0  0  0  0
 11 12  2  0  0  0  0
 11 13  1  0  0  0  0
 14 13  1  0  0  0  0
 14 15  2  0  0  0  0
 16 14  1  0  0  0  0
 16 17  2  0  0  0  0
 17 18  1  0  0  0  0
 18 19  2  0  0  0  0
 19 20  1  0  0  0  0
 20 21  2  0  0  0  0
 21 16  1  0  0  0  0
 21 22  1  0  0  0  0
 23 17  1  0  0  0  0
 23 24  1  0  0  0  0
 23 25  1  0  0  0  0
 26 23  1  0  0  0  0
 13 26  1  0  0  0  0
 26 27  1  0  0  0  0
 27 28  1  0  0  0  0
 27 29  1  0  0  0  0
 29  9  1  0  0  0  0
 30 29  1  0  0  0  0
  2 30  1  0  0  0  0
 30 31  1  0  0  0  0
 31 32  1  0  0  0  0
 31 33  1  0  0  0  0
M  END
> <ChemID>
10289

> <CAS>
2058-46-0

> <Original_SMILES>
Cl.C[C@]1(O)[C@H]2[C@H](O)[C@H]3[C@@H](C(O)=C(C(N)=O)C(=O)[C@@]3(O)C(O)=C2C(=O)c2c1cccc2O)N(C)C

> <preferred_name>
Oxytetracycline hydrochloride

> <dsstox_substance_id>
DTXSID5021097

> <dsstox_compound_id>
DTXCID601097

> <Canonical_QSARr>
CC1(O)C2C(C(=O)C3=C1C=CC=C3O)C(=O)C1(O)C(C(C(=O)C(C(N)=O)C1=O)N(C)C)C2O

> <InChI_Code_QSARr>
InChI=1S/C22H24N2O9/c1-21(32)7-5-4-6-8(25)9(7)15(26)10-12(21)17(28)13-14(24(2)3)16(27)11(20(23)31)19(30)22(13,33)18(10)29/h4-6,10-14,17,25,28,32-33H,1-3H3,(H2,23,31)

> <InChI Key_QSARr>
TUEWQXNXQFRUTK-UHFFFAOYSA-N

> <Salt_Solvent>
Cl

> <Salt_Solvent_ID>
170

> <Clint>
-7.0

> <Tr_1_Tst_0>
1

$$$$
Row57
  Mrv171c012261910192D          

 17 18  0  0  0  0            999 V2000
    0.9109   -1.1827    0.0000 O   0  0  0  0  0  0  0  0  0  0  0  0
    1.6253   -1.5952    0.0000 C   0  0  0  0  0  0  0  0  0  0  0  0
    1.6253   -2.4202    0.0000 N   0  0  0  0  0  0  0  0  0  0  0  0
    2.3398   -2.8327    0.0000 C   0  0  0  0  0  0  0  0  0  0  0  0
    2.3398   -3.6577    0.0000 O   0  0  0  0  0  0  0  0  0  0  0  0
    3.0543   -2.4202    0.0000 N   0  0  0  0  0  0  0  0  0  0  0  0
    3.0543   -1.5952    0.0000 C   0  0  0  0  0  0  0  0  0  0  0  0
    3.7688   -1.1827    0.0000 O   0  0  0  0  0  0  0  0  0  0  0  0
    2.3398   -1.1827    0.0000 C   0  0  0  0  0  0  0  0  0  0  0  0
    2.7271   -0.4543    0.0000 C   0  0  0  0  0  0  0  0  0  0  0  0
    3.5516   -0.4255    0.0000 C   0  0  0  0  0  0  0  0  0  0  0  0
    1.9525   -0.4543    0.0000 C   0  0  0  0  0  0  0  0  0  0  0  0
    2.3897    0.2454    0.0000 C   0  0  0  0  0  0  0  0  0  0  0  0
    2.0024    0.9738    0.0000 C   0  0  0  0  0  0  0  0  0  0  0  0
    1.1779    1.0026    0.0000 C   0  0  0  0  0  0  0  0  0  0  0  0
    0.7407    0.3030    0.0000 C   0  0  0  0  0  0  0  0  0  0  0  0
    1.1280   -0.4255    0.0000 C   0  0  0  0  0  0  0  0  0  0  0  0
  1  2  2  0  0  0  0
  3  2  1  0  0  0  0
  4  3  1  0  0  0  0
  4  5  2  0  0  0  0
  6  4  1  0  0  0  0
  7  6  1  0  0  0  0
  7  8  2  0  0  0  0
  9  7  1  0  0  0  0
  2  9  1  0  0  0  0
  9 10  1  0  0  0  0
 10 11  1  0  0  0  0
  9 12  1  0  0  0  0
 13 12  1  0  0  0  0
 14 13  2  0  0  0  0
 15 14  1  0  0  0  0
 16 15  2  0  0  0  0
 17 16  1  0  0  0  0
 12 17  2  0  0  0  0
M  END
> <ChemID>
10290

> <CAS>
50-06-6

> <Original_SMILES>
CCC1(c2ccccc2)C(=O)NC(=O)NC1=O

> <preferred_name>
Phenobarbital

> <dsstox_substance_id>
DTXSID5021122

> <dsstox_compound_id>
DTXCID701122

> <Canonical_QSARr>
CCC1(C2C=CC=CC=2)C(=O)NC(=O)NC1=O

> <InChI_Code_QSARr>
InChI=1S/C12H12N2O3/c1-2-12(8-6-4-3-5-7-8)9(15)13-11(17)14-10(12)16/h3-7H,2H2,1H3,(H2,13,14,15,16,17)

> <InChI Key_QSARr>
DDBREPKUVSBGFI-UHFFFAOYSA-N

> <Salt_Solvent>


> <Salt_Solvent_ID>
0

> <Clint>
-7.0

> <Tr_1_Tst_0>
1

$$$$
Row183
  Mrv171c012261910192D          

  7  7  0  0  0  0            999 V2000
    1.4153    0.7000    0.0000 O   0  0  0  0  0  0  0  0  0  0  0  0
    1.4153   -0.1250    0.0000 C   0  0  0  0  0  0  0  0  0  0  0  0
    0.7009   -0.5375    0.0000 C   0  0  0  0  0  0  0  0  0  0  0  0
    0.7009   -1.3625    0.0000 C   0  0  0  0  0  0  0  0  0  0  0  0
    1.4153   -1.7750    0.0000 C   0  0  0  0  0  0  0  0  0  0  0  0
    2.1298   -1.3625    0.0000 C   0  0  0  0  0  0  0  0  0  0  0  0
    2.1298   -0.5375    0.0000 C   0  0  0  0  0  0  0  0  0  0  0  0
  1  2  1  0  0  0  0
  3  2  1  0  0  0  0
  4  3  2  0  0  0  0
  5  4  1  0  0  0  0
  6  5  2  0  0  0  0
  7  6  1  0  0  0  0
  2  7  2  0  0  0  0
M  END
> <ChemID>
10291

> <CAS>
108-95-2

> <Original_SMILES>
Oc1ccccc1

> <preferred_name>
Phenol

> <dsstox_substance_id>
DTXSID5021124

> <dsstox_compound_id>
DTXCID501124

> <Canonical_QSARr>
OC1C=CC=CC=1

> <InChI_Code_QSARr>
InChI=1S/C6H6O/c7-6-4-2-1-3-5-6/h1-5,7H

> <InChI Key_QSARr>
ISWSIDIOOBJBQZ-UHFFFAOYSA-N

> <Salt_Solvent>


> <Salt_Solvent_ID>
0

> <Clint>
0.740046724051494

> <Tr_1_Tst_0>
1

$$$$
Row103
  Mrv171c012261910192D          

 11 11  0  0  0  0            999 V2000
    0.6495    0.4500    0.0000 N   0  0  0  0  0  0  0  0  0  0  0  0
   -0.0649    0.8625    0.0000 C   0  0  0  0  0  0  0  0  0  0  0  0
   -0.0649    1.6875    0.0000 S   0  0  0  0  0  0  0  0  0  0  0  0
   -0.7794    0.4500    0.0000 N   0  0  0  0  0  0  0  0  0  0  0  0
   -0.7794   -0.3750    0.0000 C   0  0  0  0  0  0  0  0  0  0  0  0
   -1.4939   -0.7875    0.0000 O   0  0  0  0  0  0  0  0  0  0  0  0
   -0.0649   -0.7875    0.0000 C   0  0  0  0  0  0  0  0  0  0  0  0
    0.6495   -0.3750    0.0000 C   0  0  0  0  0  0  0  0  0  0  0  0
    1.3640   -0.7875    0.0000 C   0  0  0  0  0  0  0  0  0  0  0  0
    1.3640   -1.6125    0.0000 C   0  0  0  0  0  0  0  0  0  0  0  0
    2.0785   -2.0250    0.0000 C   0  0  0  0  0  0  0  0  0  0  0  0
  2  1  1  0  0  0  0
  2  3  2  0  0  0  0
  4  2  1  0  0  0  0
  5  4  1  0  0  0  0
  5  6  2  0  0  0  0
  7  5  1  0  0  0  0
  8  7  1  0  0  0  0
  1  8  2  0  0  0  0
  8  9  1  0  0  0  0
  9 10  1  0  0  0  0
 10 11  1  0  0  0  0
M  END
> <ChemID>
10292

> <CAS>
51-52-5

> <Original_SMILES>
CCCC1=CC(=O)NC(=S)N1

> <preferred_name>
6-Propyl-2-thiouracil

> <dsstox_substance_id>
DTXSID5021209

> <dsstox_compound_id>
DTXCID101209

> <Canonical_QSARr>
CCCC1CC(=O)NC(=S)N=1

> <InChI_Code_QSARr>
InChI=1S/C7H10N2OS/c1-2-3-5-4-6(10)9-7(11)8-5/h2-4H2,1H3,(H,9,10,11)

> <InChI Key_QSARr>
PEMYLVZMVSILDL-UHFFFAOYSA-N

> <Salt_Solvent>


> <Salt_Solvent_ID>
0

> <Clint>
0.12162549220847141

> <Tr_1_Tst_0>
1

$$$$
Row439
  Mrv171c012261910192D          

 13 14  0  0  0  0            999 V2000
    1.7669   -2.4826    0.0000 N   0  0  0  0  0  0  0  0  0  0  0  0
    1.7669   -3.3076    0.0000 C   0  0  0  0  0  0  0  0  0  0  0  0
    2.4814   -2.0701    0.0000 C   0  0  0  0  0  0  0  0  0  0  0  0
    3.1959   -2.4826    0.0000 O   0  0  0  0  0  0  0  0  0  0  0  0
    2.4814   -1.2451    0.0000 N   0  0  0  0  0  0  0  0  0  0  0  0
    3.1959   -0.8326    0.0000 C   0  0  0  0  0  0  0  0  0  0  0  0
    1.7669   -0.8326    0.0000 C   0  0  0  0  0  0  0  0  0  0  0  0
    1.7669   -0.0076    0.0000 O   0  0  0  0  0  0  0  0  0  0  0  0
    1.0525   -1.2451    0.0000 C   0  0  0  0  0  0  0  0  0  0  0  0
    0.2678   -0.9902    0.0000 N   0  0  0  0  0  0  0  0  0  0  0  0
   -0.2171   -1.6576    0.0000 C   0  0  0  0  0  0  0  0  0  0  0  0
    0.2678   -2.3251    0.0000 N   0  0  0  0  0  0  0  0  0  0  0  0
    1.0525   -2.0701    0.0000 C   0  0  0  0  0  0  0  0  0  0  0  0
  1  2  1  0  0  0  0
  3  1  1  0  0  0  0
  3  4  2  0  0  0  0
  5  3  1  0  0  0  0
  5  6  1  0  0  0  0
  7  5  1  0  0  0  0
  7  8  2  0  0  0  0
  9  7  1  0  0  0  0
  9 10  1  0  0  0  0
 10 11  1  0  0  0  0
 11 12  2  0  0  0  0
 12 13  1  0  0  0  0
  1 13  1  0  0  0  0
 13  9  2  0  0  0  0
M  END
> <ChemID>
10293

> <CAS>
58-55-9

> <Original_SMILES>
CN1C(=O)c2[nH]c[n]c2N(C)C1=O

> <preferred_name>
Theophylline

> <dsstox_substance_id>
DTXSID5021336

> <dsstox_compound_id>
DTXCID001336

> <Canonical_QSARr>
CN1C(=O)C2NC=NC=2N(C)C1=O

> <InChI_Code_QSARr>
InChI=1S/C7H8N4O2/c1-10-5-4(8-3-9-5)6(12)11(2)7(10)13/h3H,1-2H3,(H,8,9)

> <InChI Key_QSARr>
ZFXYFBGIUFBOJW-UHFFFAOYSA-N

> <Salt_Solvent>


> <Salt_Solvent_ID>
0

> <Clint>
-0.2839966563652008

> <Tr_1_Tst_0>
0

$$$$
Row299
  Mrv171c012261910192D          

 10 10  0  0  0  0            999 V2000
    3.0980   -0.6840    0.0000 O   0  0  0  0  0  0  0  0  0  0  0  0
    2.3835   -1.0965    0.0000 C   0  0  0  0  0  0  0  0  0  0  0  0
    1.6691   -0.6840    0.0000 C   0  0  0  0  0  0  0  0  0  0  0  0
    1.6691    0.1410    0.0000 Cl  0  0  0  0  0  0  0  0  0  0  0  0
    0.9546   -1.0965    0.0000 C   0  0  0  0  0  0  0  0  0  0  0  0
    0.9546   -1.9215    0.0000 C   0  0  0  0  0  0  0  0  0  0  0  0
    0.2401   -2.3340    0.0000 Cl  0  0  0  0  0  0  0  0  0  0  0  0
    1.6691   -2.3340    0.0000 C   0  0  0  0  0  0  0  0  0  0  0  0
    2.3835   -1.9215    0.0000 C   0  0  0  0  0  0  0  0  0  0  0  0
    3.0980   -2.3340    0.0000 Cl  0  0  0  0  0  0  0  0  0  0  0  0
  1  2  1  0  0  0  0
  3  2  1  0  0  0  0
  3  4  1  0  0  0  0
  5  3  2  0  0  0  0
  6  5  1  0  0  0  0
  6  7  1  0  0  0  0
  8  6  2  0  0  0  0
  9  8  1  0  0  0  0
  2  9  2  0  0  0  0
  9 10  1  0  0  0  0
M  END
> <ChemID>
10294

> <CAS>
88-06-2

> <Original_SMILES>
Oc1c(Cl)cc(Cl)cc1Cl

> <preferred_name>
2,4,6-Trichlorophenol

> <dsstox_substance_id>
DTXSID5021386

> <dsstox_compound_id>
DTXCID501386

> <Canonical_QSARr>
OC1C(Cl)=CC(Cl)=CC=1Cl

> <InChI_Code_QSARr>
InChI=1S/C6H3Cl3O/c7-3-1-4(8)6(10)5(9)2-3/h1-2,10H

> <InChI Key_QSARr>
LINPIYWFGCPVIE-UHFFFAOYSA-N

> <Salt_Solvent>


> <Salt_Solvent_ID>
0

> <Clint>
1.2731402240668117

> <Tr_1_Tst_0>
1

$$$$
Row283
  Mrv171c012261910192D          

 10 10  0  0  0  0            999 V2000
    0.0338   -2.6052    0.0000 C   0  0  0  0  0  0  0  0  0  0  0  0
    0.7483   -2.1927    0.0000 C   0  0  0  0  0  0  0  0  0  0  0  0
    1.4628   -2.6052    0.0000 C   0  0  0  0  0  0  0  0  0  0  0  0
    2.1772   -2.1927    0.0000 C   0  0  0  0  0  0  0  0  0  0  0  0
    2.1772   -1.3677    0.0000 C   0  0  0  0  0  0  0  0  0  0  0  0
    1.4628   -0.9552    0.0000 C   0  0  0  0  0  0  0  0  0  0  0  0
    1.4628   -0.1302    0.0000 N   0  3  0  0  0  0  0  0  0  0  0  0
    0.7483    0.2823    0.0000 O   0  5  0  0  0  0  0  0  0  0  0  0
    2.1772    0.2823    0.0000 O   0  0  0  0  0  0  0  0  0  0  0  0
    0.7483   -1.3677    0.0000 C   0  0  0  0  0  0  0  0  0  0  0  0
  1  2  1  0  0  0  0
  3  2  1  0  0  0  0
  4  3  2  0  0  0  0
  5  4  1  0  0  0  0
  6  5  2  0  0  0  0
  6  7  1  0  0  0  0
  7  8  1  0  0  0  0
  7  9  2  0  0  0  0
 10  6  1  0  0  0  0
  2 10  2  0  0  0  0
M  CHG  2   7   1   8  -1
M  END
> <ChemID>
10295

> <CAS>
99-08-1

> <Original_SMILES>
Cc1cc(ccc1)[N+]([O-])=O

> <preferred_name>
3-Nitrotoluene

> <dsstox_substance_id>
DTXSID5021831

> <dsstox_compound_id>
DTXCID001831

> <Canonical_QSARr>
CC1=CC(=CC=C1)[N+]([O-])=O

> <InChI_Code_QSARr>
InChI=1S/C7H7NO2/c1-6-3-2-4-7(5-6)8(9)10/h2-5H,1H3

> <InChI Key_QSARr>
QZYHIOPPLUPUJF-UHFFFAOYSA-N

> <Salt_Solvent>


> <Salt_Solvent_ID>
0

> <Clint>
1.225877628639518

> <Tr_1_Tst_0>
1

$$$$
Row298
  Mrv171c012261910192D          

 20 22  0  0  0  0            999 V2000
    3.6477   -1.9765    0.0000 C   0  0  0  0  0  0  0  0  0  0  0  0
    3.6477   -2.8015    0.0000 O   0  0  0  0  0  0  0  0  0  0  0  0
    2.9333   -1.5640    0.0000 C   0  0  0  0  0  0  0  0  0  0  0  0
    2.2188   -1.9765    0.0000 C   0  0  0  0  0  0  0  0  0  0  0  0
    1.5043   -1.5640    0.0000 C   0  0  0  0  0  0  0  0  0  0  0  0
    0.7899   -1.9765    0.0000 C   0  0  0  0  0  0  0  0  0  0  0  0
    0.7899   -2.8015    0.0000 C   0  0  0  0  0  0  0  0  0  0  0  0
    0.0754   -3.2140    0.0000 O   0  0  0  0  0  0  0  0  0  0  0  0
    1.5043   -3.2140    0.0000 C   0  0  0  0  0  0  0  0  0  0  0  0
    2.2188   -2.8015    0.0000 C   0  0  0  0  0  0  0  0  0  0  0  0
    2.9333   -0.7390    0.0000 C   0  0  0  0  0  0  0  0  0  0  0  0
    3.6477   -0.3265    0.0000 O   0  0  0  0  0  0  0  0  0  0  0  0
    4.3622   -0.7390    0.0000 C   0  0  0  0  0  0  0  0  0  0  0  0
    5.0767   -0.3265    0.0000 C   0  0  0  0  0  0  0  0  0  0  0  0
    5.7912   -0.7390    0.0000 C   0  0  0  0  0  0  0  0  0  0  0  0
    6.5056   -0.3265    0.0000 O   0  0  0  0  0  0  0  0  0  0  0  0
    5.7912   -1.5640    0.0000 C   0  0  0  0  0  0  0  0  0  0  0  0
    5.0767   -1.9765    0.0000 C   0  0  0  0  0  0  0  0  0  0  0  0
    5.0767   -2.8015    0.0000 O   0  0  0  0  0  0  0  0  0  0  0  0
    4.3622   -1.5640    0.0000 C   0  0  0  0  0  0  0  0  0  0  0  0
  1  2  2  0  0  0  0
  3  1  1  0  0  0  0
  3  4  1  0  0  0  0
  5  4  2  0  0  0  0
  6  5  1  0  0  0  0
  7  6  2  0  0  0  0
  7  8  1  0  0  0  0
  9  7  1  0  0  0  0
 10  9  2  0  0  0  0
  4 10  1  0  0  0  0
 11  3  2  0  0  0  0
 12 11  1  0  0  0  0
 13 12  1  0  0  0  0
 13 14  1  0  0  0  0
 14 15  2  0  0  0  0
 15 16  1  0  0  0  0
 15 17  1  0  0  0  0
 17 18  2  0  0  0  0
 18 19  1  0  0  0  0
 18 20  1  0  0  0  0
  1 20  1  0  0  0  0
 20 13  2  0  0  0  0
M  END
> <ChemID>
10296

> <CAS>
446-72-0

> <Original_SMILES>
Oc1cc(O)cc2OC=C(C(=O)c12)c1ccc(O)cc1

> <preferred_name>
Genistein

> <dsstox_substance_id>
DTXSID5022308

> <dsstox_compound_id>
DTXCID002308

> <Canonical_QSARr>
OC1=CC2OC=C(C(=O)C=2C(O)=C1)C1C=CC(O)=CC=1

> <InChI_Code_QSARr>
InChI=1S/C15H10O5/c16-9-3-1-8(2-4-9)11-7-20-13-6-10(17)5-12(18)14(13)15(11)19/h1-7,16-18H

> <InChI Key_QSARr>
TZBJGXHYKVUXJN-UHFFFAOYSA-N

> <Salt_Solvent>


> <Salt_Solvent_ID>
0

> <Clint>
1.2715163445116313

> <Tr_1_Tst_0>
1

$$$$
Row69
  Mrv171c012261910192D          

 16 17  0  0  0  0            999 V2000
    2.8868   -1.0175    0.0000 C   0  0  0  0  0  0  0  0  0  0  0  0
    3.6012   -0.6050    0.0000 C   0  0  0  0  0  0  0  0  0  0  0  0
    3.6012    0.2200    0.0000 C   0  0  0  0  0  0  0  0  0  0  0  0
    2.8868    0.6325    0.0000 C   0  0  0  0  0  0  0  0  0  0  0  0
    2.8868    1.4575    0.0000 Cl  0  0  0  0  0  0  0  0  0  0  0  0
    2.1723    0.2200    0.0000 C   0  0  0  0  0  0  0  0  0  0  0  0
    1.4578    0.6325    0.0000 Cl  0  0  0  0  0  0  0  0  0  0  0  0
    2.1723   -0.6050    0.0000 C   0  0  0  0  0  0  0  0  0  0  0  0
    2.8868   -1.8425    0.0000 C   0  0  0  0  0  0  0  0  0  0  0  0
    2.1723   -2.2550    0.0000 C   0  0  0  0  0  0  0  0  0  0  0  0
    2.1723   -3.0800    0.0000 C   0  0  0  0  0  0  0  0  0  0  0  0
    2.8868   -3.4925    0.0000 C   0  0  0  0  0  0  0  0  0  0  0  0
    2.8868   -4.3175    0.0000 Cl  0  0  0  0  0  0  0  0  0  0  0  0
    3.6012   -3.0800    0.0000 C   0  0  0  0  0  0  0  0  0  0  0  0
    4.3157   -3.4925    0.0000 Cl  0  0  0  0  0  0  0  0  0  0  0  0
    3.6012   -2.2550    0.0000 C   0  0  0  0  0  0  0  0  0  0  0  0
  2  1  1  0  0  0  0
  3  2  2  0  0  0  0
  4  3  1  0  0  0  0
  4  5  1  0  0  0  0
  6  4  2  0  0  0  0
  6  7  1  0  0  0  0
  8  6  1  0  0  0  0
  1  8  2  0  0  0  0
  1  9  1  0  0  0  0
 10  9  1  0  0  0  0
 11 10  2  0  0  0  0
 12 11  1  0  0  0  0
 12 13  1  0  0  0  0
 14 12  2  0  0  0  0
 14 15  1  0  0  0  0
 16 14  1  0  0  0  0
  9 16  2  0  0  0  0
M  END
> <ChemID>
10297

> <CAS>
32598-13-3

> <Original_SMILES>
Clc1ccc(cc1Cl)-c1cc(Cl)c(Cl)cc1

> <preferred_name>
3,3',4,4'-Tetrachlorobiphenyl

> <dsstox_substance_id>
DTXSID5022514

> <dsstox_compound_id>
DTXCID102514

> <Canonical_QSARr>
ClC1C=CC(=CC=1Cl)C1=CC(Cl)=C(Cl)C=C1

> <InChI_Code_QSARr>
InChI=1S/C12H6Cl4/c13-9-3-1-7(5-11(9)15)8-2-4-10(14)12(16)6-8/h1-6H

> <InChI Key_QSARr>
UQMGJOKDKOLIDP-UHFFFAOYSA-N

> <Salt_Solvent>


> <Salt_Solvent_ID>
0

> <Clint>
-4.165579296318467

> <Tr_1_Tst_0>
1

$$$$
Row188
  Mrv171c012261910192D          

 23 26  0  0  0  0            999 V2000
    0.0109   -4.0863    0.0000 C   0  0  0  0  0  0  0  0  0  0  0  0
    0.6157   -3.5252    0.0000 C   0  0  0  0  0  0  0  0  0  0  0  0
    1.4041   -3.7684    0.0000 C   0  0  0  0  0  0  0  0  0  0  0  0
    1.9184   -3.1234    0.0000 N   0  0  0  0  0  0  0  0  0  0  0  0
    2.7434   -3.1234    0.0000 C   0  0  0  0  0  0  0  0  0  0  0  0
    3.2578   -3.7684    0.0000 C   0  0  0  0  0  0  0  0  0  0  0  0
    4.0462   -3.5252    0.0000 C   0  0  0  0  0  0  0  0  0  0  0  0
    4.6509   -4.0863    0.0000 C   0  0  0  0  0  0  0  0  0  0  0  0
    4.4673   -4.8907    0.0000 C   0  0  0  0  0  0  0  0  0  0  0  0
    3.6790   -5.1338    0.0000 C   0  0  0  0  0  0  0  0  0  0  0  0
    3.0742   -4.5727    0.0000 C   0  0  0  0  0  0  0  0  0  0  0  0
    2.3309   -4.9306    0.0000 N   0  0  0  0  0  0  0  0  0  0  0  0
    1.5876   -4.5727    0.0000 C   0  0  0  0  0  0  0  0  0  0  0  0
    0.9829   -5.1338    0.0000 C   0  0  0  0  0  0  0  0  0  0  0  0
    0.1945   -4.8907    0.0000 C   0  0  0  0  0  0  0  0  0  0  0  0
    3.1014   -2.3801    0.0000 N   0  0  0  0  0  0  0  0  0  0  0  0
    3.9241   -2.3184    0.0000 C   0  0  0  0  0  0  0  0  0  0  0  0
    4.2820   -1.5751    0.0000 C   0  0  0  0  0  0  0  0  0  0  0  0
    3.8173   -0.8935    0.0000 N   0  0  0  0  0  0  0  0  0  0  0  0
    4.1752   -0.1502    0.0000 C   0  0  0  0  0  0  0  0  0  0  0  0
    2.9946   -0.9551    0.0000 C   0  0  0  0  0  0  0  0  0  0  0  0
    2.6366   -1.6984    0.0000 C   0  0  0  0  0  0  0  0  0  0  0  0
   -0.7774   -3.8432    0.0000 Cl  0  0  0  0  0  0  0  0  0  0  0  0
  2  1  1  0  0  0  0
  3  2  2  0  0  0  0
  3  4  1  0  0  0  0
  4  5  2  0  0  0  0
  5  6  1  0  0  0  0
  7  6  1  0  0  0  0
  8  7  2  0  0  0  0
  9  8  1  0  0  0  0
 10  9  2  0  0  0  0
 11 10  1  0  0  0  0
  6 11  2  0  0  0  0
 11 12  1  0  0  0  0
 12 13  1  0  0  0  0
 13  3  1  0  0  0  0
 14 13  2  0  0  0  0
 15 14  1  0  0  0  0
  1 15  2  0  0  0  0
  5 16  1  0  0  0  0
 17 16  1  0  0  0  0
 18 17  1  0  0  0  0
 19 18  1  0  0  0  0
 19 20  1  0  0  0  0
 21 19  1  0  0  0  0
 22 21  1  0  0  0  0
 16 22  1  0  0  0  0
  1 23  1  0  0  0  0
M  END
> <ChemID>
10298

> <CAS>
5786-21-0

> <Original_SMILES>
CN1CCN(CC1)C1=Nc2cc(Cl)ccc2Nc2ccccc21

> <preferred_name>
Clozapine

> <dsstox_substance_id>
DTXSID5022855

> <dsstox_compound_id>
DTXCID302855

> <Canonical_QSARr>
CN1CCN(CC1)C1=NC2=CC(Cl)=CC=C2NC2C=CC=CC=21

> <InChI_Code_QSARr>
InChI=1S/C18H19ClN4/c1-22-8-10-23(11-9-22)18-14-4-2-3-5-15(14)20-16-7-6-13(19)12-17(16)21-18/h2-7,12,20H,8-11H2,1H3

> <InChI Key_QSARr>
QZUDBNBUXVUHMW-UHFFFAOYSA-N

> <Salt_Solvent>


> <Salt_Solvent_ID>
0

> <Clint>
0.7781512503836435

> <Tr_1_Tst_0>
1

$$$$
Row431
  Mrv171c012261910192D          

 55 62  0  0  0  0            999 V2000
   10.6016   -5.6128    0.0000 O   0  0  0  0  0  0  0  0  0  0  0  0
    9.7895   -5.7580    0.0000 C   0  0  0  0  0  0  0  0  0  0  0  0
    9.2577   -5.1273    0.0000 C   0  0  0  0  0  0  0  0  0  0  0  0
    8.4456   -5.2726    0.0000 C   0  0  0  0  0  0  0  0  0  0  0  0
    8.1653   -6.0485    0.0000 C   0  0  0  0  0  0  0  0  0  0  0  0
    7.8850   -6.8244    0.0000 C   0  0  0  0  0  0  0  0  0  0  0  0
    7.3532   -6.1937    0.0000 C   0  0  0  0  0  0  0  0  0  0  0  0
    6.8213   -5.5630    0.0000 C   0  0  0  0  0  0  0  0  0  0  0  0
    7.1016   -4.7871    0.0000 C   0  0  0  0  0  0  0  0  0  0  0  0
    7.9138   -4.6418    0.0000 C   0  0  0  0  0  0  0  0  0  0  0  0
    6.0092   -5.7082    0.0000 C   0  0  0  0  0  0  0  0  0  0  0  0
    6.2069   -4.9072    0.0000 O   0  0  0  0  0  0  0  0  0  0  0  0
    5.7289   -6.4841    0.0000 C   0  0  0  0  0  0  0  0  0  0  0  0
    5.3690   -7.2265    0.0000 C   0  0  0  0  0  0  0  0  0  0  0  0
    4.9044   -6.4573    0.0000 C   0  0  0  0  0  0  0  0  0  0  0  0
    4.3980   -7.1086    0.0000 C   0  0  0  0  0  0  0  0  0  0  0  0
    3.5734   -7.0818    0.0000 C   0  0  0  0  0  0  0  0  0  0  0  0
    3.2931   -7.8578    0.0000 O   0  0  0  0  0  0  0  0  0  0  0  0
    3.9445   -8.3641    0.0000 C   0  0  0  0  0  0  0  0  0  0  0  0
    3.9177   -9.1887    0.0000 O   0  0  0  0  0  0  0  0  0  0  0  0
    4.6273   -7.9011    0.0000 C   0  0  0  0  0  0  0  0  0  0  0  0
    4.6750   -5.6648    0.0000 C   0  0  0  0  0  0  0  0  0  0  0  0
    5.3579   -5.2018    0.0000 C   0  0  0  0  0  0  0  0  0  0  0  0
    6.2607   -7.1148    0.0000 C   0  0  0  0  0  0  0  0  0  0  0  0
    5.9804   -7.8908    0.0000 O   0  0  0  0  0  0  0  0  0  0  0  0
    7.0729   -6.9696    0.0000 C   0  0  0  0  0  0  0  0  0  0  0  0
    8.6971   -6.6792    0.0000 C   0  0  0  0  0  0  0  0  0  0  0  0
    9.5092   -6.5340    0.0000 C   0  0  0  0  0  0  0  0  0  0  0  0
   10.8819   -4.8369    0.0000 C   0  0  0  0  0  0  0  0  0  0  0  0
   11.6941   -4.6917    0.0000 O   0  0  0  0  0  0  0  0  0  0  0  0
   11.9744   -3.9158    0.0000 C   0  0  0  0  0  0  0  0  0  0  0  0
   12.7865   -3.7706    0.0000 C   0  0  0  0  0  0  0  0  0  0  0  0
   11.4425   -3.2851    0.0000 C   0  0  0  0  0  0  0  0  0  0  0  0
   11.7228   -2.5091    0.0000 O   0  0  0  0  0  0  0  0  0  0  0  0
   11.1910   -1.8784    0.0000 C   0  0  0  0  0  0  0  0  0  0  0  0
   11.4713   -1.1025    0.0000 C   0  0  0  0  0  0  0  0  0  0  0  0
   10.9395   -0.4718    0.0000 C   0  0  0  0  0  0  0  0  0  0  0  0
   11.2198    0.3041    0.0000 O   0  0  0  0  0  0  0  0  0  0  0  0
   10.1274   -0.6170    0.0000 C   0  0  0  0  0  0  0  0  0  0  0  0
    9.5956    0.0137    0.0000 O   0  0  0  0  0  0  0  0  0  0  0  0
    8.7834   -0.1315    0.0000 C   0  0  0  0  0  0  0  0  0  0  0  0
    8.2516    0.4992    0.0000 O   0  0  0  0  0  0  0  0  0  0  0  0
    7.4395    0.3540    0.0000 C   0  0  0  0  0  0  0  0  0  0  0  0
    6.9077    0.9847    0.0000 C   0  0  0  0  0  0  0  0  0  0  0  0
    7.1592   -0.4220    0.0000 C   0  0  0  0  0  0  0  0  0  0  0  0
    6.3471   -0.5672    0.0000 O   0  0  0  0  0  0  0  0  0  0  0  0
    7.6910   -1.0527    0.0000 C   0  0  0  0  0  0  0  0  0  0  0  0
    7.4107   -1.8286    0.0000 O   0  0  0  0  0  0  0  0  0  0  0  0
    8.5031   -0.9074    0.0000 C   0  0  0  0  0  0  0  0  0  0  0  0
    9.8471   -1.3929    0.0000 C   0  0  0  0  0  0  0  0  0  0  0  0
    9.0350   -1.5382    0.0000 C   0  0  0  0  0  0  0  0  0  0  0  0
   10.3789   -2.0236    0.0000 O   0  0  0  0  0  0  0  0  0  0  0  0
   10.6304   -3.4303    0.0000 C   0  0  0  0  0  0  0  0  0  0  0  0
   10.0986   -2.7996    0.0000 O   0  0  0  0  0  0  0  0  0  0  0  0
   10.3501   -4.2062    0.0000 C   0  0  0  0  0  0  0  0  0  0  0  0
  1  2  1  0  0  0  0
  3  2  1  0  0  0  0
  4  3  1  0  0  0  0
  4  5  1  0  0  0  0
  5  6  1  0  0  0  0
  5  7  1  0  0  0  0
  8  7  1  0  0  0  0
  8  9  1  0  0  0  0
  9 10  1  0  0  0  0
 10  4  1  0  0  0  0
 11  8  1  0  0  0  0
 11 12  1  0  0  0  0
 11 13  1  0  0  0  0
 13 14  1  0  0  0  0
 13 15  1  0  0  0  0
 15 16  1  0  0  0  0
 17 16  1  0  0  0  0
 18 17  1  0  0  0  0
 19 18  1  0  0  0  0
 19 20  2  0  0  0  0
 21 19  1  0  0  0  0
 16 21  2  0  0  0  0
 15 22  1  0  0  0  0
 22 23  1  0  0  0  0
 23 11  1  0  0  0  0
 24 13  1  0  0  0  0
 24 25  1  0  0  0  0
 26 24  1  0  0  0  0
  7 26  1  0  0  0  0
 27  5  1  0  0  0  0
 28 27  1  0  0  0  0
  2 28  1  0  0  0  0
  1 29  1  0  0  0  0
 30 29  1  0  0  0  0
 31 30  1  0  0  0  0
 31 32  1  0  0  0  0
 33 31  1  0  0  0  0
 33 34  1  0  0  0  0
 34 35  1  0  0  0  0
 36 35  1  0  0  0  0
 37 36  1  0  0  0  0
 37 38  1  0  0  0  0
 39 37  1  0  0  0  0
 39 40  1  0  0  0  0
 40 41  1  0  0  0  0
 42 41  1  0  0  0  0
 43 42  1  0  0  0  0
 43 44  1  0  0  0  0
 45 43  1  0  0  0  0
 45 46  1  0  0  0  0
 47 45  1  0  0  0  0
 47 48  1  0  0  0  0
 49 47  1  0  0  0  0
 41 49  1  0  0  0  0
 50 39  1  0  0  0  0
 50 51  1  0  0  0  0
 52 50  1  0  0  0  0
 35 52  1  0  0  0  0
 53 33  1  0  0  0  0
 53 54  1  0  0  0  0
 55 53  1  0  0  0  0
 29 55  1  0  0  0  0
M  END
> <ChemID>
10299

> <CAS>
20830-75-5

> <Original_SMILES>
C[C@]12CC[C@@H](C[C@H]1CC[C@@H]1[C@@H]2C[C@@H](O)[C@]2(C)[C@H](CC[C@@]21O)C1COC(=O)C=1)O[C@H]1C[C@H](O)[C@H](O[C@H]2C[C@H](O)[C@H](O[C@H]3C[C@H](O)[C@H](O)[C@@H](C)O3)[C@@H](C)O2)[C@@H](C)O1

> <preferred_name>
Digoxin

> <dsstox_substance_id>
DTXSID5022934

> <dsstox_compound_id>
DTXCID502934

> <Canonical_QSARr>
CC12CCC(CC1CCC1C2CC(O)C2(C)C(CCC21O)C1COC(=O)C=1)OC1CC(O)C(OC2CC(O)C(OC3CC(O)C(O)C(C)O3)C(C)O2)C(C)O1

> <InChI_Code_QSARr>
InChI=1S/C41H64O14/c1-19-36(47)28(42)15-34(50-19)54-38-21(3)52-35(17-30(38)44)55-37-20(2)51-33(16-29(37)43)53-24-8-10-39(4)23(13-24)6-7-26-27(39)14-31(45)40(5)25(9-11-41(26,40)48)22-12-32(46)49-18-22/h12,19-21,23-31,33-38,42-45,47-48H,6-11,13-18H2,1-5H3

> <InChI Key_QSARr>
LTMHDMANZUZIPE-UHFFFAOYSA-N

> <Salt_Solvent>


> <Salt_Solvent_ID>
0

> <Clint>
-7.0

> <Tr_1_Tst_0>
0

$$$$
Row60
  Mrv171c012261910192D          

 20 20  0  0  0  0            999 V2000
    3.3484   -1.7827    0.0000 C   0  0  0  0  0  0  0  0  0  0  0  0
    3.4346   -0.9622    0.0000 C   0  0  0  0  0  0  0  0  0  0  0  0
    4.1491   -0.5497    0.0000 C   0  0  0  0  0  0  0  0  0  0  0  0
    4.8635   -0.9622    0.0000 S   0  0  0  0  0  0  0  0  0  0  0  0
    5.5780   -0.5497    0.0000 C   0  0  0  0  0  0  0  0  0  0  0  0
    6.2925   -0.9622    0.0000 C   0  0  0  0  0  0  0  0  0  0  0  0
    7.0070   -0.5497    0.0000 C   0  0  0  0  0  0  0  0  0  0  0  0
    7.7214   -0.9622    0.0000 N   0  0  0  0  0  0  0  0  0  0  0  0
    8.4359   -0.5497    0.0000 S   0  0  0  0  0  0  0  0  0  0  0  0
    9.1504   -0.1372    0.0000 O   0  0  0  0  0  0  0  0  0  0  0  0
    8.0234    0.1648    0.0000 O   0  0  0  0  0  0  0  0  0  0  0  0
    8.8484   -1.2642    0.0000 N   0  0  0  0  0  0  0  0  0  0  0  0
    7.0070    0.2753    0.0000 N   0  0  0  0  0  0  0  0  0  0  0  0
    2.6809   -0.6266    0.0000 N   0  0  0  0  0  0  0  0  0  0  0  0
    2.1289   -1.2397    0.0000 C   0  0  0  0  0  0  0  0  0  0  0  0
    1.3084   -1.1535    0.0000 N   0  0  0  0  0  0  0  0  0  0  0  0
    0.8235   -1.8209    0.0000 C   0  0  0  0  0  0  0  0  0  0  0  0
    1.1590   -2.5746    0.0000 N   0  0  0  0  0  0  0  0  0  0  0  0
    0.0030   -1.7347    0.0000 N   0  0  0  0  0  0  0  0  0  0  0  0
    2.5414   -1.9542    0.0000 S   0  0  0  0  0  0  0  0  0  0  0  0
  2  1  2  0  0  0  0
  2  3  1  0  0  0  0
  3  4  1  0  0  0  0
  4  5  1  0  0  0  0
  5  6  1  0  0  0  0
  6  7  1  0  0  0  0
  7  8  2  0  0  0  0
  8  9  1  4  0  0  0
  9 10  2  0  0  0  0
  9 11  2  0  0  0  0
  9 12  1  0  0  0  0
  7 13  1  0  0  0  0
 14  2  1  0  0  0  0
 15 14  2  0  0  0  0
 15 16  1  0  0  0  0
 16 17  2  0  0  0  0
 17 18  1  0  0  0  0
 17 19  1  0  0  0  0
 20 15  1  0  0  0  0
  1 20  1  0  0  0  0
M  END
> <ChemID>
10300

> <CAS>
76824-35-6

> <Original_SMILES>
NC(N)=Nc1[n]c(CSCCC(N)=NS(N)(=O)=O)c[s]1

> <preferred_name>
Famotidine

> <dsstox_substance_id>
DTXSID5023039

> <dsstox_compound_id>
DTXCID803039

> <Canonical_QSARr>
NC(N)=NC1=NC(CSCCC(N)=NS(N)(=O)=O)=CS1

> <InChI_Code_QSARr>
InChI=1S/C8H15N7O2S3/c9-6(15-20(12,16)17)1-2-18-3-5-4-19-8(13-5)14-7(10)11/h4H,1-3H2,(H2,9,15)(H2,12,16,17)(H4,10,11,13,14)

> <InChI Key_QSARr>
XUFQPHANEAPEMJ-UHFFFAOYSA-N

> <Salt_Solvent>


> <Salt_Solvent_ID>
0

> <Clint>
-6.443697499232711

> <Tr_1_Tst_0>
1

$$$$
Row136
  Mrv171c012261910192D          

 17 18  0  0  0  0            999 V2000
    2.6478   -4.1979    0.0000 C   0  0  0  0  0  0  0  0  0  0  0  0
    2.6478   -3.3729    0.0000 C   0  0  0  0  0  0  0  0  0  0  0  0
    1.9333   -2.9604    0.0000 C   0  0  0  0  0  0  0  0  0  0  0  0
    1.9333   -2.1354    0.0000 C   0  0  0  0  0  0  0  0  0  0  0  0
    1.2188   -1.7229    0.0000 C   0  0  0  0  0  0  0  0  0  0  0  0
    1.2188   -0.8979    0.0000 N   0  0  0  0  0  0  0  0  0  0  0  0
    0.5043   -0.4854    0.0000 C   0  0  0  0  0  0  0  0  0  0  0  0
   -0.2101   -0.8979    0.0000 C   0  0  0  0  0  0  0  0  0  0  0  0
   -0.2101   -1.7229    0.0000 C   0  0  0  0  0  0  0  0  0  0  0  0
    0.5043   -2.1354    0.0000 C   0  0  0  0  0  0  0  0  0  0  0  0
    2.6478   -1.7229    0.0000 C   0  0  0  0  0  0  0  0  0  0  0  0
    2.6478   -0.8979    0.0000 O   0  0  0  0  0  0  0  0  0  0  0  0
    3.3622   -0.4854    0.0000 C   0  0  0  0  0  0  0  0  0  0  0  0
    3.3622   -2.1354    0.0000 O   0  0  0  0  0  0  0  0  0  0  0  0
    1.2188   -3.3729    0.0000 C   0  0  0  0  0  0  0  0  0  0  0  0
    1.2188   -4.1979    0.0000 C   0  0  0  0  0  0  0  0  0  0  0  0
    1.9333   -4.6104    0.0000 C   0  0  0  0  0  0  0  0  0  0  0  0
  2  1  1  0  0  0  0
  3  2  2  0  0  0  0
  3  4  1  0  0  0  0
  4  5  1  0  0  0  0
  6  5  1  0  0  0  0
  7  6  1  0  0  0  0
  8  7  1  0  0  0  0
  9  8  1  0  0  0  0
 10  9  1  0  0  0  0
  5 10  1  0  0  0  0
  4 11  1  0  0  0  0
 11 12  1  0  0  0  0
 12 13  1  0  0  0  0
 11 14  2  0  0  0  0
 15  3  1  0  0  0  0
 16 15  2  0  0  0  0
 17 16  1  0  0  0  0
  1 17  2  0  0  0  0
M  END
> <ChemID>
10301

> <CAS>
113-45-1

> <Original_SMILES>
COC(=O)C(C1CCCCN1)c1ccccc1

> <preferred_name>
Methylphenidate

> <dsstox_substance_id>
DTXSID5023299

> <dsstox_compound_id>
DTXCID003299

> <Canonical_QSARr>
COC(=O)C(C1CCCCN1)C1C=CC=CC=1

> <InChI_Code_QSARr>
InChI=1S/C14H19NO2/c1-17-14(16)13(11-7-3-2-4-8-11)12-9-5-6-10-15-12/h2-4,7-8,12-13,15H,5-6,9-10H2,1H3

> <InChI Key_QSARr>
DUGOZIWVEXMGBE-UHFFFAOYSA-N

> <Salt_Solvent>


> <Salt_Solvent_ID>
0

> <Clint>
0.3996737214810381

> <Tr_1_Tst_0>
1

$$$$
Row199
  Mrv171c012261910192D          

 23 26  0  0  0  0            999 V2000
    1.8997   -0.4336    0.0000 C   0  0  0  0  0  0  0  0  0  0  0  0
    2.7197   -0.5246    0.0000 C   0  0  0  0  0  0  0  0  0  0  0  0
    3.0508   -1.2802    0.0000 C   0  0  0  0  0  0  0  0  0  0  0  0
    3.8752   -1.2480    0.0000 N   0  0  0  0  0  0  0  0  0  0  0  0
    4.3025   -0.5423    0.0000 C   0  0  0  0  0  0  0  0  0  0  0  0
    3.9827    0.2182    0.0000 C   0  0  0  0  0  0  0  0  0  0  0  0
    5.1057   -0.7306    0.0000 N   0  0  0  0  0  0  0  0  0  0  0  0
    5.1749   -1.5527    0.0000 C   0  0  0  0  0  0  0  0  0  0  0  0
    4.4144   -1.8725    0.0000 C   0  0  0  0  0  0  0  0  0  0  0  0
    4.2623   -2.6833    0.0000 C   0  0  0  0  0  0  0  0  0  0  0  0
    3.5336   -3.0700    0.0000 N   0  0  0  0  0  0  0  0  0  0  0  0
    2.7769   -2.7414    0.0000 C   0  0  0  0  0  0  0  0  0  0  0  0
    2.1524   -3.2805    0.0000 C   0  0  0  0  0  0  0  0  0  0  0  0
    1.3733   -3.0093    0.0000 C   0  0  0  0  0  0  0  0  0  0  0  0
    1.2186   -2.1990    0.0000 F   0  0  0  0  0  0  0  0  0  0  0  0
    0.7488   -3.5485    0.0000 C   0  0  0  0  0  0  0  0  0  0  0  0
    0.9035   -4.3589    0.0000 C   0  0  0  0  0  0  0  0  0  0  0  0
    1.6827   -4.6301    0.0000 C   0  0  0  0  0  0  0  0  0  0  0  0
    2.3071   -4.0909    0.0000 C   0  0  0  0  0  0  0  0  0  0  0  0
    2.5620   -1.9448    0.0000 C   0  0  0  0  0  0  0  0  0  0  0  0
    1.7421   -1.8538    0.0000 C   0  0  0  0  0  0  0  0  0  0  0  0
    1.4109   -1.0982    0.0000 C   0  0  0  0  0  0  0  0  0  0  0  0
    0.5910   -1.0072    0.0000 Cl  0  0  0  0  0  0  0  0  0  0  0  0
  2  1  1  0  0  0  0
  3  2  2  0  0  0  0
  3  4  1  0  0  0  0
  5  4  1  0  0  0  0
  5  6  1  0  0  0  0
  7  5  2  0  0  0  0
  8  7  1  0  0  0  0
  9  8  2  0  0  0  0
  4  9  1  0  0  0  0
  9 10  1  0  0  0  0
 10 11  1  0  0  0  0
 11 12  2  0  0  0  0
 12 13  1  0  0  0  0
 14 13  1  0  0  0  0
 14 15  1  0  0  0  0
 16 14  2  0  0  0  0
 17 16  1  0  0  0  0
 18 17  2  0  0  0  0
 19 18  1  0  0  0  0
 13 19  2  0  0  0  0
 12 20  1  0  0  0  0
 20  3  1  0  0  0  0
 21 20  2  0  0  0  0
 22 21  1  0  0  0  0
  1 22  2  0  0  0  0
 22 23  1  0  0  0  0
M  END
> <ChemID>
10302

> <CAS>
59467-70-8

> <Original_SMILES>
Cc1[n]cc2CN=C(c3ccccc3F)c3cc(Cl)ccc3-[n]21

> <preferred_name>
Midazolam

> <dsstox_substance_id>
DTXSID5023320

> <dsstox_compound_id>
DTXCID503320

> <Canonical_QSARr>
CC1=NC=C2CN=C(C3=CC=CC=C3F)C3=CC(Cl)=CC=C3N21

> <InChI_Code_QSARr>
InChI=1S/C18H13ClFN3/c1-11-21-9-13-10-22-18(14-4-2-3-5-16(14)20)15-8-12(19)6-7-17(15)23(11)13/h2-9H,10H2,1H3

> <InChI Key_QSARr>
DDLIGBOFAVUZHB-UHFFFAOYSA-N

> <Salt_Solvent>


> <Salt_Solvent_ID>
0

> <Clint>
0.8450980400142567

> <Tr_1_Tst_0>
1

$$$$
Row73
  Mrv171c012261910192D          

 26 30  0  0  0  0            999 V2000
    2.6205   -1.7665    0.0000 N   0  0  0  0  0  0  0  0  0  0  0  0
    1.8246   -1.5491    0.0000 C   0  0  0  0  0  0  0  0  0  0  0  0
    1.1306   -1.9951    0.0000 C   0  0  0  0  0  0  0  0  0  0  0  0
    0.3973   -1.6170    0.0000 C   0  0  0  0  0  0  0  0  0  0  0  0
    0.3581   -0.7929    0.0000 C   0  0  0  0  0  0  0  0  0  0  0  0
    1.0522   -0.3470    0.0000 C   0  0  0  0  0  0  0  0  0  0  0  0
    1.7854   -0.7250    0.0000 C   0  0  0  0  0  0  0  0  0  0  0  0
    2.7021   -0.3399    0.0000 C   0  0  0  0  0  0  0  0  0  0  0  0
    3.1548    0.3499    0.0000 C   0  0  0  0  0  0  0  0  0  0  0  0
    3.9785    0.3027    0.0000 C   0  0  0  0  0  0  0  0  0  0  0  0
    4.3494   -0.4341    0.0000 N   0  0  0  0  0  0  0  0  0  0  0  0
    5.1731   -0.4813    0.0000 C   0  0  0  0  0  0  0  0  0  0  0  0
    5.5441   -1.2182    0.0000 C   0  0  0  0  0  0  0  0  0  0  0  0
    5.0914   -1.9079    0.0000 C   0  0  0  0  0  0  0  0  0  0  0  0
    4.2678   -1.8608    0.0000 C   0  0  0  0  0  0  0  0  0  0  0  0
    3.8968   -1.1239    0.0000 C   0  0  0  0  0  0  0  0  0  0  0  0
    3.0731   -1.0767    0.0000 C   0  0  0  0  0  0  0  0  0  0  0  0
    4.6388   -2.5976    0.0000 C   0  0  0  0  0  0  0  0  0  0  0  0
    4.1861   -3.2874    0.0000 C   0  0  0  0  0  0  0  0  0  0  0  0
    3.8151   -2.5505    0.0000 C   0  0  0  0  0  0  0  0  0  0  0  0
    2.9915   -2.5033    0.0000 C   0  0  0  0  0  0  0  0  0  0  0  0
    2.5388   -3.1931    0.0000 C   0  0  0  0  0  0  0  0  0  0  0  0
    2.9098   -3.9299    0.0000 O   0  0  0  0  0  0  0  0  0  0  0  0
    2.4572   -4.6197    0.0000 C   0  0  0  0  0  0  0  0  0  0  0  0
    2.8282   -5.3566    0.0000 C   0  0  0  0  0  0  0  0  0  0  0  0
    1.7152   -3.1459    0.0000 O   0  0  0  0  0  0  0  0  0  0  0  0
  2  1  1  0  0  0  0
  2  3  1  0  0  0  0
  3  4  2  0  0  0  0
  4  5  1  0  0  0  0
  5  6  2  0  0  0  0
  6  7  1  0  0  0  0
  7  2  2  0  0  0  0
  8  7  1  0  0  0  0
  8  9  1  0  0  0  0
  9 10  1  0  0  0  0
 10 11  1  0  0  0  0
 11 12  1  0  0  0  0
 12 13  1  0  0  0  0
 13 14  1  0  0  0  0
 14 15  1  0  0  0  0
 15 16  1  0  0  0  0
 11 16  1  0  0  0  0
 16 17  1  0  0  0  0
 17  1  1  0  0  0  0
 17  8  2  0  0  0  0
 15 18  1  0  0  0  0
 18 19  1  0  0  0  0
 20 15  1  0  0  0  0
 21 20  2  0  0  0  0
  1 21  1  0  0  0  0
 21 22  1  0  0  0  0
 22 23  1  0  0  0  0
 23 24  1  0  0  0  0
 24 25  1  0  0  0  0
 22 26  2  0  0  0  0
M  END
> <ChemID>
10303

> <CAS>
42971-09-5

> <Original_SMILES>
CCOC(=O)C1=C[C@@]2(CCCN3CCc4c([C@H]23)[n]1c1ccccc41)CC

> <preferred_name>
Vinpocetine

> <dsstox_substance_id>
DTXSID5023740

> <dsstox_compound_id>
DTXCID903740

> <Canonical_QSARr>
CCOC(=O)C1=CC2(CCCN3CCC4=C(C23)N1C1C=CC=CC4=1)CC

> <InChI_Code_QSARr>
InChI=1S/C22H26N2O2/c1-3-22-11-7-12-23-13-10-16-15-8-5-6-9-17(15)24(19(16)20(22)23)18(14-22)21(25)26-4-2/h5-6,8-9,14,20H,3-4,7,10-13H2,1-2H3

> <InChI Key_QSARr>
DDNCQMVWWZOMLN-UHFFFAOYSA-N

> <Salt_Solvent>


> <Salt_Solvent_ID>
0

> <Clint>
-3.0287241512618945

> <Tr_1_Tst_0>
1

$$$$
Row429
  Mrv171c012261910192D          

 23 25  0  0  0  0            999 V2000
    1.1292    1.1264    0.0000 O   0  0  0  0  0  0  0  0  0  0  0  0
    1.1292    0.3014    0.0000 C   0  0  0  0  0  0  0  0  0  0  0  0
    0.4147   -0.1111    0.0000 C   0  0  0  0  0  0  0  0  0  0  0  0
   -0.2997    0.3014    0.0000 C   0  0  0  0  0  0  0  0  0  0  0  0
   -1.0142   -0.1111    0.0000 C   0  0  0  0  0  0  0  0  0  0  0  0
   -1.7287    0.3014    0.0000 C   0  0  0  0  0  0  0  0  0  0  0  0
   -2.4432   -0.1111    0.0000 C   0  0  0  0  0  0  0  0  0  0  0  0
   -2.4432   -0.9361    0.0000 C   0  0  0  0  0  0  0  0  0  0  0  0
   -1.7287   -1.3486    0.0000 C   0  0  0  0  0  0  0  0  0  0  0  0
   -1.0142   -0.9361    0.0000 C   0  0  0  0  0  0  0  0  0  0  0  0
   -0.2997    1.1264    0.0000 C   0  0  0  0  0  0  0  0  0  0  0  0
   -1.0142    1.5389    0.0000 C   0  0  0  0  0  0  0  0  0  0  0  0
   -1.7287    1.1264    0.0000 O   0  0  0  0  0  0  0  0  0  0  0  0
   -1.0142    2.3639    0.0000 C   0  0  0  0  0  0  0  0  0  0  0  0
    0.4147   -0.9361    0.0000 C   0  0  0  0  0  0  0  0  0  0  0  0
   -0.2997   -1.3486    0.0000 O   0  0  0  0  0  0  0  0  0  0  0  0
    1.1292   -1.3486    0.0000 O   0  0  0  0  0  0  0  0  0  0  0  0
    1.8437   -0.9361    0.0000 C   0  0  0  0  0  0  0  0  0  0  0  0
    1.8437   -0.1111    0.0000 C   0  0  0  0  0  0  0  0  0  0  0  0
    2.5581    0.3014    0.0000 C   0  0  0  0  0  0  0  0  0  0  0  0
    3.2726   -0.1111    0.0000 C   0  0  0  0  0  0  0  0  0  0  0  0
    3.2726   -0.9361    0.0000 C   0  0  0  0  0  0  0  0  0  0  0  0
    2.5581   -1.3486    0.0000 C   0  0  0  0  0  0  0  0  0  0  0  0
  1  2  2  0  0  0  0
  3  2  1  0  0  0  0
  3  4  1  0  0  0  0
  4  5  1  0  0  0  0
  6  5  2  0  0  0  0
  7  6  1  0  0  0  0
  8  7  2  0  0  0  0
  9  8  1  0  0  0  0
 10  9  2  0  0  0  0
  5 10  1  0  0  0  0
  4 11  1  0  0  0  0
 11 12  1  0  0  0  0
 12 13  2  0  0  0  0
 12 14  1  0  0  0  0
 15  3  1  0  0  0  0
 15 16  2  0  0  0  0
 17 15  1  0  0  0  0
 18 17  1  0  0  0  0
 18 19  2  0  0  0  0
  2 19  1  0  0  0  0
 19 20  1  0  0  0  0
 20 21  2  0  0  0  0
 21 22  1  0  0  0  0
 22 23  2  0  0  0  0
 23 18  1  0  0  0  0
M  END
> <ChemID>
10304

> <CAS>
81-81-2

> <Original_SMILES>
CC(=O)CC(C1=C(O)c2ccccc2OC1=O)c1ccccc1

> <preferred_name>
Warfarin

> <dsstox_substance_id>
DTXSID5023742

> <dsstox_compound_id>
DTXCID703742

> <Canonical_QSARr>
CC(=O)CC(C1C(=O)OC2C=CC=CC=2C1=O)C1C=CC=CC=1

> <InChI_Code_QSARr>
InChI=1S/C19H16O4/c1-12(20)11-15(13-7-3-2-4-8-13)17-18(21)14-9-5-6-10-16(14)23-19(17)22/h2-10,15,17H,11H2,1H3

> <InChI Key_QSARr>
FQEPJUOLUDFINX-UHFFFAOYSA-N

> <Salt_Solvent>


> <Salt_Solvent_ID>
0

> <Clint>
-7.0

> <Tr_1_Tst_0>
0

$$$$
Row513
  Mrv171c012261910192D          

 10 10  0  0  0  0            999 V2000
    2.7572   -0.8138    0.0000 C   0  0  0  0  0  0  0  0  0  0  0  0
    2.0427   -0.4013    0.0000 C   0  0  0  0  0  0  0  0  0  0  0  0
    2.0427    0.4237    0.0000 N   0  3  0  0  0  0  0  0  0  0  0  0
    1.3283    0.8362    0.0000 O   0  5  0  0  0  0  0  0  0  0  0  0
    2.7572    0.8362    0.0000 O   0  0  0  0  0  0  0  0  0  0  0  0
    1.3283   -0.8138    0.0000 C   0  0  0  0  0  0  0  0  0  0  0  0
    1.3283   -1.6388    0.0000 C   0  0  0  0  0  0  0  0  0  0  0  0
    2.0427   -2.0513    0.0000 C   0  0  0  0  0  0  0  0  0  0  0  0
    2.0427   -2.8763    0.0000 C   0  0  0  0  0  0  0  0  0  0  0  0
    2.7572   -1.6388    0.0000 C   0  0  0  0  0  0  0  0  0  0  0  0
  2  1  1  0  0  0  0
  2  3  1  0  0  0  0
  3  4  1  0  0  0  0
  3  5  2  0  0  0  0
  6  2  2  0  0  0  0
  7  6  1  0  0  0  0
  8  7  2  0  0  0  0
  8  9  1  0  0  0  0
 10  8  1  0  0  0  0
  1 10  2  0  0  0  0
M  CHG  2   3   1   4  -1
M  END
> <ChemID>
10305

> <CAS>
99-99-0

> <Original_SMILES>
Cc1ccc(cc1)[N+]([O-])=O

> <preferred_name>
4-Nitrotoluene

> <dsstox_substance_id>
DTXSID5023792

> <dsstox_compound_id>
DTXCID203792

> <Canonical_QSARr>
CC1=CC=C(C=C1)[N+]([O-])=O

> <InChI_Code_QSARr>
InChI=1S/C7H7NO2/c1-6-2-4-7(5-3-6)8(9)10/h2-5H,1H3

> <InChI Key_QSARr>
ZPTVNYMJQHSSEA-UHFFFAOYSA-N

> <Salt_Solvent>


> <Salt_Solvent_ID>
0

> <Clint>
1.2859171967283085

> <Tr_1_Tst_0>
0

$$$$
Row302
  Mrv171c012261910192D          

 22 23  0  0  0  0            999 V2000
    2.8579    0.0000    0.0000 C   0  0  0  0  0  0  0  0  0  0  0  0
    3.5724   -0.4125    0.0000 N   0  0  0  0  0  0  0  0  0  0  0  0
    3.5724   -1.2375    0.0000 C   0  0  0  0  0  0  0  0  0  0  0  0
    4.2868   -1.6500    0.0000 N   0  0  0  0  0  0  0  0  0  0  0  0
    4.2868   -2.4750    0.0000 C   0  0  0  0  0  0  0  0  0  0  0  0
    5.0013   -2.8875    0.0000 C   0  0  0  0  0  0  0  0  0  0  0  0
    5.0013   -3.7125    0.0000 C   0  0  0  0  0  0  0  0  0  0  0  0
    4.2868   -4.1250    0.0000 C   0  0  0  0  0  0  0  0  0  0  0  0
    4.2868   -4.9500    0.0000 C   0  0  0  0  0  0  0  0  0  0  0  0
    3.5724   -3.7125    0.0000 C   0  0  0  0  0  0  0  0  0  0  0  0
    3.5724   -2.8875    0.0000 C   0  0  0  0  0  0  0  0  0  0  0  0
    2.8579   -2.4750    0.0000 C   0  0  0  0  0  0  0  0  0  0  0  0
    4.2868    0.0000    0.0000 C   0  0  0  0  0  0  0  0  0  0  0  0
    4.2868    0.8250    0.0000 N   0  0  0  0  0  0  0  0  0  0  0  0
    5.0013    1.2375    0.0000 C   0  0  0  0  0  0  0  0  0  0  0  0
    5.0013    2.0625    0.0000 C   0  0  0  0  0  0  0  0  0  0  0  0
    5.7158    2.4750    0.0000 C   0  0  0  0  0  0  0  0  0  0  0  0
    6.4302    2.0625    0.0000 C   0  0  0  0  0  0  0  0  0  0  0  0
    7.1447    2.4750    0.0000 C   0  0  0  0  0  0  0  0  0  0  0  0
    6.4302    1.2375    0.0000 C   0  0  0  0  0  0  0  0  0  0  0  0
    5.7158    0.8250    0.0000 C   0  0  0  0  0  0  0  0  0  0  0  0
    5.7158    0.0000    0.0000 C   0  0  0  0  0  0  0  0  0  0  0  0
  1  2  1  0  0  0  0
  3  2  1  4  0  0  0
  3  4  2  0  0  0  0
  4  5  1  0  0  0  0
  5  6  1  0  0  0  0
  6  7  2  0  0  0  0
  7  8  1  0  0  0  0
  8  9  1  0  0  0  0
  8 10  2  0  0  0  0
 10 11  1  0  0  0  0
  5 11  2  0  0  0  0
 11 12  1  0  0  0  0
 13  2  1  4  0  0  0
 13 14  2  0  0  0  0
 14 15  1  0  0  0  0
 15 16  1  0  0  0  0
 16 17  2  0  0  0  0
 17 18  1  0  0  0  0
 18 19  1  0  0  0  0
 18 20  2  0  0  0  0
 20 21  1  0  0  0  0
 15 21  2  0  0  0  0
 21 22  1  0  0  0  0
M  END
> <ChemID>
10306

> <CAS>
33089-61-1

> <Original_SMILES>
CN(/C=N/c1ccc(C)cc1C)/C=N/c1ccc(C)cc1C

> <preferred_name>
Amitraz

> <dsstox_substance_id>
DTXSID5023871

> <dsstox_compound_id>
DTXCID403871

> <Canonical_QSARr>
CN(C=NC1C=CC(C)=CC=1C)C=NC1C=CC(C)=CC=1C

> <InChI_Code_QSARr>
InChI=1S/C19H23N3/c1-14-6-8-18(16(3)10-14)20-12-22(5)13-21-19-9-7-15(2)11-17(19)4/h6-13H,1-5H3

> <InChI Key_QSARr>
QXAITBQSYVNQDR-UHFFFAOYSA-N

> <Salt_Solvent>


> <Salt_Solvent_ID>
0

> <Clint>
1.2855573090077737

> <Tr_1_Tst_0>
1

$$$$
Row52
  Mrv171c012261910192D          

  9  9  0  0  0  0            999 V2000
    0.8473   -1.2824    0.0000 C   0  0  0  0  0  0  0  0  0  0  0  0
    0.8473   -2.1074    0.0000 C   0  0  0  0  0  0  0  0  0  0  0  0
    1.5618   -2.5199    0.0000 C   0  0  0  0  0  0  0  0  0  0  0  0
    2.2763   -2.1074    0.0000 C   0  0  0  0  0  0  0  0  0  0  0  0
    2.2763   -1.2824    0.0000 C   0  0  0  0  0  0  0  0  0  0  0  0
    1.5618   -0.8699    0.0000 C   0  0  0  0  0  0  0  0  0  0  0  0
    1.5618   -0.0449    0.0000 O   0  0  0  0  0  0  0  0  0  0  0  0
    0.8473    0.3676    0.0000 C   0  0  0  0  0  0  0  0  0  0  0  0
    0.1329   -0.8699    0.0000 N   0  0  0  0  0  0  0  0  0  0  0  0
  2  1  2  0  0  0  0
  3  2  1  0  0  0  0
  4  3  2  0  0  0  0
  5  4  1  0  0  0  0
  6  5  2  0  0  0  0
  1  6  1  0  0  0  0
  6  7  1  0  0  0  0
  7  8  1  0  0  0  0
  1  9  1  0  0  0  0
M  END
> <ChemID>
10307

> <CAS>
90-04-0

> <Original_SMILES>
COc1ccccc1N

> <preferred_name>
2-Anisidine

> <dsstox_substance_id>
DTXSID5023877

> <dsstox_compound_id>
DTXCID803877

> <Canonical_QSARr>
COC1=CC=CC=C1N

> <InChI_Code_QSARr>
InChI=1S/C7H9NO/c1-9-7-5-3-2-4-6(7)8/h2-5H,8H2,1H3

> <InChI Key_QSARr>
VMPITZXILSNTON-UHFFFAOYSA-N

> <Salt_Solvent>


> <Salt_Solvent_ID>
0

> <Clint>
-7.0

> <Tr_1_Tst_0>
1

$$$$
Row384
  Mrv171c012261910192D          

 21 22  0  0  0  0            999 V2000
    1.9838   -2.1684    0.0000 C   0  0  0  0  0  0  0  0  0  0  0  0
    1.8123   -2.9753    0.0000 N   0  0  0  0  0  0  0  0  0  0  0  0
    1.0276   -3.2303    0.0000 C   0  0  0  0  0  0  0  0  0  0  0  0
    0.8561   -4.0373    0.0000 O   0  0  0  0  0  0  0  0  0  0  0  0
    0.0715   -4.2922    0.0000 C   0  0  0  0  0  0  0  0  0  0  0  0
    0.4145   -2.6782    0.0000 O   0  0  0  0  0  0  0  0  0  0  0  0
    1.4318   -1.5553    0.0000 N   0  0  0  0  0  0  0  0  0  0  0  0
    1.8443   -0.8408    0.0000 C   0  0  0  0  0  0  0  0  0  0  0  0
    1.5893   -0.0562    0.0000 C   0  0  0  0  0  0  0  0  0  0  0  0
    2.1414    0.5569    0.0000 C   0  0  0  0  0  0  0  0  0  0  0  0
    2.9483    0.3854    0.0000 C   0  0  0  0  0  0  0  0  0  0  0  0
    3.2033   -0.3992    0.0000 C   0  0  0  0  0  0  0  0  0  0  0  0
    2.6512   -1.0123    0.0000 C   0  0  0  0  0  0  0  0  0  0  0  0
    2.7375   -1.8328    0.0000 N   0  0  0  0  0  0  0  0  0  0  0  0
    3.4519   -2.2453    0.0000 C   0  0  0  0  0  0  0  0  0  0  0  0
    4.1664   -1.8328    0.0000 N   0  0  0  0  0  0  0  0  0  0  0  0
    4.8809   -2.2453    0.0000 C   0  0  0  0  0  0  0  0  0  0  0  0
    5.5953   -1.8328    0.0000 C   0  0  0  0  0  0  0  0  0  0  0  0
    6.3098   -2.2453    0.0000 C   0  0  0  0  0  0  0  0  0  0  0  0
    7.0243   -1.8328    0.0000 C   0  0  0  0  0  0  0  0  0  0  0  0
    3.4519   -3.0703    0.0000 O   0  0  0  0  0  0  0  0  0  0  0  0
  1  2  1  0  0  0  0
  2  3  1  0  0  0  0
  3  4  1  0  0  0  0
  4  5  1  0  0  0  0
  3  6  2  0  0  0  0
  7  1  2  0  0  0  0
  8  7  1  0  0  0  0
  8  9  1  0  0  0  0
  9 10  2  0  0  0  0
 10 11  1  0  0  0  0
 11 12  2  0  0  0  0
 12 13  1  0  0  0  0
 13  8  2  0  0  0  0
 14 13  1  0  0  0  0
  1 14  1  0  0  0  0
 14 15  1  0  0  0  0
 15 16  1  0  0  0  0
 16 17  1  0  0  0  0
 17 18  1  0  0  0  0
 18 19  1  0  0  0  0
 19 20  1  0  0  0  0
 15 21  2  0  0  0  0
M  END
> <ChemID>
10308

> <CAS>
17804-35-2

> <Original_SMILES>
CCCCNC(=O)[n]1c(NC(=O)OC)[n]c2ccccc12

> <preferred_name>
Benomyl

> <dsstox_substance_id>
DTXSID5023900

> <dsstox_compound_id>
DTXCID103900

> <Canonical_QSARr>
CCCCNC(=O)N1C(NC(=O)OC)=NC2C=CC=CC1=2

> <InChI_Code_QSARr>
InChI=1S/C14H18N4O3/c1-3-4-9-15-13(19)18-11-8-6-5-7-10(11)16-12(18)17-14(20)21-2/h5-8H,3-4,9H2,1-2H3,(H,15,19)(H,16,17,20)

> <InChI Key_QSARr>
RIOXQFHNBCKOKP-UHFFFAOYSA-N

> <Salt_Solvent>


> <Salt_Solvent_ID>
0

> <Clint>
1.7535064569909697

> <Tr_1_Tst_0>
1

$$$$
Row292
  Mrv171c012261910192D          

 18 21  0  0  0  0            999 V2000
    2.8633   -1.7226    0.0000 C   0  0  0  0  0  0  0  0  0  0  0  0
    3.6734   -1.5667    0.0000 C   0  0  0  0  0  0  0  0  0  0  0  0
    3.9434   -0.7872    0.0000 C   0  0  0  0  0  0  0  0  0  0  0  0
    4.7536   -0.6313    0.0000 C   0  0  0  0  0  0  0  0  0  0  0  0
    5.2937   -1.2549    0.0000 C   0  0  0  0  0  0  0  0  0  0  0  0
    5.0236   -2.0345    0.0000 C   0  0  0  0  0  0  0  0  0  0  0  0
    4.2135   -2.1904    0.0000 C   0  0  0  0  0  0  0  0  0  0  0  0
    3.9434   -2.9699    0.0000 C   0  0  0  0  0  0  0  0  0  0  0  0
    3.1333   -3.1258    0.0000 C   0  0  0  0  0  0  0  0  0  0  0  0
    2.5932   -2.5022    0.0000 C   0  0  0  0  0  0  0  0  0  0  0  0
    1.7831   -2.6581    0.0000 C   0  0  0  0  0  0  0  0  0  0  0  0
    1.2430   -2.0345    0.0000 C   0  0  0  0  0  0  0  0  0  0  0  0
    0.4329   -2.1904    0.0000 C   0  0  0  0  0  0  0  0  0  0  0  0
   -0.1072   -1.5667    0.0000 C   0  0  0  0  0  0  0  0  0  0  0  0
    0.1628   -0.7872    0.0000 C   0  0  0  0  0  0  0  0  0  0  0  0
    0.9730   -0.6313    0.0000 C   0  0  0  0  0  0  0  0  0  0  0  0
    1.5130   -1.2549    0.0000 C   0  0  0  0  0  0  0  0  0  0  0  0
    2.3232   -1.0990    0.0000 C   0  0  0  0  0  0  0  0  0  0  0  0
  2  1  1  0  0  0  0
  2  3  1  0  0  0  0
  3  4  2  0  0  0  0
  4  5  1  0  0  0  0
  5  6  2  0  0  0  0
  6  7  1  0  0  0  0
  7  2  2  0  0  0  0
  8  7  1  0  0  0  0
  9  8  2  0  0  0  0
 10  9  1  0  0  0  0
 10  1  1  0  0  0  0
 11 10  2  0  0  0  0
 12 11  1  0  0  0  0
 12 13  1  0  0  0  0
 13 14  2  0  0  0  0
 14 15  1  0  0  0  0
 15 16  2  0  0  0  0
 16 17  1  0  0  0  0
 17 12  2  0  0  0  0
 18 17  1  0  0  0  0
  1 18  2  0  0  0  0
M  END
> <ChemID>
10309

> <CAS>
56-55-3

> <Original_SMILES>
c1c2c3ccccc3ccc2cc2ccccc21

> <preferred_name>
Benz(a)anthracene

> <dsstox_substance_id>
DTXSID5023902

> <dsstox_compound_id>
DTXCID903902

> <Canonical_QSARr>
C1=C2C3C=CC=CC=3C=CC2=CC2C=CC=CC=21

> <InChI_Code_QSARr>
InChI=1S/C18H12/c1-2-7-15-12-18-16(11-14(15)6-1)10-9-13-5-3-4-8-17(13)18/h1-12H

> <InChI Key_QSARr>
DXBHBZVCASKNBY-UHFFFAOYSA-N

> <Salt_Solvent>


> <Salt_Solvent_ID>
0

> <Clint>
1.2617385473525378

> <Tr_1_Tst_0>
1

$$$$
Row336
  Mrv171c012261910192D          

 26 27  0  0  0  0            999 V2000
    4.0344   -3.1313    0.0000 C   0  0  0  0  0  0  0  0  0  0  0  0
    3.2094   -3.1313    0.0000 N   0  0  0  0  0  0  0  0  0  0  0  0
    2.7969   -2.4168    0.0000 C   0  0  0  0  0  0  0  0  0  0  0  0
    2.7969   -3.8457    0.0000 S   0  0  0  0  0  0  0  0  0  0  0  0
    1.9719   -3.8457    0.0000 N   0  0  0  0  0  0  0  0  0  0  0  0
    1.5594   -4.5602    0.0000 C   0  0  0  0  0  0  0  0  0  0  0  0
    0.7344   -4.5602    0.0000 C   0  0  0  0  0  0  0  0  0  0  0  0
    0.3219   -5.2747    0.0000 C   0  0  0  0  0  0  0  0  0  0  0  0
   -0.5031   -5.2747    0.0000 C   0  0  0  0  0  0  0  0  0  0  0  0
    1.5594   -3.1313    0.0000 C   0  0  0  0  0  0  0  0  0  0  0  0
    1.9719   -2.4168    0.0000 C   0  0  0  0  0  0  0  0  0  0  0  0
    1.5594   -1.7023    0.0000 C   0  0  0  0  0  0  0  0  0  0  0  0
    1.9719   -0.9879    0.0000 C   0  0  0  0  0  0  0  0  0  0  0  0
    4.4469   -2.4168    0.0000 O   0  0  0  0  0  0  0  0  0  0  0  0
    5.2719   -2.4168    0.0000 C   0  0  0  0  0  0  0  0  0  0  0  0
    5.6844   -3.1313    0.0000 C   0  0  0  0  0  0  0  0  0  0  0  0
    6.5094   -3.1313    0.0000 C   0  0  0  0  0  0  0  0  0  0  0  0
    6.9219   -2.4168    0.0000 C   0  0  0  0  0  0  0  0  0  0  0  0
    6.5094   -1.7023    0.0000 C   0  0  0  0  0  0  0  0  0  0  0  0
    6.7643   -0.9177    0.0000 C   0  0  0  0  0  0  0  0  0  0  0  0
    6.0969   -0.4328    0.0000 C   0  0  0  0  0  0  0  0  0  0  0  0
    6.6489    0.1803    0.0000 C   0  0  0  0  0  0  0  0  0  0  0  0
    5.5449    0.1803    0.0000 C   0  0  0  0  0  0  0  0  0  0  0  0
    5.4295   -0.9177    0.0000 O   0  0  0  0  0  0  0  0  0  0  0  0
    5.6844   -1.7023    0.0000 C   0  0  0  0  0  0  0  0  0  0  0  0
    4.4469   -3.8457    0.0000 O   0  0  0  0  0  0  0  0  0  0  0  0
  1  2  1  0  0  0  0
  2  3  1  0  0  0  0
  2  4  1  0  0  0  0
  4  5  1  0  0  0  0
  5  6  1  0  0  0  0
  6  7  1  0  0  0  0
  7  8  1  0  0  0  0
  8  9  1  0  0  0  0
  5 10  1  0  0  0  0
 10 11  1  0  0  0  0
 11 12  1  0  0  0  0
 12 13  1  0  0  0  0
  1 14  1  0  0  0  0
 14 15  1  0  0  0  0
 16 15  1  0  0  0  0
 17 16  2  0  0  0  0
 18 17  1  0  0  0  0
 19 18  2  0  0  0  0
 19 20  1  0  0  0  0
 20 21  1  0  0  0  0
 21 22  1  0  0  0  0
 21 23  1  0  0  0  0
 21 24  1  0  0  0  0
 24 25  1  0  0  0  0
 15 25  2  0  0  0  0
 25 19  1  0  0  0  0
  1 26  2  0  0  0  0
M  END
> <ChemID>
10310

> <CAS>
55285-14-8

> <Original_SMILES>
CN(SN(CCCC)CCCC)C(=O)Oc1cccc2CC(C)(C)Oc21

> <preferred_name>
Carbosulfan

> <dsstox_substance_id>
DTXSID5023950

> <dsstox_compound_id>
DTXCID603950

> <Canonical_QSARr>
CN(SN(CCCC)CCCC)C(=O)OC1C=CC=C2CC(C)(C)OC2=1

> <InChI_Code_QSARr>
InChI=1S/C20H32N2O3S/c1-6-8-13-22(14-9-7-2)26-21(5)19(23)24-17-12-10-11-16-15-20(3,4)25-18(16)17/h10-12H,6-9,13-15H2,1-5H3

> <InChI Key_QSARr>
JLQUFIHWVLZVTJ-UHFFFAOYSA-N

> <Salt_Solvent>


> <Salt_Solvent_ID>
0

> <Clint>
1.4271614029259654

> <Tr_1_Tst_0>
1

$$$$
Row31
  Mrv171c012261910192D          

 11 10  0  0  0  0            999 V2000
    1.8755   -3.7012    0.0000 C   0  0  0  0  0  0  0  0  0  0  0  0
    1.4630   -2.9868    0.0000 C   0  0  0  0  0  0  0  0  0  0  0  0
    1.8755   -2.2723    0.0000 O   0  0  0  0  0  0  0  0  0  0  0  0
    1.4630   -1.5578    0.0000 P   0  0  0  0  0  0  0  0  0  0  0  0
    2.1775   -1.1453    0.0000 C   0  0  0  0  0  0  0  0  0  0  0  0
    0.7486   -1.9703    0.0000 O   0  0  0  0  0  0  0  0  0  0  0  0
    1.0505   -0.8433    0.0000 O   0  0  0  0  0  0  0  0  0  0  0  0
    1.4630   -0.1289    0.0000 C   0  0  0  0  0  0  0  0  0  0  0  0
    1.0505    0.5856    0.0000 C   0  0  0  0  0  0  0  0  0  0  0  0
    2.2880   -0.1289    0.0000 C   0  0  0  0  0  0  0  0  0  0  0  0
    0.6380   -2.9868    0.0000 C   0  0  0  0  0  0  0  0  0  0  0  0
  1  2  1  0  0  0  0
  2  3  1  0  0  0  0
  3  4  1  0  0  0  0
  4  5  1  0  0  0  0
  4  6  2  0  0  0  0
  4  7  1  0  0  0  0
  7  8  1  0  0  0  0
  8  9  1  0  0  0  0
  8 10  1  0  0  0  0
  2 11  1  0  0  0  0
M  END
> <ChemID>
10311

> <CAS>
1445-75-6

> <Original_SMILES>
CP(=O)(OC(C)C)OC(C)C

> <preferred_name>
Diisopropyl methylphosphonate

> <dsstox_substance_id>
DTXSID5024051

> <dsstox_compound_id>
DTXCID304051

> <Canonical_QSARr>
CP(=O)(OC(C)C)OC(C)C

> <InChI_Code_QSARr>
InChI=1S/C7H17O3P/c1-6(2)9-11(5,8)10-7(3)4/h6-7H,1-5H3

> <InChI Key_QSARr>
WOAFDHWYKSOANX-UHFFFAOYSA-N

> <Salt_Solvent>


> <Salt_Solvent_ID>
0

> <Clint>
-7.0

> <Tr_1_Tst_0>
1

$$$$
Row27
  Mrv171c012261910192D          

 16 17  0  0  0  0            999 V2000
    2.4884   -1.0382    0.0000 C   0  0  0  0  0  0  0  0  0  0  0  0
    3.2029   -0.6257    0.0000 C   0  0  0  0  0  0  0  0  0  0  0  0
    3.2029    0.1993    0.0000 C   0  0  0  0  0  0  0  0  0  0  0  0
    2.4884    0.6118    0.0000 C   0  0  0  0  0  0  0  0  0  0  0  0
    2.4884    1.4368    0.0000 N   0  0  0  0  0  0  0  0  0  0  0  0
    1.7740    0.1993    0.0000 C   0  0  0  0  0  0  0  0  0  0  0  0
    1.0595    0.6118    0.0000 C   0  0  0  0  0  0  0  0  0  0  0  0
    1.7740   -0.6257    0.0000 C   0  0  0  0  0  0  0  0  0  0  0  0
    2.4884   -1.8632    0.0000 C   0  0  0  0  0  0  0  0  0  0  0  0
    1.7740   -2.2757    0.0000 C   0  0  0  0  0  0  0  0  0  0  0  0
    1.7740   -3.1007    0.0000 C   0  0  0  0  0  0  0  0  0  0  0  0
    2.4884   -3.5132    0.0000 C   0  0  0  0  0  0  0  0  0  0  0  0
    2.4884   -4.3382    0.0000 N   0  0  0  0  0  0  0  0  0  0  0  0
    3.2029   -3.1007    0.0000 C   0  0  0  0  0  0  0  0  0  0  0  0
    3.9174   -3.5132    0.0000 C   0  0  0  0  0  0  0  0  0  0  0  0
    3.2029   -2.2757    0.0000 C   0  0  0  0  0  0  0  0  0  0  0  0
  2  1  2  0  0  0  0
  3  2  1  0  0  0  0
  4  3  2  0  0  0  0
  4  5  1  0  0  0  0
  6  4  1  0  0  0  0
  6  7  1  0  0  0  0
  8  6  2  0  0  0  0
  1  8  1  0  0  0  0
  1  9  1  0  0  0  0
 10  9  2  0  0  0  0
 11 10  1  0  0  0  0
 12 11  2  0  0  0  0
 12 13  1  0  0  0  0
 14 12  1  0  0  0  0
 14 15  1  0  0  0  0
 16 14  2  0  0  0  0
  9 16  1  0  0  0  0
M  END
> <ChemID>
10312

> <CAS>
119-93-7

> <Original_SMILES>
Cc1cc(ccc1N)-c1cc(C)c(N)cc1

> <preferred_name>
3,3'-Dimethylbenzidine

> <dsstox_substance_id>
DTXSID5024059

> <dsstox_compound_id>
DTXCID504059

> <Canonical_QSARr>
CC1=CC(=CC=C1N)C1C=C(C)C(N)=CC=1

> <InChI_Code_QSARr>
InChI=1S/C14H16N2/c1-9-7-11(3-5-13(9)15)12-4-6-14(16)10(2)8-12/h3-8H,15-16H2,1-2H3

> <InChI Key_QSARr>
NUIURNJTPRWVAP-UHFFFAOYSA-N

> <Salt_Solvent>


> <Salt_Solvent_ID>
0

> <Clint>
-7.0

> <Tr_1_Tst_0>
1

$$$$
Row503
  Mrv171c012261910192D          

 20 21  0  0  0  0            999 V2000
    1.5032   -3.3479    0.0000 C   0  0  0  0  0  0  0  0  0  0  0  0
    1.9157   -4.0624    0.0000 O   0  0  0  0  0  0  0  0  0  0  0  0
    0.6782   -3.3479    0.0000 N   0  0  0  0  0  0  0  0  0  0  0  0
    0.2657   -4.0624    0.0000 C   0  0  0  0  0  0  0  0  0  0  0  0
   -0.5593   -4.0624    0.0000 C   0  0  0  0  0  0  0  0  0  0  0  0
    0.2657   -2.6335    0.0000 C   0  0  0  0  0  0  0  0  0  0  0  0
    0.6782   -1.9190    0.0000 C   0  0  0  0  0  0  0  0  0  0  0  0
    1.9157   -2.6335    0.0000 C   0  0  0  0  0  0  0  0  0  0  0  0
    1.5032   -1.9190    0.0000 C   0  0  0  0  0  0  0  0  0  0  0  0
    2.7407   -2.6335    0.0000 O   0  0  0  0  0  0  0  0  0  0  0  0
    3.1532   -1.9190    0.0000 C   0  0  0  0  0  0  0  0  0  0  0  0
    2.7407   -1.2045    0.0000 C   0  0  0  0  0  0  0  0  0  0  0  0
    3.1532   -0.4900    0.0000 C   0  0  0  0  0  0  0  0  0  0  0  0
    3.9782   -0.4900    0.0000 C   0  0  0  0  0  0  0  0  0  0  0  0
    4.3907   -1.2045    0.0000 C   0  0  0  0  0  0  0  0  0  0  0  0
    5.2157   -1.2045    0.0000 C   0  0  0  0  0  0  0  0  0  0  0  0
    5.6282   -1.9190    0.0000 C   0  0  0  0  0  0  0  0  0  0  0  0
    5.2157   -2.6335    0.0000 C   0  0  0  0  0  0  0  0  0  0  0  0
    4.3907   -2.6335    0.0000 C   0  0  0  0  0  0  0  0  0  0  0  0
    3.9782   -1.9190    0.0000 C   0  0  0  0  0  0  0  0  0  0  0  0
  1  2  2  0  0  0  0
  1  3  1  0  0  0  0
  3  4  1  0  0  0  0
  4  5  1  0  0  0  0
  3  6  1  0  0  0  0
  6  7  1  0  0  0  0
  1  8  1  0  0  0  0
  8  9  1  0  0  0  0
  8 10  1  0  0  0  0
 10 11  1  0  0  0  0
 12 11  1  0  0  0  0
 13 12  2  0  0  0  0
 14 13  1  0  0  0  0
 15 14  2  0  0  0  0
 15 16  1  0  0  0  0
 16 17  2  0  0  0  0
 17 18  1  0  0  0  0
 18 19  2  0  0  0  0
 19 20  1  0  0  0  0
 11 20  2  0  0  0  0
 20 15  1  0  0  0  0
M  END
> <ChemID>
10313

> <CAS>
15299-99-7

> <Original_SMILES>
CC(Oc1cccc2ccccc21)C(=O)N(CC)CC

> <preferred_name>
Napropamide

> <dsstox_substance_id>
DTXSID5024211

> <dsstox_compound_id>
DTXCID504211

> <Canonical_QSARr>
CC(OC1C=CC=C2C=CC=CC2=1)C(=O)N(CC)CC

> <InChI_Code_QSARr>
InChI=1S/C17H21NO2/c1-4-18(5-2)17(19)13(3)20-16-12-8-10-14-9-6-7-11-15(14)16/h6-13H,4-5H2,1-3H3

> <InChI Key_QSARr>
WXZVAROIGSFCFJ-UHFFFAOYSA-N

> <Salt_Solvent>


> <Salt_Solvent_ID>
0

> <Clint>
1.1804126328383238

> <Tr_1_Tst_0>
0

$$$$
Row324
  Mrv171c012261910192D          

 19 20  0  0  0  0            999 V2000
    3.3031   -0.9383    0.0000 N   0  0  0  0  0  0  0  0  0  0  0  0
    2.4781   -0.9383    0.0000 C   0  0  0  0  0  0  0  0  0  0  0  0
    2.0656   -1.6528    0.0000 S   0  0  0  0  0  0  0  0  0  0  0  0
    1.2406   -1.6528    0.0000 P   0  0  0  0  0  0  0  0  0  0  0  0
    0.4156   -1.6528    0.0000 O   0  0  0  0  0  0  0  0  0  0  0  0
    0.0031   -2.3673    0.0000 C   0  0  0  0  0  0  0  0  0  0  0  0
    1.2406   -2.4778    0.0000 O   0  0  0  0  0  0  0  0  0  0  0  0
    0.5261   -2.8903    0.0000 C   0  0  0  0  0  0  0  0  0  0  0  0
    1.2406   -0.8278    0.0000 S   0  0  0  0  0  0  0  0  0  0  0  0
    3.7880   -0.2709    0.0000 C   0  0  0  0  0  0  0  0  0  0  0  0
    3.5331    0.5137    0.0000 O   0  0  0  0  0  0  0  0  0  0  0  0
    4.5726   -0.5258    0.0000 C   0  0  0  0  0  0  0  0  0  0  0  0
    5.2871   -0.1133    0.0000 C   0  0  0  0  0  0  0  0  0  0  0  0
    6.0016   -0.5258    0.0000 C   0  0  0  0  0  0  0  0  0  0  0  0
    6.0016   -1.3508    0.0000 C   0  0  0  0  0  0  0  0  0  0  0  0
    5.2871   -1.7633    0.0000 C   0  0  0  0  0  0  0  0  0  0  0  0
    4.5726   -1.3508    0.0000 C   0  0  0  0  0  0  0  0  0  0  0  0
    3.7880   -1.6058    0.0000 C   0  0  0  0  0  0  0  0  0  0  0  0
    3.5331   -2.3904    0.0000 O   0  0  0  0  0  0  0  0  0  0  0  0
  1  2  1  0  0  0  0
  2  3  1  0  0  0  0
  3  4  1  0  0  0  0
  4  5  1  0  0  0  0
  5  6  1  0  0  0  0
  4  7  1  0  0  0  0
  7  8  1  0  0  0  0
  4  9  2  0  0  0  0
 10  1  1  0  0  0  0
 10 11  2  0  0  0  0
 12 10  1  0  0  0  0
 12 13  1  0  0  0  0
 13 14  2  0  0  0  0
 14 15  1  0  0  0  0
 15 16  2  0  0  0  0
 16 17  1  0  0  0  0
 17 12  2  0  0  0  0
 18 17  1  0  0  0  0
  1 18  1  0  0  0  0
 18 19  2  0  0  0  0
M  END
> <ChemID>
10314

> <CAS>
732-11-6

> <Original_SMILES>
COP(=S)(OC)SCN1C(=O)c2ccccc2C1=O

> <preferred_name>
Phosmet

> <dsstox_substance_id>
DTXSID5024261

> <dsstox_compound_id>
DTXCID004261

> <Canonical_QSARr>
COP(=S)(OC)SCN1C(=O)C2C=CC=CC=2C1=O

> <InChI_Code_QSARr>
InChI=1S/C11H12NO4PS2/c1-15-17(18,16-2)19-7-12-10(13)8-5-3-4-6-9(8)11(12)14/h3-6H,7H2,1-2H3

> <InChI Key_QSARr>
LMNZTLDVJIUSHT-UHFFFAOYSA-N

> <Salt_Solvent>


> <Salt_Solvent_ID>
0

> <Clint>
1.3769417571467586

> <Tr_1_Tst_0>
1

$$$$
Row145
  Mrv171c012261910192D          

 16 15  0  0  0  0            999 V2000
    2.3456   -2.3322    0.0000 O   0  0  0  0  0  0  0  0  0  0  0  0
    2.7581   -1.6177    0.0000 C   0  0  0  0  0  0  0  0  0  0  0  0
    2.3456   -0.9032    0.0000 S   0  0  0  0  0  0  0  0  0  0  0  0
    1.5206   -0.9032    0.0000 C   0  0  0  0  0  0  0  0  0  0  0  0
    1.1081   -0.1888    0.0000 C   0  0  0  0  0  0  0  0  0  0  0  0
    1.5206    0.5257    0.0000 Cl  0  0  0  0  0  0  0  0  0  0  0  0
    0.2831   -0.1888    0.0000 C   0  0  0  0  0  0  0  0  0  0  0  0
   -0.1294   -0.9032    0.0000 Cl  0  0  0  0  0  0  0  0  0  0  0  0
   -0.1294    0.5257    0.0000 Cl  0  0  0  0  0  0  0  0  0  0  0  0
    3.5831   -1.6177    0.0000 N   0  0  0  0  0  0  0  0  0  0  0  0
    3.9956   -2.3322    0.0000 C   0  0  0  0  0  0  0  0  0  0  0  0
    4.8206   -2.3322    0.0000 C   0  0  0  0  0  0  0  0  0  0  0  0
    3.5831   -3.0466    0.0000 C   0  0  0  0  0  0  0  0  0  0  0  0
    3.9956   -0.9032    0.0000 C   0  0  0  0  0  0  0  0  0  0  0  0
    3.5831   -0.1888    0.0000 C   0  0  0  0  0  0  0  0  0  0  0  0
    4.8206   -0.9032    0.0000 C   0  0  0  0  0  0  0  0  0  0  0  0
  1  2  2  0  0  0  0
  2  3  1  0  0  0  0
  3  4  1  0  0  0  0
  4  5  1  0  0  0  0
  5  6  1  0  0  0  0
  5  7  2  0  0  0  0
  7  8  1  0  0  0  0
  7  9  1  0  0  0  0
  2 10  1  0  0  0  0
 10 11  1  0  0  0  0
 11 12  1  0  0  0  0
 11 13  1  0  0  0  0
 10 14  1  0  0  0  0
 14 15  1  0  0  0  0
 14 16  1  0  0  0  0
M  END
> <ChemID>
10315

> <CAS>
2303-17-5

> <Original_SMILES>
CC(C)N(C(C)C)C(=O)SCC(Cl)=C(Cl)Cl

> <preferred_name>
Tri-allate

> <dsstox_substance_id>
DTXSID5024344

> <dsstox_compound_id>
DTXCID804344

> <Canonical_QSARr>
CC(C)N(C(C)C)C(=O)SCC(Cl)=C(Cl)Cl

> <InChI_Code_QSARr>
InChI=1S/C10H16Cl3NOS/c1-6(2)14(7(3)4)10(15)16-5-8(11)9(12)13/h6-7H,5H2,1-4H3

> <InChI Key_QSARr>
MWBPRDONLNQCFV-UHFFFAOYSA-N

> <Salt_Solvent>


> <Salt_Solvent_ID>
0

> <Clint>
0.46089784275654777

> <Tr_1_Tst_0>
1

$$$$
Row84
  Mrv171c012261910192D          

 29 31  0  0  0  0            999 V2000
    3.6219   -2.3682    0.0000 C   0  0  0  0  0  0  0  0  0  0  0  0
    3.8331   -3.1657    0.0000 C   0  0  0  0  0  0  0  0  0  0  0  0
    4.5883   -3.4978    0.0000 C   0  0  0  0  0  0  0  0  0  0  0  0
    5.3188   -3.1144    0.0000 C   0  0  0  0  0  0  0  0  0  0  0  0
    5.9812   -3.6063    0.0000 O   0  0  0  0  0  0  0  0  0  0  0  0
    6.7383   -3.2786    0.0000 C   0  0  0  0  0  0  0  0  0  0  0  0
    5.4746   -2.3043    0.0000 C   0  0  0  0  0  0  0  0  0  0  0  0
    6.2721   -2.0931    0.0000 O   0  0  0  0  0  0  0  0  0  0  0  0
    4.9383   -1.6774    0.0000 C   0  0  0  0  0  0  0  0  0  0  0  0
    4.1137   -1.7058    0.0000 C   0  0  0  0  0  0  0  0  0  0  0  0
    3.9025   -0.9083    0.0000 C   0  0  0  0  0  0  0  0  0  0  0  0
    4.5294   -0.3720    0.0000 N   0  0  0  0  0  0  0  0  0  0  0  0
    4.3784    0.4391    0.0000 C   0  0  0  0  0  0  0  0  0  0  0  0
    3.6005    0.7138    0.0000 C   0  0  0  0  0  0  0  0  0  0  0  0
    5.0053    0.9754    0.0000 O   0  0  0  0  0  0  0  0  0  0  0  0
    3.1473   -0.5762    0.0000 C   0  0  0  0  0  0  0  0  0  0  0  0
    2.4168   -0.9596    0.0000 C   0  0  0  0  0  0  0  0  0  0  0  0
    2.2611   -1.7697    0.0000 C   0  0  0  0  0  0  0  0  0  0  0  0
    1.4500   -1.9208    0.0000 C   0  0  0  0  0  0  0  0  0  0  0  0
    1.1753   -2.6987    0.0000 C   0  0  0  0  0  0  0  0  0  0  0  0
    0.3642   -2.8497    0.0000 O   0  0  0  0  0  0  0  0  0  0  0  0
    0.0895   -3.6276    0.0000 C   0  0  0  0  0  0  0  0  0  0  0  0
    1.7116   -3.3256    0.0000 C   0  0  0  0  0  0  0  0  0  0  0  0
    1.4369   -4.1035    0.0000 O   0  0  0  0  0  0  0  0  0  0  0  0
    1.9732   -4.7304    0.0000 C   0  0  0  0  0  0  0  0  0  0  0  0
    2.5227   -3.1745    0.0000 C   0  0  0  0  0  0  0  0  0  0  0  0
    3.0590   -3.8014    0.0000 O   0  0  0  0  0  0  0  0  0  0  0  0
    2.7842   -4.5793    0.0000 C   0  0  0  0  0  0  0  0  0  0  0  0
    2.7974   -2.3966    0.0000 C   0  0  0  0  0  0  0  0  0  0  0  0
  2  1  2  0  0  0  0
  3  2  1  0  0  0  0
  4  3  2  0  0  0  0
  4  5  1  0  0  0  0
  5  6  1  0  0  0  0
  7  4  1  0  0  0  0
  7  8  2  0  0  0  0
  9  7  1  0  0  0  0
 10  9  2  0  0  0  0
 10  1  1  0  0  0  0
 11 10  1  0  0  0  0
 11 12  1  0  0  0  0
 12 13  1  0  0  0  0
 13 14  1  0  0  0  0
 13 15  2  0  0  0  0
 16 11  1  0  0  0  0
 17 16  1  0  0  0  0
 18 17  1  0  0  0  0
 18 19  1  0  0  0  0
 19 20  2  0  0  0  0
 20 21  1  0  0  0  0
 21 22  1  0  0  0  0
 20 23  1  0  0  0  0
 23 24  1  0  0  0  0
 24 25  1  0  0  0  0
 23 26  2  0  0  0  0
 26 27  1  0  0  0  0
 27 28  1  0  0  0  0
 26 29  1  0  0  0  0
  1 29  1  0  0  0  0
 29 18  2  0  0  0  0
M  END
> <ChemID>
10316

> <CAS>
64-86-8

> <Original_SMILES>
CC(=O)N[C@H]1CCc2cc(OC)c(OC)c(OC)c2C2=CC=C(OC)C(=O)C=C21

> <preferred_name>
Colchicine

> <dsstox_substance_id>
DTXSID5024845

> <dsstox_compound_id>
DTXCID204845

> <Canonical_QSARr>
CC(=O)NC1CCC2C=C(OC)C(OC)=C(OC)C=2C2=CC=C(OC)C(=O)C=C21

> <InChI_Code_QSARr>
InChI=1S/C22H25NO6/c1-12(24)23-16-8-6-13-10-19(27-3)21(28-4)22(29-5)20(13)14-7-9-18(26-2)17(25)11-15(14)16/h7,9-11,16H,6,8H2,1-5H3,(H,23,24)

> <InChI Key_QSARr>
IAKHMKGGTNLKSZ-UHFFFAOYSA-N

> <Salt_Solvent>


> <Salt_Solvent_ID>
0

> <Clint>
-0.15614457737683893

> <Tr_1_Tst_0>
1

$$$$
Row410
  Mrv171c012261910192D          

 10  9  0  0  0  0            999 V2000
    2.8597   -0.8254    0.0000 C   0  0  0  0  0  0  0  0  0  0  0  0
    2.1452   -1.2379    0.0000 C   0  0  0  0  0  0  0  0  0  0  0  0
    1.4307   -0.8254    0.0000 C   0  0  0  0  0  0  0  0  0  0  0  0
    0.7163   -1.2379    0.0000 C   0  0  0  0  0  0  0  0  0  0  0  0
    0.0018   -0.8254    0.0000 O   0  0  0  0  0  0  0  0  0  0  0  0
   -0.7127   -1.2379    0.0000 C   0  0  0  0  0  0  0  0  0  0  0  0
    0.7163   -2.0629    0.0000 O   0  0  0  0  0  0  0  0  0  0  0  0
    3.5742   -1.2379    0.0000 O   0  0  0  0  0  0  0  0  0  0  0  0
    4.2886   -0.8254    0.0000 C   0  0  0  0  0  0  0  0  0  0  0  0
    2.8597   -0.0004    0.0000 O   0  0  0  0  0  0  0  0  0  0  0  0
  1  2  1  0  0  0  0
  2  3  1  0  0  0  0
  3  4  1  0  0  0  0
  4  5  1  0  0  0  0
  5  6  1  0  0  0  0
  4  7  2  0  0  0  0
  1  8  1  0  0  0  0
  8  9  1  0  0  0  0
  1 10  2  0  0  0  0
M  END
> <ChemID>
10317

> <CAS>
106-65-0

> <Original_SMILES>
COC(=O)CCC(=O)OC

> <preferred_name>
Dimethyl succinate

> <dsstox_substance_id>
DTXSID5025152

> <dsstox_compound_id>
DTXCID005152

> <Canonical_QSARr>
COC(=O)CCC(=O)OC

> <InChI_Code_QSARr>
InChI=1S/C6H10O4/c1-9-5(7)3-4-6(8)10-2/h3-4H2,1-2H3

> <InChI Key_QSARr>
MUXOBHXGJLMRAB-UHFFFAOYSA-N

> <Salt_Solvent>


> <Salt_Solvent_ID>
0

> <Clint>
2.5615783683009603

> <Tr_1_Tst_0>
1

$$$$
Row524
  Mrv171c012261910192D          

 13 13  0  0  0  0            999 V2000
    3.4084   -0.4196    0.0000 O   0  0  0  0  0  0  0  0  0  0  0  0
    2.6939   -0.8321    0.0000 C   0  0  0  0  0  0  0  0  0  0  0  0
    1.9794   -0.4196    0.0000 C   0  0  0  0  0  0  0  0  0  0  0  0
    1.9794    0.4054    0.0000 O   0  0  0  0  0  0  0  0  0  0  0  0
    1.2650    0.8179    0.0000 C   0  0  0  0  0  0  0  0  0  0  0  0
    1.2650   -0.8321    0.0000 C   0  0  0  0  0  0  0  0  0  0  0  0
    1.2650   -1.6571    0.0000 C   0  0  0  0  0  0  0  0  0  0  0  0
    1.9794   -2.0696    0.0000 C   0  0  0  0  0  0  0  0  0  0  0  0
    1.9794   -2.8946    0.0000 C   0  0  0  0  0  0  0  0  0  0  0  0
    1.2650   -3.3071    0.0000 C   0  0  0  0  0  0  0  0  0  0  0  0
    1.2650   -4.1321    0.0000 C   0  0  0  0  0  0  0  0  0  0  0  0
    2.6939   -1.6571    0.0000 C   0  0  0  0  0  0  0  0  0  0  0  0
    4.1228   -0.8321    0.0000 C   0  0  0  0  0  0  0  0  0  0  0  0
  1  2  1  0  0  0  0
  3  2  1  0  0  0  0
  3  4  1  0  0  0  0
  4  5  1  0  0  0  0
  6  3  2  0  0  0  0
  7  6  1  0  0  0  0
  8  7  2  0  0  0  0
  8  9  1  0  0  0  0
  9 10  1  0  0  0  0
 10 11  2  0  0  0  0
 12  8  1  0  0  0  0
  2 12  2  0  0  0  0
  1 13  1  0  0  0  0
M  END
> <ChemID>
10318

> <CAS>
93-15-2

> <Original_SMILES>
COc1ccc(CC=C)cc1OC

> <preferred_name>
Methyleugenol

> <dsstox_substance_id>
DTXSID5025607

> <dsstox_compound_id>
DTXCID505607

> <Canonical_QSARr>
COC1=CC=C(CC=C)C=C1OC

> <InChI_Code_QSARr>
InChI=1S/C11H14O2/c1-4-5-9-6-7-10(12-2)11(8-9)13-3/h4,6-8H,1,5H2,2-3H3

> <InChI Key_QSARr>
ZYEMGPIYFIJGTP-UHFFFAOYSA-N

> <Salt_Solvent>


> <Salt_Solvent_ID>
0

> <Clint>
1.4242280706959798

> <Tr_1_Tst_0>
0

$$$$
Row411
  Mrv171c012261910192D          

 15 14  0  0  0  0            999 V2000
    0.7566   -0.4959    0.0000 C   0  0  0  0  0  0  0  0  0  0  0  0
    0.7566   -1.3209    0.0000 O   0  0  0  0  0  0  0  0  0  0  0  0
    0.0422   -0.0834    0.0000 O   0  0  0  0  0  0  0  0  0  0  0  0
   -0.6723   -0.4959    0.0000 C   0  0  0  0  0  0  0  0  0  0  0  0
    1.4711   -0.0834    0.0000 C   0  0  0  0  0  0  0  0  0  0  0  0
    2.1856   -0.4959    0.0000 C   0  0  0  0  0  0  0  0  0  0  0  0
    2.9001   -0.0834    0.0000 C   0  0  0  0  0  0  0  0  0  0  0  0
    3.6145   -0.4959    0.0000 C   0  0  0  0  0  0  0  0  0  0  0  0
    4.3290   -0.0834    0.0000 C   0  0  0  0  0  0  0  0  0  0  0  0
    5.0435   -0.4959    0.0000 C   0  0  0  0  0  0  0  0  0  0  0  0
    5.7579   -0.0834    0.0000 C   0  0  0  0  0  0  0  0  0  0  0  0
    6.4724   -0.4959    0.0000 C   0  0  0  0  0  0  0  0  0  0  0  0
    7.1869   -0.0834    0.0000 C   0  0  0  0  0  0  0  0  0  0  0  0
    7.9013   -0.4959    0.0000 C   0  0  0  0  0  0  0  0  0  0  0  0
    8.6158   -0.0834    0.0000 C   0  0  0  0  0  0  0  0  0  0  0  0
  1  2  2  0  0  0  0
  1  3  1  0  0  0  0
  3  4  1  0  0  0  0
  1  5  1  0  0  0  0
  5  6  1  0  0  0  0
  6  7  1  0  0  0  0
  7  8  1  0  0  0  0
  8  9  1  0  0  0  0
  9 10  1  0  0  0  0
 10 11  1  0  0  0  0
 11 12  1  0  0  0  0
 12 13  1  0  0  0  0
 13 14  1  0  0  0  0
 14 15  1  0  0  0  0
M  END
> <ChemID>
10319

> <CAS>
111-82-0

> <Original_SMILES>
CCCCCCCCCCCC(=O)OC

> <preferred_name>
Methyl dodecanoate

> <dsstox_substance_id>
DTXSID5026889

> <dsstox_compound_id>
DTXCID206889

> <Canonical_QSARr>
CCCCCCCCCCCC(=O)OC

> <InChI_Code_QSARr>
InChI=1S/C13H26O2/c1-3-4-5-6-7-8-9-10-11-12-13(14)15-2/h3-12H2,1-2H3

> <InChI Key_QSARr>
UQDUPQYQJKYHQI-UHFFFAOYSA-N

> <Salt_Solvent>


> <Salt_Solvent_ID>
0

> <Clint>
2.6485551556626703

> <Tr_1_Tst_0>
1

$$$$
Row479
  Mrv171c012261910192D          

 10 10  0  0  0  0            999 V2000
    1.6461   -1.7710    0.0000 C   0  0  0  0  0  0  0  0  0  0  0  0
    0.9317   -1.3585    0.0000 C   0  0  0  0  0  0  0  0  0  0  0  0
    0.9317   -0.5335    0.0000 Cl  0  0  0  0  0  0  0  0  0  0  0  0
    0.2172   -1.7710    0.0000 C   0  0  0  0  0  0  0  0  0  0  0  0
    0.2172   -2.5960    0.0000 C   0  0  0  0  0  0  0  0  0  0  0  0
    0.9317   -3.0085    0.0000 C   0  0  0  0  0  0  0  0  0  0  0  0
    1.6461   -2.5960    0.0000 C   0  0  0  0  0  0  0  0  0  0  0  0
    2.3606   -3.0085    0.0000 Cl  0  0  0  0  0  0  0  0  0  0  0  0
    2.3606   -1.3585    0.0000 C   0  0  0  0  0  0  0  0  0  0  0  0
    3.0751   -0.9460    0.0000 N   0  0  0  0  0  0  0  0  0  0  0  0
  2  1  2  0  0  0  0
  2  3  1  0  0  0  0
  4  2  1  0  0  0  0
  5  4  2  0  0  0  0
  6  5  1  0  0  0  0
  7  6  2  0  0  0  0
  1  7  1  0  0  0  0
  7  8  1  0  0  0  0
  1  9  1  0  0  0  0
  9 10  3  0  0  0  0
M  END
> <ChemID>
10320

> <CAS>
1194-65-6

> <Original_SMILES>
N#Cc1c(Cl)cccc1Cl

> <preferred_name>
Dichlobenil

> <dsstox_substance_id>
DTXSID5032365

> <dsstox_compound_id>
DTXCID3012365

> <Canonical_QSARr>
N#CC1C(Cl)=CC=CC=1Cl

> <InChI_Code_QSARr>
InChI=1S/C7H3Cl2N/c8-6-2-1-3-7(9)5(6)4-10/h1-3H

> <InChI Key_QSARr>
YOYAIZYFCNQIRF-UHFFFAOYSA-N

> <Salt_Solvent>


> <Salt_Solvent_ID>
0

> <Clint>
0.8475726591421121

> <Tr_1_Tst_0>
0

$$$$
Row143
  Mrv171c012261910192D          

 17 18  0  0  0  0            999 V2000
    2.0605   -2.8795    0.0000 N   0  0  0  0  0  0  0  0  0  0  0  0
    2.8855   -2.8795    0.0000 C   0  0  0  0  0  0  0  0  0  0  0  0
    3.1404   -2.0949    0.0000 C   0  0  0  0  0  0  0  0  0  0  0  0
    2.4730   -1.6099    0.0000 N   0  0  0  0  0  0  0  0  0  0  0  0
    2.4730   -0.7849    0.0000 C   0  0  0  0  0  0  0  0  0  0  0  0
    3.1875   -0.3724    0.0000 C   0  0  0  0  0  0  0  0  0  0  0  0
    3.9019   -0.7849    0.0000 C   0  0  0  0  0  0  0  0  0  0  0  0
    4.6164   -0.3724    0.0000 C   0  0  0  0  0  0  0  0  0  0  0  0
    4.6164    0.4526    0.0000 C   0  0  0  0  0  0  0  0  0  0  0  0
    5.3309    0.8651    0.0000 Cl  0  0  0  0  0  0  0  0  0  0  0  0
    3.9019    0.8651    0.0000 N   0  0  0  0  0  0  0  0  0  0  0  0
    3.1875    0.4526    0.0000 C   0  0  0  0  0  0  0  0  0  0  0  0
    1.8056   -2.0949    0.0000 C   0  0  0  0  0  0  0  0  0  0  0  0
    1.0209   -1.8399    0.0000 N   0  0  0  0  0  0  0  0  0  0  0  0
    0.4078   -2.3919    0.0000 N   0  3  0  0  0  0  0  0  0  0  0  0
    0.5794   -3.1989    0.0000 O   0  0  0  0  0  0  0  0  0  0  0  0
   -0.3768   -2.1370    0.0000 O   0  5  0  0  0  0  0  0  0  0  0  0
  2  1  1  0  0  0  0
  3  2  1  0  0  0  0
  4  3  1  0  0  0  0
  4  5  1  0  0  0  0
  5  6  1  0  0  0  0
  7  6  1  0  0  0  0
  8  7  2  0  0  0  0
  9  8  1  0  0  0  0
  9 10  1  0  0  0  0
 11  9  2  0  0  0  0
 12 11  1  0  0  0  0
  6 12  2  0  0  0  0
 13  4  1  0  0  0  0
  1 13  1  0  0  0  0
 13 14  2  0  0  0  0
 14 15  1  0  0  0  0
 15 16  2  0  0  0  0
 15 17  1  0  0  0  0
M  CHG  2  15   1  17  -1
M  END
> <ChemID>
10321

> <CAS>
138261-41-3

> <Original_SMILES>
[O-][N+](=O)/N=C1\NCCN\1Cc1ccc(Cl)[n]c1

> <preferred_name>
Imidacloprid

> <dsstox_substance_id>
DTXSID5032442

> <dsstox_compound_id>
DTXCID3012442

> <Canonical_QSARr>
[O-][N+](=O)/N=C1\NCCN\1CC1C=CC(Cl)=NC=1

> <InChI_Code_QSARr>
InChI=1S/C9H10ClN5O2/c10-8-2-1-7(5-12-8)6-14-4-3-11-9(14)13-15(16)17/h1-2,5H,3-4,6H2,(H,11,13)

> <InChI Key_QSARr>
YWTYJOPNNQFBPC-UHFFFAOYSA-N

> <Salt_Solvent>


> <Salt_Solvent_ID>
0

> <Clint>
0.44870631990507986

> <Tr_1_Tst_0>
1

$$$$
Row402
  Mrv171c012261910192D          

 17 18  0  0  0  0            999 V2000
    2.1895   -1.9816    0.0000 O   0  0  0  0  0  0  0  0  0  0  0  0
    2.1895   -1.1566    0.0000 C   0  0  0  0  0  0  0  0  0  0  0  0
    2.9039   -0.7441    0.0000 C   0  0  0  0  0  0  0  0  0  0  0  0
    2.9039    0.0809    0.0000 C   0  0  0  0  0  0  0  0  0  0  0  0
    2.1895    0.4934    0.0000 C   0  0  0  0  0  0  0  0  0  0  0  0
    2.1895    1.3184    0.0000 Cl  0  0  0  0  0  0  0  0  0  0  0  0
    1.4750    0.0809    0.0000 C   0  0  0  0  0  0  0  0  0  0  0  0
    1.4750   -0.7441    0.0000 C   0  0  0  0  0  0  0  0  0  0  0  0
    0.7605   -1.1566    0.0000 O   0  0  0  0  0  0  0  0  0  0  0  0
    2.9039   -2.3941    0.0000 C   0  0  0  0  0  0  0  0  0  0  0  0
    2.9039   -3.2191    0.0000 C   0  0  0  0  0  0  0  0  0  0  0  0
    3.6184   -3.6316    0.0000 C   0  0  0  0  0  0  0  0  0  0  0  0
    4.3329   -3.2191    0.0000 C   0  0  0  0  0  0  0  0  0  0  0  0
    5.0473   -3.6316    0.0000 Cl  0  0  0  0  0  0  0  0  0  0  0  0
    4.3329   -2.3941    0.0000 C   0  0  0  0  0  0  0  0  0  0  0  0
    3.6184   -1.9816    0.0000 C   0  0  0  0  0  0  0  0  0  0  0  0
    3.6184   -1.1566    0.0000 Cl  0  0  0  0  0  0  0  0  0  0  0  0
  1  2  1  0  0  0  0
  3  2  1  0  0  0  0
  4  3  2  0  0  0  0
  5  4  1  0  0  0  0
  5  6  1  0  0  0  0
  7  5  2  0  0  0  0
  8  7  1  0  0  0  0
  2  8  2  0  0  0  0
  8  9  1  0  0  0  0
  1 10  1  0  0  0  0
 11 10  2  0  0  0  0
 12 11  1  0  0  0  0
 13 12  2  0  0  0  0
 13 14  1  0  0  0  0
 15 13  1  0  0  0  0
 16 15  2  0  0  0  0
 10 16  1  0  0  0  0
 16 17  1  0  0  0  0
M  END
> <ChemID>
10322

> <CAS>
3380-34-5

> <Original_SMILES>
Oc1cc(Cl)ccc1Oc1ccc(Cl)cc1Cl

> <preferred_name>
Triclosan

> <dsstox_substance_id>
DTXSID5032498

> <dsstox_compound_id>
DTXCID3012498

> <Canonical_QSARr>
OC1C=C(Cl)C=CC=1OC1=CC=C(Cl)C=C1Cl

> <InChI_Code_QSARr>
InChI=1S/C12H7Cl3O2/c13-7-1-3-11(9(15)5-7)17-12-4-2-8(14)6-10(12)16/h1-6,16H

> <InChI Key_QSARr>
XEFQLINVKFYRCS-UHFFFAOYSA-N

> <Salt_Solvent>


> <Salt_Solvent_ID>
0

> <Clint>
2.074926097123955

> <Tr_1_Tst_0>
1

$$$$
Row355
  Mrv171c012261910192D          

 10 11  0  0  0  0            999 V2000
    0.0668   -1.4386    0.0000 N   0  0  0  0  0  0  0  0  0  0  0  0
    0.5518   -0.7711    0.0000 C   0  0  0  0  0  0  0  0  0  0  0  0
    0.2968    0.0135    0.0000 O   0  0  0  0  0  0  0  0  0  0  0  0
    1.3364   -1.0261    0.0000 C   0  0  0  0  0  0  0  0  0  0  0  0
    2.0509   -0.6136    0.0000 C   0  0  0  0  0  0  0  0  0  0  0  0
    2.7653   -1.0261    0.0000 C   0  0  0  0  0  0  0  0  0  0  0  0
    2.7653   -1.8511    0.0000 C   0  0  0  0  0  0  0  0  0  0  0  0
    2.0509   -2.2636    0.0000 C   0  0  0  0  0  0  0  0  0  0  0  0
    1.3364   -1.8511    0.0000 C   0  0  0  0  0  0  0  0  0  0  0  0
    0.5518   -2.1060    0.0000 S   0  0  0  0  0  0  0  0  0  0  0  0
  2  1  1  0  0  0  0
  2  3  2  0  0  0  0
  4  2  1  0  0  0  0
  4  5  1  0  0  0  0
  5  6  2  0  0  0  0
  6  7  1  0  0  0  0
  7  8  2  0  0  0  0
  8  9  1  0  0  0  0
  9  4  2  0  0  0  0
 10  9  1  0  0  0  0
  1 10  1  0  0  0  0
M  END
> <ChemID>
10323

> <CAS>
2634-33-5

> <Original_SMILES>
O=C1NSc2ccccc21

> <preferred_name>
1,2-Benzisothiazolin-3-one

> <dsstox_substance_id>
DTXSID5032523

> <dsstox_compound_id>
DTXCID3012523

> <Canonical_QSARr>
O=C1NSC2C=CC=CC=21

> <InChI_Code_QSARr>
InChI=1S/C7H5NOS/c9-7-5-3-1-2-4-6(5)10-8-7/h1-4H,(H,8,9)

> <InChI Key_QSARr>
DMSMPAJRVJJAGA-UHFFFAOYSA-N

> <Salt_Solvent>


> <Salt_Solvent_ID>
0

> <Clint>
1.5408298141110797

> <Tr_1_Tst_0>
1

$$$$
Row369
  Mrv171c012261910192D          

 22 23  0  0  0  0            999 V2000
    1.4281   -2.3266    0.0000 O   0  0  0  0  0  0  0  0  0  0  0  0
    0.7136   -1.9141    0.0000 C   0  0  0  0  0  0  0  0  0  0  0  0
   -0.0009   -2.3266    0.0000 C   0  0  0  0  0  0  0  0  0  0  0  0
    0.7136   -1.0891    0.0000 C   0  0  0  0  0  0  0  0  0  0  0  0
    2.1426   -1.9141    0.0000 C   0  0  0  0  0  0  0  0  0  0  0  0
    2.1426   -1.0891    0.0000 O   0  0  0  0  0  0  0  0  0  0  0  0
    2.8570   -2.3266    0.0000 N   0  0  0  0  0  0  0  0  0  0  0  0
    3.5715   -1.9141    0.0000 N   0  0  0  0  0  0  0  0  0  0  0  0
    4.2860   -2.3266    0.0000 C   0  0  0  0  0  0  0  0  0  0  0  0
    4.2860   -3.1516    0.0000 C   0  0  0  0  0  0  0  0  0  0  0  0
    3.5715   -3.5641    0.0000 O   0  0  0  0  0  0  0  0  0  0  0  0
    3.5715   -4.3891    0.0000 C   0  0  0  0  0  0  0  0  0  0  0  0
    5.0004   -3.5641    0.0000 C   0  0  0  0  0  0  0  0  0  0  0  0
    5.7149   -3.1516    0.0000 C   0  0  0  0  0  0  0  0  0  0  0  0
    5.7149   -2.3266    0.0000 C   0  0  0  0  0  0  0  0  0  0  0  0
    6.4294   -1.9141    0.0000 C   0  0  0  0  0  0  0  0  0  0  0  0
    7.1439   -2.3266    0.0000 C   0  0  0  0  0  0  0  0  0  0  0  0
    7.8583   -1.9141    0.0000 C   0  0  0  0  0  0  0  0  0  0  0  0
    7.8583   -1.0891    0.0000 C   0  0  0  0  0  0  0  0  0  0  0  0
    7.1439   -0.6766    0.0000 C   0  0  0  0  0  0  0  0  0  0  0  0
    6.4294   -1.0891    0.0000 C   0  0  0  0  0  0  0  0  0  0  0  0
    5.0004   -1.9141    0.0000 C   0  0  0  0  0  0  0  0  0  0  0  0
  1  2  1  0  0  0  0
  2  3  1  0  0  0  0
  2  4  1  0  0  0  0
  1  5  1  0  0  0  0
  5  6  2  0  0  0  0
  5  7  1  0  0  0  0
  7  8  1  0  0  0  0
  8  9  1  0  0  0  0
 10  9  2  0  0  0  0
 10 11  1  0  0  0  0
 11 12  1  0  0  0  0
 13 10  1  0  0  0  0
 14 13  2  0  0  0  0
 15 14  1  0  0  0  0
 15 16  1  0  0  0  0
 17 16  1  0  0  0  0
 18 17  2  0  0  0  0
 19 18  1  0  0  0  0
 20 19  2  0  0  0  0
 21 20  1  0  0  0  0
 16 21  2  0  0  0  0
 22 15  2  0  0  0  0
  9 22  1  0  0  0  0
M  END
> <ChemID>
10324

> <CAS>
149877-41-8

> <Original_SMILES>
COc1ccc(cc1NNC(=O)OC(C)C)-c1ccccc1

> <preferred_name>
Bifenazate

> <dsstox_substance_id>
DTXSID5032525

> <dsstox_compound_id>
DTXCID3012525

> <Canonical_QSARr>
COC1C=CC(=CC=1NNC(=O)OC(C)C)C1C=CC=CC=1

> <InChI_Code_QSARr>
InChI=1S/C17H20N2O3/c1-12(2)22-17(20)19-18-15-11-14(9-10-16(15)21-3)13-7-5-4-6-8-13/h4-12,18H,1-3H3,(H,19,20)

> <InChI Key_QSARr>
VHLKTXFWDRXILV-UHFFFAOYSA-N

> <Salt_Solvent>


> <Salt_Solvent_ID>
0

> <Clint>
1.6143698395482886

> <Tr_1_Tst_0>
1

$$$$
Row388
  Mrv171c012261910192D          

 24 25  0  0  0  0            999 V2000
    5.3478   -3.2101    0.0000 N   0  0  0  0  0  0  0  0  0  0  0  0
    5.3478   -2.3851    0.0000 C   0  0  0  0  0  0  0  0  0  0  0  0
    4.6333   -1.9726    0.0000 C   0  0  0  0  0  0  0  0  0  0  0  0
    4.6333   -1.1476    0.0000 S   0  0  0  0  0  0  0  0  0  0  0  0
    3.9188   -0.7351    0.0000 C   0  0  0  0  0  0  0  0  0  0  0  0
    3.9188    0.0899    0.0000 C   0  0  0  0  0  0  0  0  0  0  0  0
    4.6333    0.5024    0.0000 C   0  0  0  0  0  0  0  0  0  0  0  0
    4.6333    1.3274    0.0000 C   0  0  0  0  0  0  0  0  0  0  0  0
    3.9188    1.7399    0.0000 C   0  0  0  0  0  0  0  0  0  0  0  0
    3.9188    2.5649    0.0000 C   0  0  0  0  0  0  0  0  0  0  0  0
    3.9188    3.3899    0.0000 C   0  0  0  0  0  0  0  0  0  0  0  0
    3.0938    2.5649    0.0000 C   0  0  0  0  0  0  0  0  0  0  0  0
    4.7438    2.5649    0.0000 C   0  0  0  0  0  0  0  0  0  0  0  0
    3.2044    1.3274    0.0000 C   0  0  0  0  0  0  0  0  0  0  0  0
    3.2044    0.5024    0.0000 C   0  0  0  0  0  0  0  0  0  0  0  0
    3.9188   -2.3851    0.0000 C   0  0  0  0  0  0  0  0  0  0  0  0
    3.2044   -1.9726    0.0000 Cl  0  0  0  0  0  0  0  0  0  0  0  0
    3.9188   -3.2101    0.0000 C   0  0  0  0  0  0  0  0  0  0  0  0
    3.2044   -3.6226    0.0000 O   0  0  0  0  0  0  0  0  0  0  0  0
    4.6333   -3.6226    0.0000 N   0  0  0  0  0  0  0  0  0  0  0  0
    4.6333   -4.4476    0.0000 C   0  0  0  0  0  0  0  0  0  0  0  0
    4.6333   -5.2726    0.0000 C   0  0  0  0  0  0  0  0  0  0  0  0
    3.8083   -4.4476    0.0000 C   0  0  0  0  0  0  0  0  0  0  0  0
    5.4583   -4.4476    0.0000 C   0  0  0  0  0  0  0  0  0  0  0  0
  2  1  2  0  0  0  0
  3  2  1  0  0  0  0
  3  4  1  0  0  0  0
  4  5  1  0  0  0  0
  5  6  1  0  0  0  0
  7  6  1  0  0  0  0
  8  7  2  0  0  0  0
  9  8  1  0  0  0  0
  9 10  1  0  0  0  0
 10 11  1  0  0  0  0
 10 12  1  0  0  0  0
 10 13  1  0  0  0  0
 14  9  2  0  0  0  0
 15 14  1  0  0  0  0
  6 15  2  0  0  0  0
 16  3  2  0  0  0  0
 16 17  1  0  0  0  0
 18 16  1  0  0  0  0
 18 19  2  0  0  0  0
 20 18  1  0  0  0  0
  1 20  1  0  0  0  0
 20 21  1  0  0  0  0
 21 22  1  0  0  0  0
 21 23  1  0  0  0  0
 21 24  1  0  0  0  0
M  END
> <ChemID>
10325

> <CAS>
96489-71-3

> <Original_SMILES>
CC(C)(C)N1N=CC(SCc2ccc(cc2)C(C)(C)C)=C(Cl)C1=O

> <preferred_name>
Pyridaben

> <dsstox_substance_id>
DTXSID5032573

> <dsstox_compound_id>
DTXCID3012573

> <Canonical_QSARr>
CC(C)(C)N1N=CC(SCC2C=CC(=CC=2)C(C)(C)C)=C(Cl)C1=O

> <InChI_Code_QSARr>
InChI=1S/C19H25ClN2OS/c1-18(2,3)14-9-7-13(8-10-14)12-24-15-11-21-22(19(4,5)6)17(23)16(15)20/h7-11H,12H2,1-6H3

> <InChI Key_QSARr>
DWFZBUWUXWZWKD-UHFFFAOYSA-N

> <Salt_Solvent>


> <Salt_Solvent_ID>
0

> <Clint>
1.805704704433864

> <Tr_1_Tst_0>
1

$$$$
Row330
  Mrv171c012261910192D          

 27 28  0  0  0  0            999 V2000
    3.1879   -2.1190    0.0000 C   0  0  0  0  0  0  0  0  0  0  0  0
    2.5559   -2.6493    0.0000 C   0  0  0  0  0  0  0  0  0  0  0  0
    1.9239   -2.1190    0.0000 C   0  0  0  0  0  0  0  0  0  0  0  0
    2.9684   -3.3638    0.0000 C   0  0  0  0  0  0  0  0  0  0  0  0
    3.6829   -3.7763    0.0000 C   0  0  0  0  0  0  0  0  0  0  0  0
    3.6829   -4.6013    0.0000 C   0  0  0  0  0  0  0  0  0  0  0  0
    2.9684   -5.0138    0.0000 Cl  0  0  0  0  0  0  0  0  0  0  0  0
    4.3974   -5.0138    0.0000 C   0  0  0  0  0  0  0  0  0  0  0  0
    5.1118   -5.4263    0.0000 F   0  0  0  0  0  0  0  0  0  0  0  0
    4.8099   -4.2993    0.0000 F   0  0  0  0  0  0  0  0  0  0  0  0
    3.9849   -5.7283    0.0000 F   0  0  0  0  0  0  0  0  0  0  0  0
    2.1434   -3.3638    0.0000 C   0  0  0  0  0  0  0  0  0  0  0  0
    1.4289   -3.7763    0.0000 C   0  0  0  0  0  0  0  0  0  0  0  0
    1.4289   -4.6013    0.0000 O   0  0  0  0  0  0  0  0  0  0  0  0
    0.7145   -3.3638    0.0000 O   0  0  0  0  0  0  0  0  0  0  0  0
    0.0000   -3.7763    0.0000 C   0  0  0  0  0  0  0  0  0  0  0  0
   -0.7145   -3.3638    0.0000 C   0  0  0  0  0  0  0  0  0  0  0  0
   -1.4289   -3.7763    0.0000 C   0  0  0  0  0  0  0  0  0  0  0  0
   -1.4289   -4.6013    0.0000 F   0  0  0  0  0  0  0  0  0  0  0  0
   -2.1434   -3.3638    0.0000 C   0  0  0  0  0  0  0  0  0  0  0  0
   -2.8579   -3.7763    0.0000 F   0  0  0  0  0  0  0  0  0  0  0  0
   -2.1434   -2.5388    0.0000 C   0  0  0  0  0  0  0  0  0  0  0  0
   -2.8579   -2.1263    0.0000 C   0  0  0  0  0  0  0  0  0  0  0  0
   -1.4289   -2.1263    0.0000 C   0  0  0  0  0  0  0  0  0  0  0  0
   -1.4289   -1.3013    0.0000 F   0  0  0  0  0  0  0  0  0  0  0  0
   -0.7145   -2.5388    0.0000 C   0  0  0  0  0  0  0  0  0  0  0  0
    0.0000   -2.1263    0.0000 F   0  0  0  0  0  0  0  0  0  0  0  0
  1  2  1  0  0  0  0
  2  3  1  0  0  0  0
  2  4  1  0  0  0  0
  5  4  1  4  0  0  0
  5  6  2  0  0  0  0
  6  7  1  0  0  0  0
  6  8  1  0  0  0  0
  8  9  1  0  0  0  0
  8 10  1  0  0  0  0
  8 11  1  0  0  0  0
  4 12  1  0  0  0  0
  2 12  1  0  0  0  0
 12 13  1  0  0  0  0
 13 14  2  0  0  0  0
 13 15  1  0  0  0  0
 15 16  1  0  0  0  0
 16 17  1  0  0  0  0
 17 18  1  0  0  0  0
 18 19  1  0  0  0  0
 18 20  2  0  0  0  0
 20 21  1  0  0  0  0
 20 22  1  0  0  0  0
 22 23  1  0  0  0  0
 22 24  2  0  0  0  0
 24 25  1  0  0  0  0
 24 26  1  0  0  0  0
 17 26  2  0  0  0  0
 26 27  1  0  0  0  0
M  END
> <ChemID>
10326

> <CAS>
79538-32-2

> <Original_SMILES>
CC1(C)C(/C=C(\Cl)/C(F)(F)F)C1C(=O)OCc1c(F)c(F)c(C)c(F)c1F

> <preferred_name>
Tefluthrin

> <dsstox_substance_id>
DTXSID5032577

> <dsstox_compound_id>
DTXCID3012577

> <Canonical_QSARr>
CC1(C)C(C=C(Cl)C(F)(F)F)C1C(=O)OCC1C(F)=C(F)C(C)=C(F)C=1F

> <InChI_Code_QSARr>
InChI=1S/C17H14ClF7O2/c1-6-11(19)13(21)7(14(22)12(6)20)5-27-15(26)10-8(16(10,2)3)4-9(18)17(23,24)25/h4,8,10H,5H2,1-3H3

> <InChI Key_QSARr>
ZFHGXWPMULPQSE-UHFFFAOYSA-N

> <Salt_Solvent>


> <Salt_Solvent_ID>
0

> <Clint>
1.394626764272209

> <Tr_1_Tst_0>
1

$$$$
Row77
  Mrv171c012261910192D          

 17 18  0  0  0  0            999 V2000
    3.8697   -0.7135    0.0000 O   0  0  0  0  0  0  0  0  0  0  0  0
    3.7265   -1.5260    0.0000 C   0  0  0  0  0  0  0  0  0  0  0  0
    2.9512   -1.8081    0.0000 N   0  0  0  0  0  0  0  0  0  0  0  0
    2.3192   -1.2778    0.0000 C   0  0  0  0  0  0  0  0  0  0  0  0
    2.4625   -0.4654    0.0000 C   0  0  0  0  0  0  0  0  0  0  0  0
    1.8305    0.0649    0.0000 C   0  0  0  0  0  0  0  0  0  0  0  0
    1.0553   -0.2172    0.0000 C   0  0  0  0  0  0  0  0  0  0  0  0
    0.4233    0.3131    0.0000 Cl  0  0  0  0  0  0  0  0  0  0  0  0
    0.9120   -1.0297    0.0000 C   0  0  0  0  0  0  0  0  0  0  0  0
    1.5440   -1.5600    0.0000 C   0  0  0  0  0  0  0  0  0  0  0  0
    1.4007   -2.3725    0.0000 Cl  0  0  0  0  0  0  0  0  0  0  0  0
    4.3585   -2.0563    0.0000 C   0  0  0  0  0  0  0  0  0  0  0  0
    4.9904   -1.5260    0.0000 C   0  0  0  0  0  0  0  0  0  0  0  0
    4.8472   -0.7135    0.0000 O   0  0  0  0  0  0  0  0  0  0  0  0
    5.7657   -1.8081    0.0000 O   0  0  0  0  0  0  0  0  0  0  0  0
    3.9460   -2.7708    0.0000 C   0  0  0  0  0  0  0  0  0  0  0  0
    4.7710   -2.7708    0.0000 C   0  0  0  0  0  0  0  0  0  0  0  0
  1  2  2  0  0  0  0
  2  3  1  0  0  0  0
  3  4  1  0  0  0  0
  5  4  2  0  0  0  0
  6  5  1  0  0  0  0
  7  6  2  0  0  0  0
  7  8  1  0  0  0  0
  9  7  1  0  0  0  0
 10  9  2  0  0  0  0
  4 10  1  0  0  0  0
 10 11  1  0  0  0  0
  2 12  1  0  0  0  0
 12 13  1  0  0  0  0
 13 14  1  0  0  0  0
 13 15  2  0  0  0  0
 16 12  1  0  0  0  0
 17 16  1  0  0  0  0
 12 17  1  0  0  0  0
M  END
> <ChemID>
10327

> <CAS>
113136-77-9

> <Original_SMILES>
OC(=O)C1(CC1)C(=O)Nc1ccc(Cl)cc1Cl

> <preferred_name>
Cyclanilide

> <dsstox_substance_id>
DTXSID5032600

> <dsstox_compound_id>
DTXCID3012600

> <Canonical_QSARr>
OC(=O)C1(CC1)C(=O)NC1=CC=C(Cl)C=C1Cl

> <InChI_Code_QSARr>
InChI=1S/C11H9Cl2NO3/c12-6-1-2-8(7(13)5-6)14-9(15)11(3-4-11)10(16)17/h1-2,5H,3-4H2,(H,14,15)(H,16,17)

> <InChI Key_QSARr>
GLWWLNJJJCTFMZ-UHFFFAOYSA-N

> <Salt_Solvent>


> <Salt_Solvent_ID>
0

> <Clint>
-0.46852108295774475

> <Tr_1_Tst_0>
1

$$$$
Row12
  Mrv171c012261910192D          

 20 21  0  0  0  0            999 V2000
    3.7634   -1.0465    0.0000 C   0  0  0  0  0  0  0  0  0  0  0  0
    4.5480   -0.7915    0.0000 O   0  0  0  0  0  0  0  0  0  0  0  0
    3.0959   -0.5616    0.0000 C   0  0  0  0  0  0  0  0  0  0  0  0
    3.6480    0.0515    0.0000 C   0  0  0  0  0  0  0  0  0  0  0  0
    2.5439    0.0515    0.0000 C   0  0  0  0  0  0  0  0  0  0  0  0
    1.7369   -0.1200    0.0000 C   0  0  0  0  0  0  0  0  0  0  0  0
    2.7988    0.8362    0.0000 C   0  0  0  0  0  0  0  0  0  0  0  0
    2.4285   -1.0465    0.0000 N   0  0  0  0  0  0  0  0  0  0  0  0
    2.6834   -1.8311    0.0000 C   0  0  0  0  0  0  0  0  0  0  0  0
    2.1985   -2.4985    0.0000 C   0  0  0  0  0  0  0  0  0  0  0  0
    1.3780   -2.4123    0.0000 N   0  0  0  0  0  0  0  0  0  0  0  0
    0.8931   -3.0797    0.0000 C   0  0  0  0  0  0  0  0  0  0  0  0
    1.2287   -3.8334    0.0000 C   0  0  0  0  0  0  0  0  0  0  0  0
    0.7437   -4.5009    0.0000 C   0  0  0  0  0  0  0  0  0  0  0  0
    2.0492   -3.9196    0.0000 C   0  0  0  0  0  0  0  0  0  0  0  0
    2.5341   -3.2522    0.0000 C   0  0  0  0  0  0  0  0  0  0  0  0
    3.3546   -3.3384    0.0000 C   0  0  0  0  0  0  0  0  0  0  0  0
    3.8395   -2.6710    0.0000 O   0  0  0  0  0  0  0  0  0  0  0  0
    3.6901   -4.0921    0.0000 O   0  0  0  0  0  0  0  0  0  0  0  0
    3.5084   -1.8311    0.0000 N   0  0  0  0  0  0  0  0  0  0  0  0
  1  2  2  0  0  0  0
  3  1  1  0  0  0  0
  3  4  1  0  0  0  0
  3  5  1  0  0  0  0
  5  6  1  0  0  0  0
  5  7  1  0  0  0  0
  8  3  1  0  0  0  0
  9  8  1  0  0  0  0
  9 10  1  0  0  0  0
 11 10  2  0  0  0  0
 12 11  1  0  0  0  0
 13 12  2  0  0  0  0
 13 14  1  0  0  0  0
 15 13  1  0  0  0  0
 16 15  2  0  0  0  0
 10 16  1  0  0  0  0
 16 17  1  0  0  0  0
 17 18  1  0  0  0  0
 17 19  2  0  0  0  0
 20  9  2  0  0  0  0
  1 20  1  0  0  0  0
M  END
> <ChemID>
10328

> <CAS>
104098-48-8

> <Original_SMILES>
Cc1c[n]c(c(c1)C(O)=O)C1NC(C)(C(C)C)C(=O)N=1

> <preferred_name>
Imazapic

> <dsstox_substance_id>
DTXSID5034270

> <dsstox_compound_id>
DTXCID3014270

> <Canonical_QSARr>
CC1C=C(C(=NC=1)C1NC(C)(C(C)C)C(=O)N=1)C(O)=O

> <InChI_Code_QSARr>
InChI=1S/C14H17N3O3/c1-7(2)14(4)13(20)16-11(17-14)10-9(12(18)19)5-8(3)6-15-10/h5-7H,1-4H3,(H,18,19)(H,16,17,20)

> <InChI Key_QSARr>
PVSGXWMWNRGTKE-UHFFFAOYSA-N

> <Salt_Solvent>


> <Salt_Solvent_ID>
0

> <Clint>
-7.0

> <Tr_1_Tst_0>
1

$$$$
Row230
  Mrv171c012261910192D          

 23 23  0  0  0  0            999 V2000
    2.1495   -1.2412    0.0000 C   0  0  0  0  0  0  0  0  0  0  0  0
    2.8639   -0.8287    0.0000 O   0  0  0  0  0  0  0  0  0  0  0  0
    3.5784   -1.2412    0.0000 C   0  0  0  0  0  0  0  0  0  0  0  0
    4.2929   -0.8287    0.0000 C   0  0  0  0  0  0  0  0  0  0  0  0
    4.2929   -0.0037    0.0000 O   0  0  0  0  0  0  0  0  0  0  0  0
    5.0073   -1.2412    0.0000 O   0  0  0  0  0  0  0  0  0  0  0  0
    5.7218   -0.8287    0.0000 C   0  0  0  0  0  0  0  0  0  0  0  0
    5.7218   -0.0037    0.0000 C   0  0  0  0  0  0  0  0  0  0  0  0
    6.4363   -1.2412    0.0000 C   0  0  0  0  0  0  0  0  0  0  0  0
    7.1507   -0.8287    0.0000 C   0  0  0  0  0  0  0  0  0  0  0  0
    7.8652   -1.2412    0.0000 C   0  0  0  0  0  0  0  0  0  0  0  0
    8.5797   -0.8287    0.0000 C   0  0  0  0  0  0  0  0  0  0  0  0
    9.2942   -1.2412    0.0000 C   0  0  0  0  0  0  0  0  0  0  0  0
   10.0086   -0.8287    0.0000 C   0  0  0  0  0  0  0  0  0  0  0  0
    1.4350   -0.8287    0.0000 N   0  0  0  0  0  0  0  0  0  0  0  0
    0.7205   -1.2412    0.0000 C   0  0  0  0  0  0  0  0  0  0  0  0
    0.0060   -0.8287    0.0000 F   0  0  0  0  0  0  0  0  0  0  0  0
    0.7205   -2.0662    0.0000 C   0  0  0  0  0  0  0  0  0  0  0  0
    0.0060   -2.4787    0.0000 Cl  0  0  0  0  0  0  0  0  0  0  0  0
    1.4350   -2.4787    0.0000 C   0  0  0  0  0  0  0  0  0  0  0  0
    1.4350   -3.3037    0.0000 N   0  0  0  0  0  0  0  0  0  0  0  0
    2.1495   -2.0662    0.0000 C   0  0  0  0  0  0  0  0  0  0  0  0
    2.8639   -2.4787    0.0000 Cl  0  0  0  0  0  0  0  0  0  0  0  0
  1  2  1  0  0  0  0
  2  3  1  0  0  0  0
  3  4  1  0  0  0  0
  4  5  2  0  0  0  0
  4  6  1  0  0  0  0
  6  7  1  0  0  0  0
  7  8  1  0  0  0  0
  7  9  1  0  0  0  0
  9 10  1  0  0  0  0
 10 11  1  0  0  0  0
 11 12  1  0  0  0  0
 12 13  1  0  0  0  0
 13 14  1  0  0  0  0
 15  1  2  0  0  0  0
 16 15  1  0  0  0  0
 16 17  1  0  0  0  0
 18 16  2  0  0  0  0
 18 19  1  0  0  0  0
 20 18  1  0  0  0  0
 20 21  1  0  0  0  0
 22 20  2  0  0  0  0
  1 22  1  0  0  0  0
 22 23  1  0  0  0  0
M  END
> <ChemID>
10329

> <CAS>
81406-37-3

> <Original_SMILES>
CCCCCCC(C)OC(=O)COc1[n]c(F)c(Cl)c(N)c1Cl

> <preferred_name>
Fluroxypyr-meptyl

> <dsstox_substance_id>
DTXSID5034303

> <dsstox_compound_id>
DTXCID3014303

> <Canonical_QSARr>
CCCCCCC(C)OC(=O)COC1=NC(F)=C(Cl)C(N)=C1Cl

> <InChI_Code_QSARr>
InChI=1S/C15H21Cl2FN2O3/c1-3-4-5-6-7-9(2)23-10(21)8-22-15-12(17)13(19)11(16)14(18)20-15/h9H,3-8H2,1-2H3,(H2,19,20)

> <InChI Key_QSARr>
OLZQTUCTGLHFTQ-UHFFFAOYSA-N

> <Salt_Solvent>


> <Salt_Solvent_ID>
0

> <Clint>
0.9965116721541786

> <Tr_1_Tst_0>
1

$$$$
Row515
  Mrv171c012261910192D          

 24 26  0  0  0  0            999 V2000
    2.8034   -2.7998    0.0000 C   0  0  0  0  0  0  0  0  0  0  0  0
    3.4165   -2.2478    0.0000 C   0  0  0  0  0  0  0  0  0  0  0  0
    4.2011   -2.5027    0.0000 C   0  0  0  0  0  0  0  0  0  0  0  0
    4.8142   -1.9507    0.0000 C   0  0  0  0  0  0  0  0  0  0  0  0
    4.6427   -1.1437    0.0000 C   0  0  0  0  0  0  0  0  0  0  0  0
    5.2558   -0.5917    0.0000 C   0  0  0  0  0  0  0  0  0  0  0  0
    5.8689   -0.0397    0.0000 F   0  0  0  0  0  0  0  0  0  0  0  0
    4.7037    0.0214    0.0000 F   0  0  0  0  0  0  0  0  0  0  0  0
    5.8078   -1.2048    0.0000 F   0  0  0  0  0  0  0  0  0  0  0  0
    3.8580   -0.8888    0.0000 C   0  0  0  0  0  0  0  0  0  0  0  0
    3.2449   -1.4408    0.0000 C   0  0  0  0  0  0  0  0  0  0  0  0
    2.4603   -1.1859    0.0000 S   0  0  0  0  0  0  0  0  0  0  0  0
    1.6757   -0.9309    0.0000 C   0  0  0  0  0  0  0  0  0  0  0  0
    2.2054   -1.9705    0.0000 O   0  0  0  0  0  0  0  0  0  0  0  0
    2.7153   -0.4013    0.0000 O   0  0  0  0  0  0  0  0  0  0  0  0
    2.0188   -2.5449    0.0000 C   0  0  0  0  0  0  0  0  0  0  0  0
    1.7638   -1.7603    0.0000 C   0  0  0  0  0  0  0  0  0  0  0  0
    0.9388   -1.7603    0.0000 N   0  0  0  0  0  0  0  0  0  0  0  0
    0.6839   -2.5449    0.0000 O   0  0  0  0  0  0  0  0  0  0  0  0
    1.3513   -3.0298    0.0000 C   0  0  0  0  0  0  0  0  0  0  0  0
    1.3513   -3.8548    0.0000 C   0  0  0  0  0  0  0  0  0  0  0  0
    0.9388   -4.5693    0.0000 C   0  0  0  0  0  0  0  0  0  0  0  0
    1.7638   -4.5693    0.0000 C   0  0  0  0  0  0  0  0  0  0  0  0
    2.9749   -3.6068    0.0000 O   0  0  0  0  0  0  0  0  0  0  0  0
  1  2  1  0  0  0  0
  3  2  1  0  0  0  0
  4  3  2  0  0  0  0
  5  4  1  0  0  0  0
  5  6  1  0  0  0  0
  6  7  1  0  0  0  0
  6  8  1  0  0  0  0
  6  9  1  0  0  0  0
 10  5  2  0  0  0  0
 11 10  1  0  0  0  0
  2 11  2  0  0  0  0
 11 12  1  0  0  0  0
 12 13  1  0  0  0  0
 12 14  2  0  0  0  0
 12 15  2  0  0  0  0
  1 16  1  0  0  0  0
 17 16  1  0  0  0  0
 18 17  2  0  0  0  0
 19 18  1  0  0  0  0
 20 19  1  0  0  0  0
 16 20  2  0  0  0  0
 20 21  1  0  0  0  0
 22 21  1  0  0  0  0
 23 22  1  0  0  0  0
 21 23  1  0  0  0  0
  1 24  2  0  0  0  0
M  END
> <ChemID>
10330

> <CAS>
141112-29-0

> <Original_SMILES>
CS(=O)(=O)c1cc(ccc1C(=O)c1c[n]oc1C1CC1)C(F)(F)F

> <preferred_name>
Isoxaflutole

> <dsstox_substance_id>
DTXSID5034723

> <dsstox_compound_id>
DTXCID3014723

> <Canonical_QSARr>
CS(=O)(=O)C1C=C(C=CC=1C(=O)C1C=NOC=1C1CC1)C(F)(F)F

> <InChI_Code_QSARr>
InChI=1S/C15H12F3NO4S/c1-24(21,22)12-6-9(15(16,17)18)4-5-10(12)13(20)11-7-19-23-14(11)8-2-3-8/h4-8H,2-3H2,1H3

> <InChI Key_QSARr>
OYIKARCXOQLFHF-UHFFFAOYSA-N

> <Salt_Solvent>


> <Salt_Solvent_ID>
0

> <Clint>
1.3100557377508915

> <Tr_1_Tst_0>
0

$$$$
Row144
  Mrv171c012261910192D          

 32 33  0  0  0  0            999 V2000
    5.6210   -3.6186    0.0000 C   0  0  0  0  0  0  0  0  0  0  0  0
    5.6210   -2.7936    0.0000 O   0  0  0  0  0  0  0  0  0  0  0  0
    4.9065   -4.0311    0.0000 C   0  0  0  0  0  0  0  0  0  0  0  0
    4.1921   -3.6186    0.0000 C   0  0  0  0  0  0  0  0  0  0  0  0
    4.1921   -2.7936    0.0000 F   0  0  0  0  0  0  0  0  0  0  0  0
    3.4776   -4.0311    0.0000 C   0  0  0  0  0  0  0  0  0  0  0  0
    3.4776   -4.8561    0.0000 C   0  0  0  0  0  0  0  0  0  0  0  0
    4.1921   -5.2686    0.0000 C   0  0  0  0  0  0  0  0  0  0  0  0
    4.9065   -4.8561    0.0000 C   0  0  0  0  0  0  0  0  0  0  0  0
    5.6210   -5.2686    0.0000 F   0  0  0  0  0  0  0  0  0  0  0  0
    6.3355   -4.0311    0.0000 N   0  0  0  0  0  0  0  0  0  0  0  0
    7.0499   -3.6186    0.0000 C   0  0  0  0  0  0  0  0  0  0  0  0
    7.0499   -2.7936    0.0000 O   0  0  0  0  0  0  0  0  0  0  0  0
    7.7644   -4.0311    0.0000 N   0  0  0  0  0  0  0  0  0  0  0  0
    8.4789   -3.6186    0.0000 C   0  0  0  0  0  0  0  0  0  0  0  0
    9.1933   -4.0311    0.0000 C   0  0  0  0  0  0  0  0  0  0  0  0
    9.9078   -3.6186    0.0000 C   0  0  0  0  0  0  0  0  0  0  0  0
    9.9078   -2.7936    0.0000 C   0  0  0  0  0  0  0  0  0  0  0  0
   10.6223   -2.3811    0.0000 O   0  0  0  0  0  0  0  0  0  0  0  0
   10.6223   -1.5561    0.0000 C   0  0  0  0  0  0  0  0  0  0  0  0
   11.4473   -1.5561    0.0000 F   0  0  0  0  0  0  0  0  0  0  0  0
    9.7973   -1.5561    0.0000 F   0  0  0  0  0  0  0  0  0  0  0  0
   10.6223   -0.7311    0.0000 C   0  0  0  0  0  0  0  0  0  0  0  0
    9.9078   -0.3186    0.0000 F   0  0  0  0  0  0  0  0  0  0  0  0
   11.3368   -0.3186    0.0000 O   0  0  0  0  0  0  0  0  0  0  0  0
   11.3368    0.5064    0.0000 C   0  0  0  0  0  0  0  0  0  0  0  0
   11.3368    1.3314    0.0000 F   0  0  0  0  0  0  0  0  0  0  0  0
   12.1618    0.5064    0.0000 F   0  0  0  0  0  0  0  0  0  0  0  0
   10.5118    0.5064    0.0000 F   0  0  0  0  0  0  0  0  0  0  0  0
    9.1933   -2.3811    0.0000 C   0  0  0  0  0  0  0  0  0  0  0  0
    9.1933   -1.5561    0.0000 Cl  0  0  0  0  0  0  0  0  0  0  0  0
    8.4789   -2.7936    0.0000 C   0  0  0  0  0  0  0  0  0  0  0  0
  1  2  2  0  0  0  0
  1  3  1  0  0  0  0
  4  3  2  0  0  0  0
  4  5  1  0  0  0  0
  6  4  1  0  0  0  0
  7  6  2  0  0  0  0
  8  7  1  0  0  0  0
  9  8  2  0  0  0  0
  3  9  1  0  0  0  0
  9 10  1  0  0  0  0
  1 11  1  0  0  0  0
 11 12  1  0  0  0  0
 12 13  2  0  0  0  0
 12 14  1  0  0  0  0
 14 15  1  0  0  0  0
 16 15  1  0  0  0  0
 17 16  2  0  0  0  0
 18 17  1  0  0  0  0
 18 19  1  0  0  0  0
 19 20  1  0  0  0  0
 20 21  1  0  0  0  0
 20 22  1  0  0  0  0
 20 23  1  0  0  0  0
 23 24  1  0  0  0  0
 23 25  1  0  0  0  0
 25 26  1  0  0  0  0
 26 27  1  0  0  0  0
 26 28  1  0  0  0  0
 26 29  1  0  0  0  0
 30 18  2  0  0  0  0
 30 31  1  0  0  0  0
 32 30  1  0  0  0  0
 15 32  2  0  0  0  0
M  END
> <ChemID>
10331

> <CAS>
116714-46-6

> <Original_SMILES>
O=C(NC(=O)Nc1cc(Cl)c(cc1)OC(F)(F)C(F)OC(F)(F)F)c1c(F)cccc1F

> <preferred_name>
Novaluron

> <dsstox_substance_id>
DTXSID5034773

> <dsstox_compound_id>
DTXCID3014773

> <Canonical_QSARr>
O=C(NC1=CC(Cl)=C(C=C1)OC(F)(F)C(F)OC(F)(F)F)NC(=O)C1C(F)=CC=CC=1F

> <InChI_Code_QSARr>
InChI=1S/C17H9ClF8N2O4/c18-8-6-7(4-5-11(8)31-16(22,23)14(21)32-17(24,25)26)27-15(30)28-13(29)12-9(19)2-1-3-10(12)20/h1-6,14H,(H2,27,28,29,30)

> <InChI Key_QSARr>
NJPPVKZQTLUDBO-UHFFFAOYSA-N

> <Salt_Solvent>


> <Salt_Solvent_ID>
0

> <Clint>
0.4578818967339923

> <Tr_1_Tst_0>
1

$$$$
Row530
  Mrv171c012261910192D          

 19 19  0  0  0  0            999 V2000
    4.4357   -2.0873    0.0000 P   0  0  0  0  0  0  0  0  0  0  0  0
    3.7213   -2.4998    0.0000 O   0  0  0  0  0  0  0  0  0  0  0  0
    3.0068   -2.0873    0.0000 C   0  0  0  0  0  0  0  0  0  0  0  0
    3.0068   -1.2623    0.0000 C   0  0  0  0  0  0  0  0  0  0  0  0
    2.2923   -0.8498    0.0000 C   0  0  0  0  0  0  0  0  0  0  0  0
    2.2923   -0.0248    0.0000 C   0  0  0  0  0  0  0  0  0  0  0  0
    1.5779   -1.2623    0.0000 N   0  0  0  0  0  0  0  0  0  0  0  0
    1.5779   -2.0873    0.0000 C   0  0  0  0  0  0  0  0  0  0  0  0
    0.8634   -2.4998    0.0000 C   0  0  0  0  0  0  0  0  0  0  0  0
    0.1489   -2.0873    0.0000 C   0  0  0  0  0  0  0  0  0  0  0  0
    0.8634   -3.3248    0.0000 C   0  0  0  0  0  0  0  0  0  0  0  0
    2.2923   -2.4998    0.0000 N   0  0  0  0  0  0  0  0  0  0  0  0
    5.1502   -1.6748    0.0000 O   0  0  0  0  0  0  0  0  0  0  0  0
    5.8647   -2.0873    0.0000 C   0  0  0  0  0  0  0  0  0  0  0  0
    6.5792   -1.6748    0.0000 C   0  0  0  0  0  0  0  0  0  0  0  0
    4.8482   -2.8017    0.0000 O   0  0  0  0  0  0  0  0  0  0  0  0
    5.6732   -2.8017    0.0000 C   0  0  0  0  0  0  0  0  0  0  0  0
    6.0857   -3.5162    0.0000 C   0  0  0  0  0  0  0  0  0  0  0  0
    4.0232   -1.3728    0.0000 O   0  0  0  0  0  0  0  0  0  0  0  0
  1  2  1  0  0  0  0
  2  3  1  0  0  0  0
  4  3  1  0  0  0  0
  5  4  2  0  0  0  0
  5  6  1  0  0  0  0
  7  5  1  0  0  0  0
  8  7  2  0  0  0  0
  8  9  1  0  0  0  0
  9 10  1  0  0  0  0
  9 11  1  0  0  0  0
 12  8  1  0  0  0  0
  3 12  2  0  0  0  0
  1 13  1  0  0  0  0
 13 14  1  0  0  0  0
 14 15  1  0  0  0  0
  1 16  1  0  0  0  0
 16 17  1  0  0  0  0
 17 18  1  0  0  0  0
  1 19  2  0  0  0  0
M  END
> <ChemID>
10332

> <CAS>
962-58-3

> <Original_SMILES>
Cc1cc([n]c([n]1)C(C)C)OP(=O)(OCC)OCC

> <preferred_name>
Diazoxon

> <dsstox_substance_id>
DTXSID5037523

> <dsstox_compound_id>
DTXCID3017523

> <Canonical_QSARr>
CC1=CC(=NC(=N1)C(C)C)OP(=O)(OCC)OCC

> <InChI_Code_QSARr>
InChI=1S/C12H21N2O4P/c1-6-16-19(15,17-7-2)18-11-8-10(5)13-12(14-11)9(3)4/h8-9H,6-7H2,1-5H3

> <InChI Key_QSARr>
VBLJFQYCTRKKKF-UHFFFAOYSA-N

> <Salt_Solvent>


> <Salt_Solvent_ID>
0

> <Clint>
1.5393270635393748

> <Tr_1_Tst_0>
0

$$$$
Row228
  Mrv171c012261910192D          

 17 17  0  0  0  0            999 V2000
    2.3943   -0.7696    0.0000 C   0  0  0  0  0  0  0  0  0  0  0  0
    3.1088   -0.3571    0.0000 O   0  0  0  0  0  0  0  0  0  0  0  0
    2.3943   -1.5946    0.0000 N   0  0  0  0  0  0  0  0  0  0  0  0
    3.1088   -2.0071    0.0000 C   0  0  0  0  0  0  0  0  0  0  0  0
    3.1088   -2.8321    0.0000 C   0  0  0  0  0  0  0  0  0  0  0  0
    2.3943   -3.2446    0.0000 C   0  0  0  0  0  0  0  0  0  0  0  0
    2.3943   -4.0696    0.0000 C   0  0  0  0  0  0  0  0  0  0  0  0
    3.1088   -4.4821    0.0000 C   0  0  0  0  0  0  0  0  0  0  0  0
    3.8232   -4.0696    0.0000 C   0  0  0  0  0  0  0  0  0  0  0  0
    3.8232   -3.2446    0.0000 C   0  0  0  0  0  0  0  0  0  0  0  0
    1.6798   -2.0071    0.0000 C   0  0  0  0  0  0  0  0  0  0  0  0
    1.6798   -2.8321    0.0000 C   0  0  0  0  0  0  0  0  0  0  0  0
    0.9654   -1.5946    0.0000 C   0  0  0  0  0  0  0  0  0  0  0  0
    1.6798   -0.3571    0.0000 C   0  0  0  0  0  0  0  0  0  0  0  0
    0.9654    0.0554    0.0000 C   0  0  0  0  0  0  0  0  0  0  0  0
    2.0923    0.3574    0.0000 C   0  0  0  0  0  0  0  0  0  0  0  0
    1.2673   -1.0716    0.0000 C   0  0  0  0  0  0  0  0  0  0  0  0
  1  2  2  0  0  0  0
  1  3  1  0  0  0  0
  3  4  1  0  0  0  0
  4  5  1  0  0  0  0
  6  5  1  0  0  0  0
  7  6  2  0  0  0  0
  8  7  1  0  0  0  0
  9  8  2  0  0  0  0
 10  9  1  0  0  0  0
  5 10  2  0  0  0  0
  3 11  1  0  0  0  0
 11 12  1  0  0  0  0
 11 13  1  0  0  0  0
  1 14  1  0  0  0  0
 14 15  1  0  0  0  0
 14 16  1  0  0  0  0
 14 17  1  0  0  0  0
M  END
> <ChemID>
10333

> <CAS>
35256-85-0

> <Original_SMILES>
CC(C)(C)C(=O)N(Cc1ccccc1)C(C)C

> <preferred_name>
Butam

> <dsstox_substance_id>
DTXSID5041691

> <dsstox_compound_id>
DTXCID3021691

> <Canonical_QSARr>
CC(C)N(CC1C=CC=CC=1)C(=O)C(C)(C)C

> <InChI_Code_QSARr>
InChI=1S/C15H23NO/c1-12(2)16(14(17)15(3,4)5)11-13-9-7-6-8-10-13/h6-10,12H,11H2,1-5H3

> <InChI Key_QSARr>
RJKCKKDSSSRYCB-UHFFFAOYSA-N

> <Salt_Solvent>


> <Salt_Solvent_ID>
0

> <Clint>
0.9932598314367368

> <Tr_1_Tst_0>
1

$$$$
Row342
  Mrv171c012261910192D          

 29 30  0  0  0  0            999 V2000
    0.1507   -2.2020    0.0000 C   0  0  0  0  0  0  0  0  0  0  0  0
    0.8651   -2.6145    0.0000 S   0  0  0  0  0  0  0  0  0  0  0  0
    0.4526   -3.3289    0.0000 O   0  0  0  0  0  0  0  0  0  0  0  0
    1.2776   -1.9000    0.0000 O   0  0  0  0  0  0  0  0  0  0  0  0
    1.5796   -3.0270    0.0000 N   0  0  0  0  0  0  0  0  0  0  0  0
    2.2941   -2.6145    0.0000 C   0  0  0  0  0  0  0  0  0  0  0  0
    3.0085   -3.0270    0.0000 C   0  0  0  0  0  0  0  0  0  0  0  0
    3.7230   -2.6145    0.0000 C   0  0  0  0  0  0  0  0  0  0  0  0
    3.7230   -1.7895    0.0000 C   0  0  0  0  0  0  0  0  0  0  0  0
    4.4375   -1.3770    0.0000 O   0  0  0  0  0  0  0  0  0  0  0  0
    5.1520   -1.7895    0.0000 C   0  0  0  0  0  0  0  0  0  0  0  0
    5.8664   -1.3770    0.0000 C   0  0  0  0  0  0  0  0  0  0  0  0
    6.5809   -1.7895    0.0000 N   0  0  0  0  0  0  0  0  0  0  0  0
    6.5809   -2.6145    0.0000 C   0  0  0  0  0  0  0  0  0  0  0  0
    7.2954   -1.3770    0.0000 C   0  0  0  0  0  0  0  0  0  0  0  0
    8.0098   -1.7895    0.0000 C   0  0  0  0  0  0  0  0  0  0  0  0
    8.7243   -1.3770    0.0000 C   0  0  0  0  0  0  0  0  0  0  0  0
    9.4388   -1.7895    0.0000 C   0  0  0  0  0  0  0  0  0  0  0  0
   10.1532   -1.3770    0.0000 C   0  0  0  0  0  0  0  0  0  0  0  0
   10.1532   -0.5520    0.0000 C   0  0  0  0  0  0  0  0  0  0  0  0
   10.8677   -0.1395    0.0000 N   0  0  0  0  0  0  0  0  0  0  0  0
   10.8677    0.6855    0.0000 S   0  0  0  0  0  0  0  0  0  0  0  0
   10.8677    1.5105    0.0000 O   0  0  0  0  0  0  0  0  0  0  0  0
   11.6927    0.6855    0.0000 O   0  0  0  0  0  0  0  0  0  0  0  0
   10.0427    0.6855    0.0000 C   0  0  0  0  0  0  0  0  0  0  0  0
    9.4388   -0.1395    0.0000 C   0  0  0  0  0  0  0  0  0  0  0  0
    8.7243   -0.5520    0.0000 C   0  0  0  0  0  0  0  0  0  0  0  0
    3.0085   -1.3770    0.0000 C   0  0  0  0  0  0  0  0  0  0  0  0
    2.2941   -1.7895    0.0000 C   0  0  0  0  0  0  0  0  0  0  0  0
  1  2  1  0  0  0  0
  2  3  2  0  0  0  0
  2  4  2  0  0  0  0
  2  5  1  0  0  0  0
  5  6  1  0  0  0  0
  7  6  2  0  0  0  0
  8  7  1  0  0  0  0
  9  8  2  0  0  0  0
  9 10  1  0  0  0  0
 10 11  1  0  0  0  0
 11 12  1  0  0  0  0
 12 13  1  0  0  0  0
 13 14  1  0  0  0  0
 13 15  1  0  0  0  0
 15 16  1  0  0  0  0
 16 17  1  0  0  0  0
 18 17  1  0  0  0  0
 19 18  2  0  0  0  0
 20 19  1  0  0  0  0
 20 21  1  0  0  0  0
 21 22  1  0  0  0  0
 22 23  2  0  0  0  0
 22 24  2  0  0  0  0
 22 25  1  0  0  0  0
 26 20  2  0  0  0  0
 27 26  1  0  0  0  0
 17 27  2  0  0  0  0
 28  9  1  0  0  0  0
 29 28  2  0  0  0  0
  6 29  1  0  0  0  0
M  END
> <ChemID>
10334

> <CAS>
115256-11-6

> <Original_SMILES>
CS(=O)(=O)Nc1ccc(cc1)OCCN(C)CCc1ccc(cc1)NS(C)(=O)=O

> <preferred_name>
Dofetilide

> <dsstox_substance_id>
DTXSID5046433

> <dsstox_compound_id>
DTXCID3026433

> <Canonical_QSARr>
CS(=O)(=O)NC1C=CC(=CC=1)OCCN(C)CCC1C=CC(=CC=1)NS(C)(=O)=O

> <InChI_Code_QSARr>
InChI=1S/C19H27N3O5S2/c1-22(13-12-16-4-6-17(7-5-16)20-28(2,23)24)14-15-27-19-10-8-18(9-11-19)21-29(3,25)26/h4-11,20-21H,12-15H2,1-3H3

> <InChI Key_QSARr>
IXTMWRCNAAVVAI-UHFFFAOYSA-N

> <Salt_Solvent>


> <Salt_Solvent_ID>
0

> <Clint>
1.447158031342219

> <Tr_1_Tst_0>
1

$$$$
Row137
  Mrv171c012261910192D          

 22 25  0  0  0  0            999 V2000
    2.5043   -1.4071    0.0000 C   0  0  0  0  0  0  0  0  0  0  0  0
    2.4180   -2.2275    0.0000 C   0  0  0  0  0  0  0  0  0  0  0  0
    3.2187   -0.9946    0.0000 N   0  0  0  0  0  0  0  0  0  0  0  0
    3.0472   -0.1876    0.0000 C   0  0  0  0  0  0  0  0  0  0  0  0
    2.2267   -0.1013    0.0000 N   0  0  0  0  0  0  0  0  0  0  0  0
    1.8912   -0.8550    0.0000 C   0  0  0  0  0  0  0  0  0  0  0  0
    1.0842   -1.0265    0.0000 C   0  0  0  0  0  0  0  0  0  0  0  0
    0.5322   -0.4135    0.0000 C   0  0  0  0  0  0  0  0  0  0  0  0
    0.7871    0.3712    0.0000 C   0  0  0  0  0  0  0  0  0  0  0  0
    0.2351    0.9843    0.0000 C   0  0  0  0  0  0  0  0  0  0  0  0
   -0.5719    0.8127    0.0000 C   0  0  0  0  0  0  0  0  0  0  0  0
   -0.8268    0.0281    0.0000 N   0  0  0  0  0  0  0  0  0  0  0  0
   -1.6518    0.0281    0.0000 C   0  0  0  0  0  0  0  0  0  0  0  0
   -1.9068    0.8127    0.0000 C   0  0  0  0  0  0  0  0  0  0  0  0
   -1.2393    1.2977    0.0000 C   0  0  0  0  0  0  0  0  0  0  0  0
   -1.2393    2.1227    0.0000 C   0  0  0  0  0  0  0  0  0  0  0  0
   -2.7137    0.9843    0.0000 C   0  0  0  0  0  0  0  0  0  0  0  0
   -3.2658    0.3712    0.0000 C   0  0  0  0  0  0  0  0  0  0  0  0
   -3.0108   -0.4135    0.0000 C   0  0  0  0  0  0  0  0  0  0  0  0
   -2.2039   -0.5850    0.0000 C   0  0  0  0  0  0  0  0  0  0  0  0
   -0.2748   -0.5850    0.0000 C   0  0  0  0  0  0  0  0  0  0  0  0
   -0.5297   -1.3696    0.0000 O   0  0  0  0  0  0  0  0  0  0  0  0
  1  2  1  0  0  0  0
  3  1  1  0  0  0  0
  4  3  2  0  0  0  0
  5  4  1  0  0  0  0
  6  5  1  0  0  0  0
  1  6  2  0  0  0  0
  6  7  1  0  0  0  0
  7  8  1  0  0  0  0
  9  8  1  0  0  0  0
 10  9  1  0  0  0  0
 11 10  1  0  0  0  0
 11 12  1  0  0  0  0
 12 13  1  0  0  0  0
 14 13  1  0  0  0  0
 14 15  1  0  0  0  0
 15 11  2  0  0  0  0
 15 16  1  0  0  0  0
 17 14  2  0  0  0  0
 18 17  1  0  0  0  0
 19 18  2  0  0  0  0
 20 19  1  0  0  0  0
 13 20  2  0  0  0  0
 21 12  1  0  0  0  0
  8 21  1  0  0  0  0
 21 22  2  0  0  0  0
M  END
> <ChemID>
10335

> <CAS>
129299-72-5

> <Original_SMILES>
Cc1[n]c[nH]c1CC1CCc2c(C)c3ccccc3[n]2C1=O

> <preferred_name>
FK 1052

> <dsstox_substance_id>
DTXSID50861300

> <dsstox_compound_id>
DTXCID80197245

> <Canonical_QSARr>
CC1N=CNC=1CC1CCC2=C(C)C3=CC=CC=C3N2C1=O

> <InChI_Code_QSARr>
InChI=1S/C18H19N3O/c1-11-14-5-3-4-6-17(14)21-16(11)8-7-13(18(21)22)9-15-12(2)19-10-20-15/h3-6,10,13H,7-9H2,1-2H3,(H,19,20)

> <InChI Key_QSARr>
AEKQMJRJRAHOAP-UHFFFAOYSA-N

> <Salt_Solvent>


> <Salt_Solvent_ID>
0

> <Clint>
0.40823996531184953

> <Tr_1_Tst_0>
1

$$$$
Row49
  Mrv171c012261910192D          

 19 23  0  0  0  0            999 V2000
    0.8791   -2.2674    0.0000 C   0  0  0  0  0  0  0  0  0  0  0  0
    1.5936   -2.6799    0.0000 C   0  0  0  0  0  0  0  0  0  0  0  0
    1.7998   -1.8549    0.0000 C   0  0  0  0  0  0  0  0  0  0  0  0
    1.5936   -1.0299    0.0000 C   0  0  0  0  0  0  0  0  0  0  0  0
    2.1954   -1.4726    0.0000 C   0  0  0  0  0  0  0  0  0  0  0  0
    3.0225   -1.0299    0.0000 C   0  0  0  0  0  0  0  0  0  0  0  0
    3.2138   -0.1477    0.0000 Cl  0  0  0  0  0  0  0  0  0  0  0  0
    3.2288   -1.8549    0.0000 C   0  0  0  0  0  0  0  0  0  0  0  0
    2.5237   -0.9691    0.0000 Cl  0  0  0  0  0  0  0  0  0  0  0  0
    2.5404   -2.7583    0.0000 Cl  0  0  0  0  0  0  0  0  0  0  0  0
    3.0225   -2.6799    0.0000 C   0  0  0  0  0  0  0  0  0  0  0  0
    3.2450   -3.5556    0.0000 Cl  0  0  0  0  0  0  0  0  0  0  0  0
    3.7370   -2.2674    0.0000 C   0  0  0  0  0  0  0  0  0  0  0  0
    4.4962   -2.6868    0.0000 Cl  0  0  0  0  0  0  0  0  0  0  0  0
    3.7370   -1.4424    0.0000 C   0  0  0  0  0  0  0  0  0  0  0  0
    4.4973   -1.0254    0.0000 Cl  0  0  0  0  0  0  0  0  0  0  0  0
    2.3081   -2.2674    0.0000 C   0  0  0  0  0  0  0  0  0  0  0  0
    0.8791   -1.4424    0.0000 C   0  0  0  0  0  0  0  0  0  0  0  0
    0.1646   -1.8549    0.0000 O   0  0  0  0  0  0  0  0  0  0  0  0
  2  1  1  0  0  0  0
  2  3  1  0  0  0  0
  3  4  1  0  0  0  0
  4  5  1  0  0  0  0
  6  5  1  0  0  0  0
  6  7  1  0  0  0  0
  6  8  1  0  0  0  0
  8  9  1  0  0  0  0
  8 10  1  0  0  0  0
  8 11  1  0  0  0  0
 11 12  1  0  0  0  0
 11 13  1  0  0  0  0
 13 14  1  0  0  0  0
 13 15  2  0  0  0  0
 15  6  1  0  0  0  0
 15 16  1  0  0  0  0
 17 11  1  0  0  0  0
  5 17  1  0  0  0  0
 17  2  1  0  0  0  0
 18  4  1  0  0  0  0
 18  1  1  0  0  0  0
 19 18  1  0  0  0  0
  1 19  1  0  0  0  0
M  END
> <ChemID>
10336

> <CAS>
72-20-8|60-57-1

> <Original_SMILES>
ClC1(Cl)[C@@]2(Cl)[C@@H]3[C@H]4C[C@H]([C@@H]5O[C@@H]54)[C@@H]3[C@]1(Cl)C(Cl)=C2Cl

> <preferred_name>
Endrin|Dieldrin

> <dsstox_substance_id>
DTXSID6020561|DTXSID9020453

> <dsstox_compound_id>
DTXCID90196608|DTXCID30196607

> <Canonical_QSARr>
ClC1(Cl)C2(Cl)C3C4CC(C5OC54)C3C1(Cl)C(Cl)=C2Cl

> <InChI_Code_QSARr>
InChI=1S/C12H8Cl6O/c13-8-9(14)11(16)5-3-1-2(6-7(3)19-6)4(5)10(8,15)12(11,17)18/h2-7H,1H2

> <InChI Key_QSARr>
DFBKLUNHFCTMDC-UHFFFAOYSA-N

> <Salt_Solvent>


> <Salt_Solvent_ID>
0

> <Clint>
0.6296134453781831

> <Tr_1_Tst_0>
1

$$$$
Row430
  Mrv171c012261910192D          

 21 22  0  0  0  0            999 V2000
    2.1475   -3.0282    0.0000 C   0  0  0  0  0  0  0  0  0  0  0  0
    2.8620   -3.4407    0.0000 C   0  0  0  0  0  0  0  0  0  0  0  0
    2.8620   -4.2657    0.0000 O   0  0  0  0  0  0  0  0  0  0  0  0
    3.5764   -3.0282    0.0000 O   0  0  0  0  0  0  0  0  0  0  0  0
    2.1475   -2.2032    0.0000 C   0  0  0  0  0  0  0  0  0  0  0  0
    1.4330   -1.7907    0.0000 C   0  0  0  0  0  0  0  0  0  0  0  0
    1.4330   -0.9657    0.0000 S   0  0  0  0  0  0  0  0  0  0  0  0
    1.4330   -0.1407    0.0000 O   0  0  0  0  0  0  0  0  0  0  0  0
    0.6080   -0.9657    0.0000 O   0  0  0  0  0  0  0  0  0  0  0  0
    2.2580   -0.9657    0.0000 N   0  0  0  0  0  0  0  0  0  0  0  0
    0.7186   -2.2032    0.0000 C   0  0  0  0  0  0  0  0  0  0  0  0
    0.0041   -1.7907    0.0000 Cl  0  0  0  0  0  0  0  0  0  0  0  0
    0.7186   -3.0282    0.0000 C   0  0  0  0  0  0  0  0  0  0  0  0
    1.4330   -3.4407    0.0000 C   0  0  0  0  0  0  0  0  0  0  0  0
    1.4330   -4.2657    0.0000 N   0  0  0  0  0  0  0  0  0  0  0  0
    0.7186   -4.6782    0.0000 C   0  0  0  0  0  0  0  0  0  0  0  0
    0.7186   -5.5032    0.0000 C   0  0  0  0  0  0  0  0  0  0  0  0
    0.0511   -5.9881    0.0000 O   0  0  0  0  0  0  0  0  0  0  0  0
    0.3061   -6.7727    0.0000 C   0  0  0  0  0  0  0  0  0  0  0  0
    1.1311   -6.7727    0.0000 C   0  0  0  0  0  0  0  0  0  0  0  0
    1.3860   -5.9881    0.0000 C   0  0  0  0  0  0  0  0  0  0  0  0
  1  2  1  0  0  0  0
  2  3  2  0  0  0  0
  2  4  1  0  0  0  0
  5  1  2  0  0  0  0
  6  5  1  0  0  0  0
  6  7  1  0  0  0  0
  7  8  2  0  0  0  0
  7  9  2  0  0  0  0
  7 10  1  0  0  0  0
 11  6  2  0  0  0  0
 11 12  1  0  0  0  0
 13 11  1  0  0  0  0
 14 13  2  0  0  0  0
  1 14  1  0  0  0  0
 14 15  1  0  0  0  0
 15 16  1  0  0  0  0
 16 17  1  0  0  0  0
 18 17  1  0  0  0  0
 19 18  1  0  0  0  0
 20 19  2  0  0  0  0
 21 20  1  0  0  0  0
 17 21  2  0  0  0  0
M  END
> <ChemID>
10337

> <CAS>
54-31-9

> <Original_SMILES>
NS(=O)(=O)c1cc(C(O)=O)c(cc1Cl)NCc1ccco1

> <preferred_name>
Furosemide

> <dsstox_substance_id>
DTXSID6020648

> <dsstox_compound_id>
DTXCID80648

> <Canonical_QSARr>
NS(=O)(=O)C1C=C(C(O)=O)C(=CC=1Cl)NCC1=CC=CO1

> <InChI_Code_QSARr>
InChI=1S/C12H11ClN2O5S/c13-9-5-10(15-6-7-2-1-3-20-7)8(12(16)17)4-11(9)21(14,18)19/h1-5,15H,6H2,(H,16,17)(H2,14,18,19)

> <InChI Key_QSARr>
ZZUFCTLCJUWOSV-UHFFFAOYSA-N

> <Salt_Solvent>


> <Salt_Solvent_ID>
0

> <Clint>
-7.0

> <Tr_1_Tst_0>
0

$$$$
Row65
  Mrv171c012261910192D          

 19 20  0  0  0  0            999 V2000
    4.0807   -1.6498    0.0000 O   0  0  0  0  0  0  0  0  0  0  0  0
    3.3662   -2.0623    0.0000 C   0  0  0  0  0  0  0  0  0  0  0  0
    3.3662   -2.8873    0.0000 C   0  0  0  0  0  0  0  0  0  0  0  0
    2.6518   -3.2998    0.0000 C   0  0  0  0  0  0  0  0  0  0  0  0
    2.6518   -4.1248    0.0000 C   0  0  0  0  0  0  0  0  0  0  0  0
    3.3662   -4.5373    0.0000 C   0  0  0  0  0  0  0  0  0  0  0  0
    4.0807   -4.1248    0.0000 C   0  0  0  0  0  0  0  0  0  0  0  0
    4.0807   -3.2998    0.0000 C   0  0  0  0  0  0  0  0  0  0  0  0
    2.6518   -1.6498    0.0000 C   0  0  0  0  0  0  0  0  0  0  0  0
    2.6518   -0.8248    0.0000 C   0  0  0  0  0  0  0  0  0  0  0  0
    1.9373   -0.4123    0.0000 C   0  0  0  0  0  0  0  0  0  0  0  0
    1.9373    0.4127    0.0000 C   0  0  0  0  0  0  0  0  0  0  0  0
    1.2228    0.8252    0.0000 C   0  0  0  0  0  0  0  0  0  0  0  0
    2.6518    0.8252    0.0000 C   0  0  0  0  0  0  0  0  0  0  0  0
    2.6518    1.6502    0.0000 O   0  0  0  0  0  0  0  0  0  0  0  0
    3.3662    0.4127    0.0000 O   0  0  0  0  0  0  0  0  0  0  0  0
    1.2228   -0.8248    0.0000 C   0  0  0  0  0  0  0  0  0  0  0  0
    1.2228   -1.6498    0.0000 C   0  0  0  0  0  0  0  0  0  0  0  0
    1.9373   -2.0623    0.0000 C   0  0  0  0  0  0  0  0  0  0  0  0
  1  2  2  0  0  0  0
  2  3  1  0  0  0  0
  4  3  1  0  0  0  0
  5  4  2  0  0  0  0
  6  5  1  0  0  0  0
  7  6  2  0  0  0  0
  8  7  1  0  0  0  0
  3  8  2  0  0  0  0
  2  9  1  0  0  0  0
 10  9  1  0  0  0  0
 11 10  2  0  0  0  0
 11 12  1  0  0  0  0
 12 13  1  0  0  0  0
 12 14  1  0  0  0  0
 14 15  1  0  0  0  0
 14 16  2  0  0  0  0
 17 11  1  0  0  0  0
 18 17  2  0  0  0  0
 19 18  1  0  0  0  0
  9 19  2  0  0  0  0
M  END
> <ChemID>
10338

> <CAS>
22071-15-4

> <Original_SMILES>
CC(C(O)=O)c1cc(ccc1)C(=O)c1ccccc1

> <preferred_name>
Ketoprofen

> <dsstox_substance_id>
DTXSID6020771

> <dsstox_compound_id>
DTXCID40771

> <Canonical_QSARr>
CC(C(O)=O)C1C=CC=C(C=1)C(=O)C1C=CC=CC=1

> <InChI_Code_QSARr>
InChI=1S/C16H14O3/c1-11(16(18)19)13-8-5-9-14(10-13)15(17)12-6-3-2-4-7-12/h2-11H,1H3,(H,18,19)

> <InChI Key_QSARr>
DKYWVDODHFEZIM-UHFFFAOYSA-N

> <Salt_Solvent>


> <Salt_Solvent_ID>
0

> <Clint>
-5.045757490560675

> <Tr_1_Tst_0>
1

$$$$
Row484
  Mrv171c012261910192D          

 15 16  0  0  0  0            999 V2000
    0.6753   -0.2112    0.0000 O   0  0  0  0  0  0  0  0  0  0  0  0
    0.6753   -1.0362    0.0000 N   0  0  0  0  0  0  0  0  0  0  0  0
    1.3898   -1.4487    0.0000 N   0  0  0  0  0  0  0  0  0  0  0  0
    1.3898   -2.2737    0.0000 C   0  0  0  0  0  0  0  0  0  0  0  0
    0.6753   -2.6862    0.0000 C   0  0  0  0  0  0  0  0  0  0  0  0
    0.6753   -3.5112    0.0000 C   0  0  0  0  0  0  0  0  0  0  0  0
    1.3898   -3.9237    0.0000 C   0  0  0  0  0  0  0  0  0  0  0  0
    2.1043   -3.5112    0.0000 C   0  0  0  0  0  0  0  0  0  0  0  0
    2.1043   -2.6862    0.0000 C   0  0  0  0  0  0  0  0  0  0  0  0
    2.1043   -1.0362    0.0000 C   0  0  0  0  0  0  0  0  0  0  0  0
    2.8188   -1.4487    0.0000 C   0  0  0  0  0  0  0  0  0  0  0  0
    3.5332   -1.0362    0.0000 C   0  0  0  0  0  0  0  0  0  0  0  0
    3.5332   -0.2112    0.0000 C   0  0  0  0  0  0  0  0  0  0  0  0
    2.8188    0.2013    0.0000 C   0  0  0  0  0  0  0  0  0  0  0  0
    2.1043   -0.2112    0.0000 C   0  0  0  0  0  0  0  0  0  0  0  0
  1  2  2  0  0  0  0
  2  3  1  0  0  0  0
  3  4  1  0  0  0  0
  5  4  1  0  0  0  0
  6  5  2  0  0  0  0
  7  6  1  0  0  0  0
  8  7  2  0  0  0  0
  9  8  1  0  0  0  0
  4  9  2  0  0  0  0
  3 10  1  0  0  0  0
 11 10  1  0  0  0  0
 12 11  2  0  0  0  0
 13 12  1  0  0  0  0
 14 13  2  0  0  0  0
 15 14  1  0  0  0  0
 10 15  2  0  0  0  0
M  END
> <ChemID>
10339

> <CAS>
86-30-6

> <Original_SMILES>
O=NN(c1ccccc1)c1ccccc1

> <preferred_name>
N-Nitrosodiphenylamine

> <dsstox_substance_id>
DTXSID6021030

> <dsstox_compound_id>
DTXCID001030

> <Canonical_QSARr>
O=NN(C1C=CC=CC=1)C1C=CC=CC=1

> <InChI_Code_QSARr>
InChI=1S/C12H10N2O/c15-13-14(11-7-3-1-4-8-11)12-9-5-2-6-10-12/h1-10H

> <InChI Key_QSARr>
UBUCNCOMADRQHX-UHFFFAOYSA-N

> <Salt_Solvent>


> <Salt_Solvent_ID>
0

> <Clint>
0.9184497424011576

> <Tr_1_Tst_0>
0

$$$$
Row112
  Mrv171c012261910192D          

 24 26  0  0  0  0            999 V2000
    4.1027   -2.3742    0.0000 O   0  0  0  0  0  0  0  0  0  0  0  0
    4.5152   -1.6597    0.0000 S   0  0  0  0  0  0  0  0  0  0  0  0
    4.1027   -0.9452    0.0000 C   0  0  0  0  0  0  0  0  0  0  0  0
    3.2777   -0.9452    0.0000 C   0  0  0  0  0  0  0  0  0  0  0  0
    2.8652   -0.2308    0.0000 N   0  0  0  0  0  0  0  0  0  0  0  0
    2.0402   -0.2308    0.0000 C   0  0  0  0  0  0  0  0  0  0  0  0
    1.6277   -0.9452    0.0000 C   0  0  0  0  0  0  0  0  0  0  0  0
    0.8027   -0.9452    0.0000 C   0  0  0  0  0  0  0  0  0  0  0  0
    2.0402   -1.6597    0.0000 C   0  0  0  0  0  0  0  0  0  0  0  0
    1.6277   -2.3742    0.0000 O   0  0  0  0  0  0  0  0  0  0  0  0
    2.0402   -3.0886    0.0000 C   0  0  0  0  0  0  0  0  0  0  0  0
    2.8652   -1.6597    0.0000 C   0  0  0  0  0  0  0  0  0  0  0  0
    3.2777   -2.3742    0.0000 C   0  0  0  0  0  0  0  0  0  0  0  0
    5.3402   -1.6597    0.0000 C   0  0  0  0  0  0  0  0  0  0  0  0
    5.8251   -0.9923    0.0000 N   0  0  0  0  0  0  0  0  0  0  0  0
    6.6097   -1.2472    0.0000 C   0  0  0  0  0  0  0  0  0  0  0  0
    7.3242   -0.8347    0.0000 C   0  0  0  0  0  0  0  0  0  0  0  0
    8.0387   -1.2472    0.0000 C   0  0  0  0  0  0  0  0  0  0  0  0
    8.0387   -2.0722    0.0000 C   0  0  0  0  0  0  0  0  0  0  0  0
    8.7531   -2.4847    0.0000 O   0  0  0  0  0  0  0  0  0  0  0  0
    9.4676   -2.0722    0.0000 C   0  0  0  0  0  0  0  0  0  0  0  0
    7.3242   -2.4847    0.0000 C   0  0  0  0  0  0  0  0  0  0  0  0
    6.6097   -2.0722    0.0000 C   0  0  0  0  0  0  0  0  0  0  0  0
    5.8251   -2.3271    0.0000 N   0  0  0  0  0  0  0  0  0  0  0  0
  1  2  2  0  0  0  0
  2  3  1  0  0  0  0
  3  4  1  0  0  0  0
  5  4  1  0  0  0  0
  6  5  2  0  0  0  0
  7  6  1  0  0  0  0
  7  8  1  0  0  0  0
  9  7  2  0  0  0  0
  9 10  1  0  0  0  0
 10 11  1  0  0  0  0
 12  9  1  0  0  0  0
  4 12  2  0  0  0  0
 12 13  1  0  0  0  0
  2 14  1  0  0  0  0
 15 14  1  0  0  0  0
 16 15  1  0  0  0  0
 16 17  1  0  0  0  0
 17 18  2  0  0  0  0
 18 19  1  0  0  0  0
 19 20  1  0  0  0  0
 20 21  1  0  0  0  0
 19 22  2  0  0  0  0
 22 23  1  0  0  0  0
 23 16  2  0  0  0  0
 24 23  1  0  0  0  0
 14 24  2  0  0  0  0
M  END
> <ChemID>
10340

> <CAS>
73590-58-6

> <Original_SMILES>
Cc1c[n]c(CS(=O)c2[nH]c3ccc(cc3[n]2)OC)c(C)c1OC

> <preferred_name>
Omeprazole

> <dsstox_substance_id>
DTXSID6021080

> <dsstox_compound_id>
DTXCID501080

> <Canonical_QSARr>
CC1C=NC(CS(=O)C2NC3C=CC(=CC=3N=2)OC)=C(C)C=1OC

> <InChI_Code_QSARr>
InChI=1S/C17H19N3O3S/c1-10-8-18-15(11(2)16(10)23-4)9-24(21)17-19-13-6-5-12(22-3)7-14(13)20-17/h5-8H,9H2,1-4H3,(H,19,20)

> <InChI Key_QSARr>
SUBDBMMJDZJVOS-UHFFFAOYSA-N

> <Salt_Solvent>


> <Salt_Solvent_ID>
0

> <Clint>
0.23044892137827389

> <Tr_1_Tst_0>
1

$$$$
Row14
  Mrv171c012261910192D          

 14 13  0  0  0  0            999 V2000
    3.8614   -0.9508    0.0000 O   0  0  0  0  0  0  0  0  0  0  0  0
    3.0364   -0.9508    0.0000 C   0  0  0  0  0  0  0  0  0  0  0  0
    2.6239   -0.2363    0.0000 N   0  0  0  0  0  0  0  0  0  0  0  0
    1.7989   -0.2363    0.0000 C   0  0  0  0  0  0  0  0  0  0  0  0
    3.0364    0.4782    0.0000 C   0  0  0  0  0  0  0  0  0  0  0  0
    2.6239   -1.6653    0.0000 C   0  0  0  0  0  0  0  0  0  0  0  0
    3.0364   -2.3797    0.0000 S   0  0  0  0  0  0  0  0  0  0  0  0
    3.8614   -2.3797    0.0000 C   0  0  0  0  0  0  0  0  0  0  0  0
    1.7989   -1.6653    0.0000 N   0  0  0  0  0  0  0  0  0  0  0  0
    1.3864   -2.3797    0.0000 O   0  0  0  0  0  0  0  0  0  0  0  0
    1.7989   -3.0942    0.0000 C   0  0  0  0  0  0  0  0  0  0  0  0
    1.3864   -3.8087    0.0000 N   0  0  0  0  0  0  0  0  0  0  0  0
    1.7989   -4.5231    0.0000 C   0  0  0  0  0  0  0  0  0  0  0  0
    2.6239   -3.0942    0.0000 O   0  0  0  0  0  0  0  0  0  0  0  0
  1  2  2  0  0  0  0
  2  3  1  0  0  0  0
  3  4  1  0  0  0  0
  3  5  1  0  0  0  0
  2  6  1  0  0  0  0
  6  7  1  0  0  0  0
  7  8  1  0  0  0  0
  6  9  2  0  0  0  0
  9 10  1  4  0  0  0
 10 11  1  0  0  0  0
 11 12  1  0  0  0  0
 12 13  1  0  0  0  0
 11 14  2  0  0  0  0
M  END
> <ChemID>
10341

> <CAS>
23135-22-0

> <Original_SMILES>
CNC(=O)ON=C(SC)C(=O)N(C)C

> <preferred_name>
Oxamyl

> <dsstox_substance_id>
DTXSID6021086

> <dsstox_compound_id>
DTXCID901086

> <Canonical_QSARr>
CNC(=O)ON=C(SC)C(=O)N(C)C

> <InChI_Code_QSARr>
InChI=1S/C7H13N3O3S/c1-8-7(12)13-9-5(14-4)6(11)10(2)3/h1-4H3,(H,8,12)

> <InChI Key_QSARr>
KZAUOCCYDRDERY-UHFFFAOYSA-N

> <Salt_Solvent>


> <Salt_Solvent_ID>
0

> <Clint>
-7.0

> <Tr_1_Tst_0>
1

$$$$
Row437
  Mrv171c012261910192D          

 14 15  0  0  0  0            999 V2000
    2.9558   -0.3668    0.0000 C   0  0  0  0  0  0  0  0  0  0  0  0
    2.1711   -0.6217    0.0000 N   0  0  0  0  0  0  0  0  0  0  0  0
    1.5037   -0.1368    0.0000 C   0  0  0  0  0  0  0  0  0  0  0  0
    1.5037    0.6882    0.0000 C   0  0  0  0  0  0  0  0  0  0  0  0
    0.8363   -0.6217    0.0000 C   0  0  0  0  0  0  0  0  0  0  0  0
    1.0912   -1.4064    0.0000 C   0  0  0  0  0  0  0  0  0  0  0  0
    0.6063   -2.0738    0.0000 O   0  0  0  0  0  0  0  0  0  0  0  0
    1.9162   -1.4064    0.0000 N   0  0  0  0  0  0  0  0  0  0  0  0
    2.4011   -2.0738    0.0000 C   0  0  0  0  0  0  0  0  0  0  0  0
    2.0656   -2.8275    0.0000 C   0  0  0  0  0  0  0  0  0  0  0  0
    2.5505   -3.4949    0.0000 C   0  0  0  0  0  0  0  0  0  0  0  0
    3.3710   -3.4087    0.0000 C   0  0  0  0  0  0  0  0  0  0  0  0
    3.7065   -2.6550    0.0000 C   0  0  0  0  0  0  0  0  0  0  0  0
    3.2216   -1.9876    0.0000 C   0  0  0  0  0  0  0  0  0  0  0  0
  1  2  1  0  0  0  0
  3  2  1  0  0  0  0
  3  4  1  0  0  0  0
  5  3  2  0  0  0  0
  6  5  1  0  0  0  0
  6  7  2  0  0  0  0
  8  6  1  0  0  0  0
  2  8  1  0  0  0  0
  8  9  1  0  0  0  0
 10  9  1  0  0  0  0
 11 10  2  0  0  0  0
 12 11  1  0  0  0  0
 13 12  2  0  0  0  0
 14 13  1  0  0  0  0
  9 14  2  0  0  0  0
M  END
> <ChemID>
10342

> <CAS>
60-80-0

> <Original_SMILES>
CN1C(C)=CC(=O)N1c1ccccc1

> <preferred_name>
Phenazone

> <dsstox_substance_id>
DTXSID6021117

> <dsstox_compound_id>
DTXCID401117

> <Canonical_QSARr>
CN1C(C)=CC(=O)N1C1C=CC=CC=1

> <InChI_Code_QSARr>
InChI=1S/C11H12N2O/c1-9-8-11(14)13(12(9)2)10-6-4-3-5-7-10/h3-8H,1-2H3

> <InChI Key_QSARr>
VEQOALNAAJBPNY-UHFFFAOYSA-N

> <Salt_Solvent>


> <Salt_Solvent_ID>
0

> <Clint>
-1.5228787452803374

> <Tr_1_Tst_0>
0

$$$$
Row30
  Mrv171c012261910192D          

 59 63  0  0  0  0            999 V2000
    8.6568   -0.4363    0.0000 C   0  0  0  0  0  0  0  0  0  0  0  0
    7.8675   -0.9220    0.0000 N   0  0  0  0  0  0  0  0  0  0  0  0
    7.6622   -1.7211    0.0000 C   0  0  0  0  0  0  0  0  0  0  0  0
    6.8676   -1.9428    0.0000 C   0  0  0  0  0  0  0  0  0  0  0  0
    6.2782   -1.3654    0.0000 N   0  0  0  0  0  0  0  0  0  0  0  0
    6.4836   -0.5664    0.0000 C   0  0  0  0  0  0  0  0  0  0  0  0
    7.2782   -0.3447    0.0000 C   0  0  0  0  0  0  0  0  0  0  0  0
    5.5551   -1.7816    0.0000 N   0  0  0  0  0  0  0  0  0  0  0  0
    4.9255   -1.2667    0.0000 C   0  0  0  0  0  0  0  0  0  0  0  0
    4.0996   -1.2315    0.0000 C   0  0  0  0  0  0  0  0  0  0  0  0
    3.5277   -0.6313    0.0000 C   0  0  0  0  0  0  0  0  0  0  0  0
    4.0831    0.0487    0.0000 N   0  0  0  0  0  0  0  0  0  0  0  0
    4.8149    0.5006    0.0000 C   0  0  0  0  0  0  0  0  0  0  0  0
    4.4284    1.2699    0.0000 O   0  0  0  0  0  0  0  0  0  0  0  0
    5.6698    0.6235    0.0000 C   0  0  0  0  0  0  0  0  0  0  0  0
    5.6226    1.4921    0.0000 C   0  0  0  0  0  0  0  0  0  0  0  0
    6.5236    0.4703    0.0000 C   0  0  0  0  0  0  0  0  0  0  0  0
    7.2989    0.0766    0.0000 C   0  0  0  0  0  0  0  0  0  0  0  0
    7.9126   -0.4931    0.0000 C   0  0  0  0  0  0  0  0  0  0  0  0
    8.3518   -1.1981    0.0000 C   0  0  0  0  0  0  0  0  0  0  0  0
    9.2490   -1.0353    0.0000 C   0  0  0  0  0  0  0  0  0  0  0  0
    8.5920   -1.9914    0.0000 C   0  0  0  0  0  0  0  0  0  0  0  0
    9.4584   -1.9093    0.0000 O   0  0  0  0  0  0  0  0  0  0  0  0
    8.6185   -2.8193    0.0000 C   0  0  0  0  0  0  0  0  0  0  0  0
    9.4896   -2.8164    0.0000 C   0  0  0  0  0  0  0  0  0  0  0  0
    8.4298   -3.6257    0.0000 C   0  0  0  0  0  0  0  0  0  0  0  0
    9.3141   -3.6335    0.0000 O   0  0  0  0  0  0  0  0  0  0  0  0
    8.0388   -4.3559    0.0000 C   0  0  0  0  0  0  0  0  0  0  0  0
    8.6656   -5.0183    0.0000 C   0  0  0  0  0  0  0  0  0  0  0  0
    7.4722   -4.9599    0.0000 C   0  0  0  0  0  0  0  0  0  0  0  0
    8.0911   -5.6684    0.0000 O   0  0  0  0  0  0  0  0  0  0  0  0
    8.9527   -5.8522    0.0000 C   0  0  0  0  0  0  0  0  0  0  0  0
    9.4532   -5.0384    0.0000 C   0  0  0  0  0  0  0  0  0  0  0  0
    9.4808   -6.5429    0.0000 O   0  0  0  0  0  0  0  0  0  0  0  0
    6.7693   -5.3966    0.0000 C   0  0  0  0  0  0  0  0  0  0  0  0
    7.0439   -6.1863    0.0000 C   0  0  0  0  0  0  0  0  0  0  0  0
    5.9786   -5.6368    0.0000 C   0  0  0  0  0  0  0  0  0  0  0  0
    5.1544   -5.6681    0.0000 C   0  0  0  0  0  0  0  0  0  0  0  0
    4.3494   -5.4873    0.0000 C   0  0  0  0  0  0  0  0  0  0  0  0
    3.6100   -5.1165    0.0000 O   0  0  0  0  0  0  0  0  0  0  0  0
    3.0182   -4.5264    0.0000 C   0  0  0  0  0  0  0  0  0  0  0  0
    2.4848   -5.2182    0.0000 C   0  0  0  0  0  0  0  0  0  0  0  0
    2.2135   -4.3022    0.0000 O   0  0  0  0  0  0  0  0  0  0  0  0
    2.1743   -3.4568    0.0000 C   0  0  0  0  0  0  0  0  0  0  0  0
    2.9602   -3.1630    0.0000 C   0  0  0  0  0  0  0  0  0  0  0  0
    3.1193   -2.3111    0.0000 C   0  0  0  0  0  0  0  0  0  0  0  0
    2.4879   -1.7554    0.0000 C   0  0  0  0  0  0  0  0  0  0  0  0
    2.7249   -0.9273    0.0000 C   0  0  0  0  0  0  0  0  0  0  0  0
    2.1489   -0.2994    0.0000 O   0  0  0  0  0  0  0  0  0  0  0  0
    1.7077   -2.0890    0.0000 C   0  0  0  0  0  0  0  0  0  0  0  0
    1.0026   -1.6101    0.0000 O   0  0  0  0  0  0  0  0  0  0  0  0
    1.5389   -2.9137    0.0000 C   0  0  0  0  0  0  0  0  0  0  0  0
    0.7278   -3.1785    0.0000 C   0  0  0  0  0  0  0  0  0  0  0  0
    3.9219   -2.0374    0.0000 C   0  0  0  0  0  0  0  0  0  0  0  0
    4.4364   -2.6874    0.0000 O   0  0  0  0  0  0  0  0  0  0  0  0
    3.4735   -3.8262    0.0000 C   0  0  0  0  0  0  0  0  0  0  0  0
    4.2903   -4.0360    0.0000 O   0  0  0  0  0  0  0  0  0  0  0  0
    5.9489   -6.5641    0.0000 O   0  0  0  0  0  0  0  0  0  0  0  0
    5.4536   -7.3095    0.0000 C   0  0  0  0  0  0  0  0  0  0  0  0
  1  2  1  0  0  0  0
  2  3  1  0  0  0  0
  3  4  1  0  0  0  0
  4  5  1  0  0  0  0
  5  6  1  0  0  0  0
  6  7  1  0  0  0  0
  2  7  1  0  0  0  0
  8  5  1  4  0  0  0
  8  9  2  0  0  0  0
  9 10  1  0  0  0  0
 10 11  1  0  0  0  0
 11 12  1  0  0  0  0
 12 13  1  0  0  0  0
 13 14  2  0  0  0  0
 13 15  1  0  0  0  0
 15 16  1  0  0  0  0
 15 17  2  0  0  0  0
 17 18  1  4  0  0  0
 18 19  2  0  0  0  0
 19 20  1  4  0  0  0
 20 21  1  0  0  0  0
 20 22  1  0  0  0  0
 22 23  1  0  0  0  0
 22 24  1  0  0  0  0
 24 25  1  0  0  0  0
 24 26  1  0  0  0  0
 26 27  1  0  0  0  0
 26 28  1  0  0  0  0
 28 29  1  0  0  0  0
 28 30  1  0  0  0  0
 30 31  1  0  0  0  0
 31 32  1  0  0  0  0
 32 33  1  0  0  0  0
 32 34  2  0  0  0  0
 30 35  1  0  0  0  0
 35 36  1  0  0  0  0
 35 37  1  0  0  0  0
 38 37  1  4  0  0  0
 38 39  2  0  0  0  0
 39 40  1  0  0  0  0
 40 41  1  0  0  0  0
 41 42  1  0  0  0  0
 41 43  1  0  0  0  0
 43 44  1  0  0  0  0
 44 45  2  0  0  0  0
 45 46  1  0  0  0  0
 46 47  2  0  0  0  0
 47 48  1  0  0  0  0
 11 48  2  0  0  0  0
 48 49  1  0  0  0  0
 47 50  1  0  0  0  0
 50 51  1  0  0  0  0
 50 52  2  0  0  0  0
 44 52  1  0  0  0  0
 52 53  1  0  0  0  0
 46 54  1  0  0  0  0
 10 54  2  0  0  0  0
 54 55  1  0  0  0  0
 45 56  1  0  0  0  0
 41 56  1  0  0  0  0
 56 57  2  0  0  0  0
 37 58  1  0  0  0  0
 58 59  1  0  0  0  0
M  END
> <ChemID>
10343

> <CAS>
13292-46-1

> <Original_SMILES>
CN1CCN(CC1)/N=C/c1c2NC(=O)C(C)=CC=C[C@H](C)[C@H](O)[C@@H](C)[C@@H](O)[C@@H](C)[C@H](OC(C)=O)[C@H](C)[C@H](C=CO[C@@]3(C)Oc4c(c(c(c2O)c(O)c4C)c1O)C3=O)OC

> <preferred_name>
Rifampicin

> <dsstox_substance_id>
DTXSID6021244

> <dsstox_compound_id>
DTXCID301244

> <Canonical_QSARr>
CN1CCN(CC1)N=CC1C2NC(=O)C(C)=CC=CC(C)C(O)C(C)C(O)C(C)C(OC(C)=O)C(C)C(C=COC3(C)OC4=C(C(=C(C=2O)C(O)=C4C)C=1O)C3=O)OC

> <InChI_Code_QSARr>
InChI=1S/C43H58N4O12/c1-21-12-11-13-22(2)42(55)45-33-28(20-44-47-17-15-46(9)16-18-47)37(52)30-31(38(33)53)36(51)26(6)40-32(30)41(54)43(8,59-40)57-19-14-29(56-10)23(3)39(58-27(7)48)25(5)35(50)24(4)34(21)49/h11-14,19-21,23-25,29,34-35,39,49-53H,15-18H2,1-10H3,(H,45,55)/b12-11+,19-14+,22-13-,44-20?

> <InChI Key_QSARr>
JQXXHWHPUNPDRT-OQZGDZPQSA-N

> <Salt_Solvent>


> <Salt_Solvent_ID>
0

> <Clint>
-7.0

> <Tr_1_Tst_0>
1

$$$$
Row311
  Mrv171c012261910192D          

 29 33  0  0  0  0            999 V2000
    2.9717   -3.4404    0.0000 C   0  0  0  0  0  0  0  0  0  0  0  0
    3.3950   -4.1485    0.0000 O   0  0  0  0  0  0  0  0  0  0  0  0
    4.2199   -4.1360    0.0000 C   0  0  0  0  0  0  0  0  0  0  0  0
    4.6432   -4.8441    0.0000 C   0  0  0  0  0  0  0  0  0  0  0  0
    5.4681   -4.8316    0.0000 O   0  0  0  0  0  0  0  0  0  0  0  0
    5.8697   -4.1109    0.0000 C   0  0  0  0  0  0  0  0  0  0  0  0
    6.6946   -4.0983    0.0000 C   0  0  0  0  0  0  0  0  0  0  0  0
    7.0962   -3.3777    0.0000 C   0  0  0  0  0  0  0  0  0  0  0  0
    7.9211   -3.3651    0.0000 O   0  0  0  0  0  0  0  0  0  0  0  0
    8.3227   -2.6445    0.0000 C   0  0  0  0  0  0  0  0  0  0  0  0
    6.6729   -2.6696    0.0000 C   0  0  0  0  0  0  0  0  0  0  0  0
    7.0745   -1.9489    0.0000 O   0  0  0  0  0  0  0  0  0  0  0  0
    6.6512   -1.2408    0.0000 C   0  0  0  0  0  0  0  0  0  0  0  0
    5.8480   -2.6821    0.0000 C   0  0  0  0  0  0  0  0  0  0  0  0
    5.4464   -3.4028    0.0000 C   0  0  0  0  0  0  0  0  0  0  0  0
    4.6215   -3.4153    0.0000 C   0  0  0  0  0  0  0  0  0  0  0  0
    4.1982   -2.7072    0.0000 C   0  0  0  0  0  0  0  0  0  0  0  0
    4.5998   -1.9865    0.0000 O   0  0  0  0  0  0  0  0  0  0  0  0
    3.3733   -2.7198    0.0000 C   0  0  0  0  0  0  0  0  0  0  0  0
    2.9500   -2.0116    0.0000 C   0  0  0  0  0  0  0  0  0  0  0  0
    2.1251   -2.0242    0.0000 C   0  0  0  0  0  0  0  0  0  0  0  0
    1.7235   -2.7448    0.0000 C   0  0  0  0  0  0  0  0  0  0  0  0
    0.9192   -2.9286    0.0000 O   0  0  0  0  0  0  0  0  0  0  0  0
    0.8455   -3.7503    0.0000 C   0  0  0  0  0  0  0  0  0  0  0  0
    0.1373   -4.1736    0.0000 C   0  0  0  0  0  0  0  0  0  0  0  0
    0.1499   -4.9985    0.0000 C   0  0  0  0  0  0  0  0  0  0  0  0
   -0.5833   -3.7721    0.0000 C   0  0  0  0  0  0  0  0  0  0  0  0
    1.6041   -4.0744    0.0000 C   0  0  0  0  0  0  0  0  0  0  0  0
    2.1468   -3.4530    0.0000 C   0  0  0  0  0  0  0  0  0  0  0  0
  2  1  1  0  0  0  0
  3  2  1  0  0  0  0
  3  4  1  0  0  0  0
  4  5  1  0  0  0  0
  5  6  1  0  0  0  0
  7  6  1  0  0  0  0
  8  7  2  0  0  0  0
  8  9  1  0  0  0  0
  9 10  1  0  0  0  0
 11  8  1  0  0  0  0
 11 12  1  0  0  0  0
 12 13  1  0  0  0  0
 14 11  2  0  0  0  0
 15 14  1  0  0  0  0
  6 15  2  0  0  0  0
 15 16  1  0  0  0  0
 16  3  1  0  0  0  0
 17 16  1  0  0  0  0
 17 18  2  0  0  0  0
 19 17  1  0  0  0  0
 19  1  2  0  0  0  0
 20 19  1  0  0  0  0
 21 20  2  0  0  0  0
 22 21  1  0  0  0  0
 22 23  1  0  0  0  0
 23 24  1  0  0  0  0
 24 25  1  0  0  0  0
 25 26  1  0  0  0  0
 25 27  2  0  0  0  0
 24 28  1  0  0  0  0
 28 29  1  0  0  0  0
  1 29  1  0  0  0  0
 29 22  2  0  0  0  0
M  END
> <ChemID>
10344

> <CAS>
83-79-4

> <Original_SMILES>
CC(=C)[C@H]1Cc2c3O[C@@H]4COc5cc(OC)c(cc5[C@@H]4C(=O)c3ccc2O1)OC

> <preferred_name>
Rotenone

> <dsstox_substance_id>
DTXSID6021248

> <dsstox_compound_id>
DTXCID901248

> <Canonical_QSARr>
CC(=C)C1CC2C3OC4COC5C=C(OC)C(=CC=5C4C(=O)C=3C=CC=2O1)OC

> <InChI_Code_QSARr>
InChI=1S/C23H22O6/c1-11(2)16-8-14-15(28-16)6-5-12-22(24)21-13-7-18(25-3)19(26-4)9-17(13)27-10-20(21)29-23(12)14/h5-7,9,16,20-21H,1,8,10H2,2-4H3

> <InChI Key_QSARr>
JUVIOZPCNVVQFO-UHFFFAOYSA-N

> <Salt_Solvent>


> <Salt_Solvent_ID>
0

> <Clint>
1.3205616801952365

> <Tr_1_Tst_0>
1

$$$$
Row261
  Mrv171c012261910192D          

 16 16  0  0  0  0            999 V2000
    2.8426   -2.8892    0.0000 C   0  0  0  0  0  0  0  0  0  0  0  0
    3.5571   -3.3017    0.0000 N   0  0  0  0  0  0  0  0  0  0  0  0
    4.2716   -2.8892    0.0000 C   0  0  0  0  0  0  0  0  0  0  0  0
    4.9861   -3.3017    0.0000 C   0  0  0  0  0  0  0  0  0  0  0  0
    4.2716   -2.0642    0.0000 C   0  0  0  0  0  0  0  0  0  0  0  0
    2.8426   -2.0642    0.0000 N   0  0  0  0  0  0  0  0  0  0  0  0
    2.1282   -1.6517    0.0000 C   0  0  0  0  0  0  0  0  0  0  0  0
    2.1282   -0.8267    0.0000 O   0  0  0  0  0  0  0  0  0  0  0  0
    1.4137   -0.4142    0.0000 C   0  0  0  0  0  0  0  0  0  0  0  0
    1.4137   -2.0642    0.0000 N   0  0  0  0  0  0  0  0  0  0  0  0
    1.4137   -2.8892    0.0000 C   0  0  0  0  0  0  0  0  0  0  0  0
    0.6992   -3.3017    0.0000 N   0  0  0  0  0  0  0  0  0  0  0  0
   -0.0152   -2.8892    0.0000 C   0  0  0  0  0  0  0  0  0  0  0  0
   -0.7297   -3.3017    0.0000 C   0  0  0  0  0  0  0  0  0  0  0  0
   -0.0152   -2.0642    0.0000 C   0  0  0  0  0  0  0  0  0  0  0  0
    2.1282   -3.3017    0.0000 N   0  0  0  0  0  0  0  0  0  0  0  0
  1  2  1  0  0  0  0
  2  3  1  0  0  0  0
  3  4  1  0  0  0  0
  3  5  1  0  0  0  0
  6  1  2  0  0  0  0
  7  6  1  0  0  0  0
  7  8  1  0  0  0  0
  8  9  1  0  0  0  0
 10  7  2  0  0  0  0
 11 10  1  0  0  0  0
 11 12  1  0  0  0  0
 12 13  1  0  0  0  0
 13 14  1  0  0  0  0
 13 15  1  0  0  0  0
 16 11  2  0  0  0  0
  1 16  1  0  0  0  0
M  END
> <ChemID>
10345

> <CAS>
1610-18-0

> <Original_SMILES>
COc1[n]c(NC(C)C)[n]c(NC(C)C)[n]1

> <preferred_name>
Prometon

> <dsstox_substance_id>
DTXSID6022341

> <dsstox_compound_id>
DTXCID402341

> <Canonical_QSARr>
COC1N=C(NC(C)C)N=C(NC(C)C)N=1

> <InChI_Code_QSARr>
InChI=1S/C10H19N5O/c1-6(2)11-8-13-9(12-7(3)4)15-10(14-8)16-5/h6-7H,1-5H3,(H2,11,12,13,14,15)

> <InChI Key_QSARr>
ISEUFVQQFVOBCY-UHFFFAOYSA-N

> <Salt_Solvent>


> <Salt_Solvent_ID>
0

> <Clint>
1.1495270137543476

> <Tr_1_Tst_0>
1

$$$$
Row272
  Mrv171c012261910192D          

 19 20  0  0  0  0            999 V2000
    3.9097   -3.2576    0.0000 C   0  0  0  0  0  0  0  0  0  0  0  0
    3.1952   -2.8451    0.0000 C   0  0  0  0  0  0  0  0  0  0  0  0
    3.1952   -2.0201    0.0000 C   0  0  0  0  0  0  0  0  0  0  0  0
    2.4807   -1.6076    0.0000 C   0  0  0  0  0  0  0  0  0  0  0  0
    2.4807   -0.7826    0.0000 C   0  0  0  0  0  0  0  0  0  0  0  0
    1.7662   -0.3701    0.0000 C   0  0  0  0  0  0  0  0  0  0  0  0
    1.0518   -0.7826    0.0000 C   0  0  0  0  0  0  0  0  0  0  0  0
    0.3373   -0.3701    0.0000 Cl  0  0  0  0  0  0  0  0  0  0  0  0
    1.0518   -1.6076    0.0000 C   0  0  0  0  0  0  0  0  0  0  0  0
    1.7662   -2.0201    0.0000 C   0  0  0  0  0  0  0  0  0  0  0  0
    3.9097   -1.6076    0.0000 C   0  0  0  0  0  0  0  0  0  0  0  0
    4.6241   -1.1951    0.0000 Cl  0  0  0  0  0  0  0  0  0  0  0  0
    3.4972   -0.8932    0.0000 Cl  0  0  0  0  0  0  0  0  0  0  0  0
    4.3222   -2.3221    0.0000 Cl  0  0  0  0  0  0  0  0  0  0  0  0
    2.4807   -3.2576    0.0000 C   0  0  0  0  0  0  0  0  0  0  0  0
    1.7662   -2.8451    0.0000 Cl  0  0  0  0  0  0  0  0  0  0  0  0
    2.4807   -4.0826    0.0000 C   0  0  0  0  0  0  0  0  0  0  0  0
    3.1952   -4.4951    0.0000 C   0  0  0  0  0  0  0  0  0  0  0  0
    3.9097   -4.0826    0.0000 C   0  0  0  0  0  0  0  0  0  0  0  0
  2  1  2  0  0  0  0
  2  3  1  0  0  0  0
  3  4  1  0  0  0  0
  5  4  1  0  0  0  0
  6  5  2  0  0  0  0
  7  6  1  0  0  0  0
  7  8  1  0  0  0  0
  9  7  2  0  0  0  0
 10  9  1  0  0  0  0
  4 10  2  0  0  0  0
  3 11  1  0  0  0  0
 11 12  1  0  0  0  0
 11 13  1  0  0  0  0
 11 14  1  0  0  0  0
 15  2  1  0  0  0  0
 15 16  1  0  0  0  0
 17 15  2  0  0  0  0
 18 17  1  0  0  0  0
 19 18  2  0  0  0  0
  1 19  1  0  0  0  0
M  END
> <ChemID>
10346

> <CAS>
789-02-6

> <Original_SMILES>
Clc1ccc(cc1)C(c1ccccc1Cl)C(Cl)(Cl)Cl

> <preferred_name>
o,p'-DDT

> <dsstox_substance_id>
DTXSID6022345

> <dsstox_compound_id>
DTXCID002345

> <Canonical_QSARr>
ClC1C=CC(=CC=1)C(C1=CC=CC=C1Cl)C(Cl)(Cl)Cl

> <InChI_Code_QSARr>
InChI=1S/C14H9Cl5/c15-10-7-5-9(6-8-10)13(14(17,18)19)11-3-1-2-4-12(11)16/h1-8,13H

> <InChI Key_QSARr>
CVUGPAFCQJIYDT-UHFFFAOYSA-N

> <Salt_Solvent>


> <Salt_Solvent_ID>
0

> <Clint>
1.1786892397755897

> <Tr_1_Tst_0>
1

$$$$
Row110
  Mrv171c012261910192D          

 23 23  0  0  0  0            999 V2000
    4.5162   -0.2441    0.0000 C   0  0  0  0  0  0  0  0  0  0  0  0
    4.5162   -1.0691    0.0000 C   0  0  0  0  0  0  0  0  0  0  0  0
    3.8017   -1.4816    0.0000 O   0  0  0  0  0  0  0  0  0  0  0  0
    3.8017   -2.3066    0.0000 C   0  0  0  0  0  0  0  0  0  0  0  0
    3.0873   -2.7191    0.0000 C   0  0  0  0  0  0  0  0  0  0  0  0
    3.0873   -3.5441    0.0000 C   0  0  0  0  0  0  0  0  0  0  0  0
    2.3728   -3.9566    0.0000 N   0  0  0  0  0  0  0  0  0  0  0  0
    2.3728   -4.7816    0.0000 C   0  0  0  0  0  0  0  0  0  0  0  0
    1.6583   -5.1941    0.0000 C   0  0  0  0  0  0  0  0  0  0  0  0
    3.0873   -5.1941    0.0000 C   0  0  0  0  0  0  0  0  0  0  0  0
    2.3728   -2.3066    0.0000 O   0  0  0  0  0  0  0  0  0  0  0  0
    5.2307   -1.4816    0.0000 C   0  0  0  0  0  0  0  0  0  0  0  0
    5.9451   -1.0691    0.0000 C   0  0  0  0  0  0  0  0  0  0  0  0
    5.9451   -0.2441    0.0000 C   0  0  0  0  0  0  0  0  0  0  0  0
    6.6596    0.1684    0.0000 C   0  0  0  0  0  0  0  0  0  0  0  0
    7.3741   -0.2441    0.0000 O   0  0  0  0  0  0  0  0  0  0  0  0
    8.0886    0.1684    0.0000 C   0  0  0  0  0  0  0  0  0  0  0  0
    8.8030   -0.2441    0.0000 C   0  0  0  0  0  0  0  0  0  0  0  0
    9.5175    0.1684    0.0000 O   0  0  0  0  0  0  0  0  0  0  0  0
   10.2320   -0.2441    0.0000 C   0  0  0  0  0  0  0  0  0  0  0  0
   10.9464    0.1684    0.0000 C   0  0  0  0  0  0  0  0  0  0  0  0
   10.2320   -1.0691    0.0000 C   0  0  0  0  0  0  0  0  0  0  0  0
    5.2307    0.1684    0.0000 C   0  0  0  0  0  0  0  0  0  0  0  0
  2  1  1  0  0  0  0
  2  3  1  0  0  0  0
  3  4  1  0  0  0  0
  4  5  1  0  0  0  0
  5  6  1  0  0  0  0
  6  7  1  0  0  0  0
  7  8  1  0  0  0  0
  8  9  1  0  0  0  0
  8 10  1  0  0  0  0
  5 11  1  0  0  0  0
 12  2  2  0  0  0  0
 13 12  1  0  0  0  0
 14 13  2  0  0  0  0
 14 15  1  0  0  0  0
 15 16  1  0  0  0  0
 16 17  1  0  0  0  0
 17 18  1  0  0  0  0
 18 19  1  0  0  0  0
 19 20  1  0  0  0  0
 20 21  1  0  0  0  0
 20 22  1  0  0  0  0
 23 14  1  0  0  0  0
  1 23  2  0  0  0  0
M  END
> <ChemID>
10347

> <CAS>
66722-44-9

> <Original_SMILES>
CC(C)NCC(O)COc1ccc(COCCOC(C)C)cc1

> <preferred_name>
Bisoprolol

> <dsstox_substance_id>
DTXSID6022682

> <dsstox_compound_id>
DTXCID602682

> <Canonical_QSARr>
CC(C)OCCOCC1C=CC(=CC=1)OCC(O)CNC(C)C

> <InChI_Code_QSARr>
InChI=1S/C18H31NO4/c1-14(2)19-11-17(20)13-23-18-7-5-16(6-8-18)12-21-9-10-22-15(3)4/h5-8,14-15,17,19-20H,9-13H2,1-4H3

> <InChI Key_QSARr>
VHYCDWMUTMEGQY-UHFFFAOYSA-N

> <Salt_Solvent>


> <Salt_Solvent_ID>
0

> <Clint>
0.2041199826559248

> <Tr_1_Tst_0>
1

$$$$
Row237
  Mrv171c012261910192D          

 20 22  0  0  0  0            999 V2000
    2.5951   -1.2627    0.0000 N   0  0  0  0  0  0  0  0  0  0  0  0
    1.9135   -0.7980    0.0000 C   0  0  0  0  0  0  0  0  0  0  0  0
    2.0971    0.0063    0.0000 C   0  0  0  0  0  0  0  0  0  0  0  0
    1.4923    0.5675    0.0000 C   0  0  0  0  0  0  0  0  0  0  0  0
    0.7039    0.3243    0.0000 C   0  0  0  0  0  0  0  0  0  0  0  0
    0.5204   -0.4800    0.0000 C   0  0  0  0  0  0  0  0  0  0  0  0
    1.1251   -1.0411    0.0000 C   0  0  0  0  0  0  0  0  0  0  0  0
    0.8237   -1.8091    0.0000 C   0  0  0  0  0  0  0  0  0  0  0  0
    1.2362   -2.5236    0.0000 C   0  0  0  0  0  0  0  0  0  0  0  0
    2.0520   -2.6465    0.0000 C   0  0  0  0  0  0  0  0  0  0  0  0
    2.2356   -3.4509    0.0000 C   0  0  0  0  0  0  0  0  0  0  0  0
    3.0239   -3.6940    0.0000 C   0  0  0  0  0  0  0  0  0  0  0  0
    3.6287   -3.1329    0.0000 C   0  0  0  0  0  0  0  0  0  0  0  0
    3.4451   -2.3286    0.0000 C   0  0  0  0  0  0  0  0  0  0  0  0
    2.6568   -2.0854    0.0000 C   0  0  0  0  0  0  0  0  0  0  0  0
    3.3096   -0.8502    0.0000 C   0  0  0  0  0  0  0  0  0  0  0  0
    4.0241   -1.2627    0.0000 C   0  0  0  0  0  0  0  0  0  0  0  0
    4.7385   -0.8502    0.0000 C   0  0  0  0  0  0  0  0  0  0  0  0
    5.4530   -1.2627    0.0000 N   0  0  0  0  0  0  0  0  0  0  0  0
    6.1675   -0.8502    0.0000 C   0  0  0  0  0  0  0  0  0  0  0  0
  2  1  1  0  0  0  0
  2  3  1  0  0  0  0
  3  4  2  0  0  0  0
  4  5  1  0  0  0  0
  5  6  2  0  0  0  0
  6  7  1  0  0  0  0
  7  2  2  0  0  0  0
  8  7  1  0  0  0  0
  9  8  1  0  0  0  0
 10  9  1  0  0  0  0
 10 11  1  0  0  0  0
 11 12  2  0  0  0  0
 12 13  1  0  0  0  0
 13 14  2  0  0  0  0
 14 15  1  0  0  0  0
  1 15  1  0  0  0  0
 15 10  2  0  0  0  0
  1 16  1  0  0  0  0
 16 17  1  0  0  0  0
 17 18  1  0  0  0  0
 18 19  1  0  0  0  0
 19 20  1  0  0  0  0
M  END
> <ChemID>
10348

> <CAS>
50-47-5

> <Original_SMILES>
CNCCCN1c2ccccc2CCc2ccccc12

> <preferred_name>
Desipramine

> <dsstox_substance_id>
DTXSID6022896

> <dsstox_compound_id>
DTXCID902896

> <Canonical_QSARr>
CNCCCN1C2C=CC=CC=2CCC2C=CC=CC1=2

> <InChI_Code_QSARr>
InChI=1S/C18H22N2/c1-19-13-6-14-20-17-9-4-2-7-15(17)11-12-16-8-3-5-10-18(16)20/h2-5,7-10,19H,6,11-14H2,1H3

> <InChI Key_QSARr>
HCYAFALTSJYZDH-UHFFFAOYSA-N

> <Salt_Solvent>


> <Salt_Solvent_ID>
0

> <Clint>
1.041392685158225

> <Tr_1_Tst_0>
1

$$$$
Row443
  Mrv171c012261910192D          

 19 20  0  0  0  0            999 V2000
    1.9982   -1.9619    0.0000 N   0  0  0  0  0  0  0  0  0  0  0  0
    2.7126   -2.3744    0.0000 C   0  0  0  0  0  0  0  0  0  0  0  0
    2.7126   -3.1994    0.0000 C   0  0  0  0  0  0  0  0  0  0  0  0
    3.4271   -3.6119    0.0000 C   0  0  0  0  0  0  0  0  0  0  0  0
    4.1416   -3.1994    0.0000 C   0  0  0  0  0  0  0  0  0  0  0  0
    4.1416   -2.3744    0.0000 C   0  0  0  0  0  0  0  0  0  0  0  0
    3.4271   -1.9619    0.0000 C   0  0  0  0  0  0  0  0  0  0  0  0
    3.4271   -1.1369    0.0000 C   0  0  0  0  0  0  0  0  0  0  0  0
    4.1416   -0.7244    0.0000 C   0  0  0  0  0  0  0  0  0  0  0  0
    4.1416    0.1006    0.0000 O   0  0  0  0  0  0  0  0  0  0  0  0
    4.8560   -1.1369    0.0000 O   0  0  0  0  0  0  0  0  0  0  0  0
    1.2837   -2.3744    0.0000 C   0  0  0  0  0  0  0  0  0  0  0  0
    0.5692   -1.9619    0.0000 C   0  0  0  0  0  0  0  0  0  0  0  0
    0.5692   -1.1369    0.0000 Cl  0  0  0  0  0  0  0  0  0  0  0  0
   -0.1453   -2.3744    0.0000 C   0  0  0  0  0  0  0  0  0  0  0  0
   -0.1453   -3.1994    0.0000 C   0  0  0  0  0  0  0  0  0  0  0  0
    0.5692   -3.6119    0.0000 C   0  0  0  0  0  0  0  0  0  0  0  0
    1.2837   -3.1994    0.0000 C   0  0  0  0  0  0  0  0  0  0  0  0
    1.9982   -3.6119    0.0000 Cl  0  0  0  0  0  0  0  0  0  0  0  0
  1  2  1  0  0  0  0
  3  2  1  0  0  0  0
  4  3  2  0  0  0  0
  5  4  1  0  0  0  0
  6  5  2  0  0  0  0
  7  6  1  0  0  0  0
  2  7  2  0  0  0  0
  7  8  1  0  0  0  0
  8  9  1  0  0  0  0
  9 10  2  0  0  0  0
  9 11  1  0  0  0  0
  1 12  1  0  0  0  0
 13 12  2  0  0  0  0
 13 14  1  0  0  0  0
 15 13  1  0  0  0  0
 16 15  2  0  0  0  0
 17 16  1  0  0  0  0
 18 17  2  0  0  0  0
 12 18  1  0  0  0  0
 18 19  1  0  0  0  0
M  END
> <ChemID>
10349

> <CAS>
15307-86-5

> <Original_SMILES>
OC(=O)Cc1ccccc1Nc1c(Cl)cccc1Cl

> <preferred_name>
Diclofenac

> <dsstox_substance_id>
DTXSID6022923

> <dsstox_compound_id>
DTXCID802923

> <Canonical_QSARr>
OC(=O)CC1C=CC=CC=1NC1C(Cl)=CC=CC=1Cl

> <InChI_Code_QSARr>
InChI=1S/C14H11Cl2NO2/c15-10-5-3-6-11(16)14(10)17-12-7-2-1-4-9(12)8-13(18)19/h1-7,17H,8H2,(H,18,19)

> <InChI Key_QSARr>
DCOPUUMXTXDBNB-UHFFFAOYSA-N

> <Salt_Solvent>


> <Salt_Solvent_ID>
0

> <Clint>
-0.11350927482751812

> <Tr_1_Tst_0>
0

$$$$
Row549
  Mrv171c012261910192D          

 35 37  0  0  0  0            999 V2000
    0.2246   -2.7697    0.0000 N   0  0  0  0  0  0  0  0  0  0  0  0
    0.9391   -2.3572    0.0000 C   0  0  0  0  0  0  0  0  0  0  0  0
    1.6535   -2.7697    0.0000 C   0  0  0  0  0  0  0  0  0  0  0  0
    0.9391   -1.5322    0.0000 C   0  0  0  0  0  0  0  0  0  0  0  0
    1.6535   -1.1197    0.0000 C   0  0  0  0  0  0  0  0  0  0  0  0
    1.6535   -0.2947    0.0000 O   0  0  0  0  0  0  0  0  0  0  0  0
    2.3680    0.1178    0.0000 C   0  0  0  0  0  0  0  0  0  0  0  0
    3.0825   -0.2947    0.0000 C   0  0  0  0  0  0  0  0  0  0  0  0
    3.7969    0.1178    0.0000 N   0  0  0  0  0  0  0  0  0  0  0  0
    4.5114   -0.2947    0.0000 C   0  0  0  0  0  0  0  0  0  0  0  0
    5.2259    0.1178    0.0000 C   0  0  0  0  0  0  0  0  0  0  0  0
    5.9404   -0.2947    0.0000 C   0  0  0  0  0  0  0  0  0  0  0  0
    6.6548    0.1178    0.0000 C   0  0  0  0  0  0  0  0  0  0  0  0
    6.6548    0.9428    0.0000 C   0  0  0  0  0  0  0  0  0  0  0  0
    5.9404    1.3553    0.0000 C   0  0  0  0  0  0  0  0  0  0  0  0
    5.2259    0.9428    0.0000 C   0  0  0  0  0  0  0  0  0  0  0  0
    3.7969    0.9428    0.0000 C   0  0  0  0  0  0  0  0  0  0  0  0
    2.3680   -1.5322    0.0000 O   0  0  0  0  0  0  0  0  0  0  0  0
    0.2246   -1.1197    0.0000 C   0  0  0  0  0  0  0  0  0  0  0  0
    0.2246   -0.2947    0.0000 C   0  0  0  0  0  0  0  0  0  0  0  0
    0.9391    0.1178    0.0000 C   0  0  0  0  0  0  0  0  0  0  0  0
    0.9391    0.9428    0.0000 C   0  0  0  0  0  0  0  0  0  0  0  0
    1.6535    1.3553    0.0000 N   0  3  0  0  0  0  0  0  0  0  0  0
    1.6535    2.1803    0.0000 O   0  0  0  0  0  0  0  0  0  0  0  0
    2.3680    0.9428    0.0000 O   0  5  0  0  0  0  0  0  0  0  0  0
    0.2246    1.3553    0.0000 C   0  0  0  0  0  0  0  0  0  0  0  0
   -0.4899    0.9428    0.0000 C   0  0  0  0  0  0  0  0  0  0  0  0
   -0.4899    0.1178    0.0000 C   0  0  0  0  0  0  0  0  0  0  0  0
   -0.4899   -1.5322    0.0000 C   0  0  0  0  0  0  0  0  0  0  0  0
   -1.2044   -1.1197    0.0000 C   0  0  0  0  0  0  0  0  0  0  0  0
   -1.9188   -1.5322    0.0000 O   0  0  0  0  0  0  0  0  0  0  0  0
   -2.6333   -1.1197    0.0000 C   0  0  0  0  0  0  0  0  0  0  0  0
   -1.2044   -0.2947    0.0000 O   0  0  0  0  0  0  0  0  0  0  0  0
   -0.4899   -2.3572    0.0000 C   0  0  0  0  0  0  0  0  0  0  0  0
   -1.2044   -2.7697    0.0000 C   0  0  0  0  0  0  0  0  0  0  0  0
  2  1  1  0  0  0  0
  2  3  1  0  0  0  0
  4  2  2  0  0  0  0
  4  5  1  0  0  0  0
  5  6  1  0  0  0  0
  6  7  1  0  0  0  0
  7  8  1  0  0  0  0
  8  9  1  0  0  0  0
  9 10  1  0  0  0  0
 10 11  1  0  0  0  0
 12 11  1  0  0  0  0
 13 12  2  0  0  0  0
 14 13  1  0  0  0  0
 15 14  2  0  0  0  0
 16 15  1  0  0  0  0
 11 16  2  0  0  0  0
  9 17  1  0  0  0  0
  5 18  2  0  0  0  0
 19  4  1  0  0  0  0
 19 20  1  0  0  0  0
 21 20  1  0  0  0  0
 22 21  2  0  0  0  0
 22 23  1  0  0  0  0
 23 24  2  0  0  0  0
 23 25  1  0  0  0  0
 26 22  1  0  0  0  0
 27 26  2  0  0  0  0
 28 27  1  0  0  0  0
 20 28  2  0  0  0  0
 29 19  1  0  0  0  0
 29 30  1  0  0  0  0
 30 31  1  0  0  0  0
 31 32  1  0  0  0  0
 30 33  2  0  0  0  0
 34 29  1  0  0  0  0
  1 34  2  0  0  0  0
 34 35  1  0  0  0  0
M  CHG  2  23   1  25  -1
M  END
> <ChemID>
10350

> <CAS>
55985-32-5

> <Original_SMILES>
COC(=O)C1C(C(C(=O)OCCN(C)Cc2ccccc2)=C(C)NC=1C)c1cc(ccc1)[N+]([O-])=O

> <preferred_name>
Nicardipine

> <dsstox_substance_id>
DTXSID6023363

> <dsstox_compound_id>
DTXCID903363

> <Canonical_QSARr>
COC(=O)C1C(C(C(=O)OCCN(C)CC2C=CC=CC=2)=C(C)N=C1C)C1C=C(C=CC=1)[N+]([O-])=O

> <InChI_Code_QSARr>
InChI=1S/C26H29N3O6/c1-17-22(25(30)34-4)24(20-11-8-12-21(15-20)29(32)33)23(18(2)27-17)26(31)35-14-13-28(3)16-19-9-6-5-7-10-19/h5-12,15,22,24H,13-14,16H2,1-4H3

> <InChI Key_QSARr>
OEIGWXLWQNTHHG-UHFFFAOYSA-N

> <Salt_Solvent>


> <Salt_Solvent_ID>
0

> <Clint>
2.60422605308447

> <Tr_1_Tst_0>
0

$$$$
Row400
  Mrv171c012261910192D          

 13 13  0  0  0  0            999 V2000
    2.8600   -1.5549    0.0000 C   0  0  0  0  0  0  0  0  0  0  0  0
    2.1455   -1.1424    0.0000 C   0  0  0  0  0  0  0  0  0  0  0  0
    2.1455   -0.3174    0.0000 O   0  0  0  0  0  0  0  0  0  0  0  0
    1.4311   -1.5549    0.0000 C   0  0  0  0  0  0  0  0  0  0  0  0
    0.7166   -1.1424    0.0000 C   0  0  0  0  0  0  0  0  0  0  0  0
    0.0021   -1.5549    0.0000 C   0  0  0  0  0  0  0  0  0  0  0  0
    0.7166   -0.3174    0.0000 C   0  0  0  0  0  0  0  0  0  0  0  0
    1.4311   -2.3799    0.0000 C   0  0  0  0  0  0  0  0  0  0  0  0
    2.1455   -2.7924    0.0000 C   0  0  0  0  0  0  0  0  0  0  0  0
    2.8600   -2.3799    0.0000 C   0  0  0  0  0  0  0  0  0  0  0  0
    3.5745   -1.1424    0.0000 C   0  0  0  0  0  0  0  0  0  0  0  0
    3.5745   -0.3174    0.0000 C   0  0  0  0  0  0  0  0  0  0  0  0
    4.2889   -1.5549    0.0000 C   0  0  0  0  0  0  0  0  0  0  0  0
  2  1  1  0  0  0  0
  2  3  1  0  0  0  0
  4  2  2  0  0  0  0
  4  5  1  0  0  0  0
  5  6  1  0  0  0  0
  5  7  1  0  0  0  0
  8  4  1  0  0  0  0
  9  8  2  0  0  0  0
 10  9  1  0  0  0  0
  1 10  2  0  0  0  0
  1 11  1  0  0  0  0
 11 12  1  0  0  0  0
 11 13  1  0  0  0  0
M  END
> <ChemID>
10351

> <CAS>
2078-54-8

> <Original_SMILES>
CC(C)c1cccc(C(C)C)c1O

> <preferred_name>
Propofol

> <dsstox_substance_id>
DTXSID6023523

> <dsstox_compound_id>
DTXCID103523

> <Canonical_QSARr>
CC(C)C1=CC=CC(C(C)C)=C1O

> <InChI_Code_QSARr>
InChI=1S/C12H18O/c1-8(2)10-6-5-7-11(9(3)4)12(10)13/h5-9,13H,1-4H3

> <InChI Key_QSARr>
OLBCVFGFOZPWHH-UHFFFAOYSA-N

> <Salt_Solvent>


> <Salt_Solvent_ID>
0

> <Clint>
2.0293837776852093

> <Tr_1_Tst_0>
1

$$$$
Row126
  Mrv171c012261910192D          

 19 20  0  0  0  0            999 V2000
   -1.2062   -1.6491    0.0000 C   0  0  0  0  0  0  0  0  0  0  0  0
   -0.4917   -1.2366    0.0000 C   0  0  0  0  0  0  0  0  0  0  0  0
    0.2228   -1.6491    0.0000 N   0  0  0  0  0  0  0  0  0  0  0  0
    0.9372   -1.2366    0.0000 C   0  0  0  0  0  0  0  0  0  0  0  0
    1.6517   -1.6491    0.0000 C   0  0  0  0  0  0  0  0  0  0  0  0
    2.3662   -1.2366    0.0000 C   0  0  0  0  0  0  0  0  0  0  0  0
    3.0807   -1.6491    0.0000 O   0  0  0  0  0  0  0  0  0  0  0  0
    3.7951   -1.2366    0.0000 C   0  0  0  0  0  0  0  0  0  0  0  0
    3.7951   -0.4116    0.0000 C   0  0  0  0  0  0  0  0  0  0  0  0
    4.5096    0.0009    0.0000 C   0  0  0  0  0  0  0  0  0  0  0  0
    5.2241   -0.4116    0.0000 C   0  0  0  0  0  0  0  0  0  0  0  0
    5.2241   -1.2366    0.0000 C   0  0  0  0  0  0  0  0  0  0  0  0
    5.9385   -1.6491    0.0000 C   0  0  0  0  0  0  0  0  0  0  0  0
    5.9385   -2.4741    0.0000 C   0  0  0  0  0  0  0  0  0  0  0  0
    5.2241   -2.8866    0.0000 C   0  0  0  0  0  0  0  0  0  0  0  0
    4.5096   -2.4741    0.0000 C   0  0  0  0  0  0  0  0  0  0  0  0
    4.5096   -1.6491    0.0000 C   0  0  0  0  0  0  0  0  0  0  0  0
    1.6517   -2.4741    0.0000 O   0  0  0  0  0  0  0  0  0  0  0  0
   -0.4917   -0.4116    0.0000 C   0  0  0  0  0  0  0  0  0  0  0  0
  1  2  1  0  0  0  0
  2  3  1  0  0  0  0
  3  4  1  0  0  0  0
  4  5  1  0  0  0  0
  5  6  1  0  0  0  0
  6  7  1  0  0  0  0
  7  8  1  0  0  0  0
  9  8  1  0  0  0  0
 10  9  2  0  0  0  0
 11 10  1  0  0  0  0
 12 11  2  0  0  0  0
 12 13  1  0  0  0  0
 13 14  2  0  0  0  0
 14 15  1  0  0  0  0
 15 16  2  0  0  0  0
 16 17  1  0  0  0  0
  8 17  2  0  0  0  0
 17 12  1  0  0  0  0
  5 18  1  0  0  0  0
  2 19  1  0  0  0  0
M  END
> <ChemID>
10352

> <CAS>
525-66-6

> <Original_SMILES>
CC(C)NCC(O)COc1cccc2ccccc12

> <preferred_name>
Propranolol

> <dsstox_substance_id>
DTXSID6023525

> <dsstox_compound_id>
DTXCID903525

> <Canonical_QSARr>
CC(C)NCC(O)COC1C=CC=C2C=CC=CC2=1

> <InChI_Code_QSARr>
InChI=1S/C16H21NO2/c1-12(2)17-10-14(18)11-19-16-9-5-7-13-6-3-4-8-15(13)16/h3-9,12,14,17-18H,10-11H2,1-2H3

> <InChI Key_QSARr>
AQHHHDLHHXJYJD-UHFFFAOYSA-N

> <Salt_Solvent>


> <Salt_Solvent_ID>
0

> <Clint>
0.35793484700045375

> <Tr_1_Tst_0>
1

$$$$
Row201
  Mrv171c012261910192D          

 22 25  0  0  0  0            999 V2000
    1.1796   -1.8551    0.0000 C   0  0  0  0  0  0  0  0  0  0  0  0
    0.8216   -1.1118    0.0000 C   0  0  0  0  0  0  0  0  0  0  0  0
   -0.0034   -1.1118    0.0000 O   0  0  0  0  0  0  0  0  0  0  0  0
   -0.4159   -0.3973    0.0000 C   0  0  0  0  0  0  0  0  0  0  0  0
   -0.0034    0.3172    0.0000 O   0  0  0  0  0  0  0  0  0  0  0  0
   -1.2409   -0.3973    0.0000 C   0  0  0  0  0  0  0  0  0  0  0  0
   -1.6534    0.3172    0.0000 C   0  0  0  0  0  0  0  0  0  0  0  0
   -1.2409    1.0316    0.0000 C   0  0  0  0  0  0  0  0  0  0  0  0
   -1.6534    1.7461    0.0000 C   0  0  0  0  0  0  0  0  0  0  0  0
   -2.4784    1.7461    0.0000 C   0  0  0  0  0  0  0  0  0  0  0  0
   -2.8909    1.0316    0.0000 C   0  0  0  0  0  0  0  0  0  0  0  0
   -2.4784    0.3172    0.0000 C   0  0  0  0  0  0  0  0  0  0  0  0
   -1.6534   -1.1118    0.0000 C   0  0  0  0  0  0  0  0  0  0  0  0
   -2.4784   -1.1118    0.0000 O   0  0  0  0  0  0  0  0  0  0  0  0
    1.1796   -0.3685    0.0000 C   0  0  0  0  0  0  0  0  0  0  0  0
    1.9839   -0.1849    0.0000 C   0  0  0  0  0  0  0  0  0  0  0  0
    2.6289   -0.6993    0.0000 C   0  0  0  0  0  0  0  0  0  0  0  0
    2.6289   -1.5243    0.0000 C   0  0  0  0  0  0  0  0  0  0  0  0
    1.9839   -2.0386    0.0000 C   0  0  0  0  0  0  0  0  0  0  0  0
    2.2156   -1.1118    0.0000 N   0  0  0  0  0  0  0  0  0  0  0  0
    3.0406   -1.1118    0.0000 C   0  0  0  0  0  0  0  0  0  0  0  0
    3.3434   -1.1118    0.0000 O   0  0  0  0  0  0  0  0  0  0  0  0
  2  1  1  0  0  0  0
  2  3  1  0  0  0  0
  3  4  1  0  0  0  0
  4  5  2  0  0  0  0
  4  6  1  0  0  0  0
  6  7  1  0  0  0  0
  8  7  2  0  0  0  0
  9  8  1  0  0  0  0
 10  9  2  0  0  0  0
 11 10  1  0  0  0  0
 12 11  2  0  0  0  0
  7 12  1  0  0  0  0
  6 13  1  0  0  0  0
 13 14  1  0  0  0  0
 15  2  1  0  0  0  0
 16 15  1  0  0  0  0
 16 17  1  0  0  0  0
 18 17  1  0  0  0  0
 18 19  1  0  0  0  0
  1 19  1  0  0  0  0
 19 20  1  0  0  0  0
 20 16  1  0  0  0  0
 20 21  1  0  0  0  0
 22 18  1  0  0  0  0
 17 22  1  0  0  0  0
M  END
> <ChemID>
10353

> <CAS>
51-34-3

> <Original_SMILES>
CN1[C@@H]2C[C@H](C[C@H]1[C@@H]1O[C@@H]12)OC(=O)[C@H](CO)c1ccccc1

> <preferred_name>
Scopolamine

> <dsstox_substance_id>
DTXSID6023573

> <dsstox_compound_id>
DTXCID603573

> <Canonical_QSARr>
CN1C2CC(CC1C1OC12)OC(=O)C(CO)C1C=CC=CC=1

> <InChI_Code_QSARr>
InChI=1S/C17H21NO4/c1-18-13-7-11(8-14(18)16-15(13)22-16)21-17(20)12(9-19)10-5-3-2-4-6-10/h2-6,11-16,19H,7-9H2,1H3

> <InChI Key_QSARr>
STECJAGHUSJQJN-UHFFFAOYSA-N

> <Salt_Solvent>


> <Salt_Solvent_ID>
0

> <Clint>
0.8450980400142567

> <Tr_1_Tst_0>
1

$$$$
Row177
  Mrv171c012261910192D          

 33 36  0  0  0  0            999 V2000
   -0.3615   -2.0412    0.0000 C   0  0  0  0  0  0  0  0  0  0  0  0
   -0.1066   -2.8258    0.0000 C   0  0  0  0  0  0  0  0  0  0  0  0
    0.7004   -2.9974    0.0000 C   0  0  0  0  0  0  0  0  0  0  0  0
    0.9553   -3.7820    0.0000 C   0  0  0  0  0  0  0  0  0  0  0  0
    1.7400   -4.0369    0.0000 C   0  0  0  0  0  0  0  0  0  0  0  0
    2.4544   -3.6244    0.0000 N   0  0  0  0  0  0  0  0  0  0  0  0
    3.1689   -4.0369    0.0000 C   0  0  0  0  0  0  0  0  0  0  0  0
    3.8834   -3.6244    0.0000 C   0  0  0  0  0  0  0  0  0  0  0  0
    4.5978   -4.0369    0.0000 C   0  0  0  0  0  0  0  0  0  0  0  0
    4.5978   -4.8619    0.0000 O   0  0  0  0  0  0  0  0  0  0  0  0
    5.3123   -5.2744    0.0000 C   0  0  0  0  0  0  0  0  0  0  0  0
    5.3123   -6.0994    0.0000 C   0  0  0  0  0  0  0  0  0  0  0  0
    5.3123   -3.6244    0.0000 C   0  0  0  0  0  0  0  0  0  0  0  0
    5.3123   -2.7994    0.0000 C   0  0  0  0  0  0  0  0  0  0  0  0
    4.5978   -2.3869    0.0000 C   0  0  0  0  0  0  0  0  0  0  0  0
    4.5978   -1.5619    0.0000 S   0  0  0  0  0  0  0  0  0  0  0  0
    4.5978   -0.7369    0.0000 N   0  0  0  0  0  0  0  0  0  0  0  0
    5.3123   -0.3244    0.0000 C   0  0  0  0  0  0  0  0  0  0  0  0
    5.3123    0.5006    0.0000 C   0  0  0  0  0  0  0  0  0  0  0  0
    4.5978    0.9131    0.0000 N   0  0  0  0  0  0  0  0  0  0  0  0
    4.5978    1.7381    0.0000 C   0  0  0  0  0  0  0  0  0  0  0  0
    3.8834    0.5006    0.0000 C   0  0  0  0  0  0  0  0  0  0  0  0
    3.8834   -0.3244    0.0000 C   0  0  0  0  0  0  0  0  0  0  0  0
    5.4228   -1.5619    0.0000 O   0  0  0  0  0  0  0  0  0  0  0  0
    3.7728   -1.5619    0.0000 O   0  0  0  0  0  0  0  0  0  0  0  0
    3.8834   -2.7994    0.0000 C   0  0  0  0  0  0  0  0  0  0  0  0
    3.1689   -4.8619    0.0000 N   0  0  0  0  0  0  0  0  0  0  0  0
    2.4544   -5.2744    0.0000 C   0  0  0  0  0  0  0  0  0  0  0  0
    2.4544   -6.0994    0.0000 O   0  0  0  0  0  0  0  0  0  0  0  0
    1.7400   -4.8619    0.0000 C   0  0  0  0  0  0  0  0  0  0  0  0
    0.9553   -5.1169    0.0000 N   0  0  0  0  0  0  0  0  0  0  0  0
    0.7004   -5.9015    0.0000 C   0  0  0  0  0  0  0  0  0  0  0  0
    0.4704   -4.4494    0.0000 N   0  0  0  0  0  0  0  0  0  0  0  0
  1  2  1  0  0  0  0
  2  3  1  0  0  0  0
  3  4  1  0  0  0  0
  5  4  1  0  0  0  0
  5  6  1  0  0  0  0
  6  7  2  0  0  0  0
  7  8  1  0  0  0  0
  9  8  1  0  0  0  0
  9 10  1  0  0  0  0
 10 11  1  0  0  0  0
 11 12  1  0  0  0  0
 13  9  2  0  0  0  0
 14 13  1  0  0  0  0
 15 14  2  0  0  0  0
 15 16  1  0  0  0  0
 16 17  1  0  0  0  0
 18 17  1  0  0  0  0
 19 18  1  0  0  0  0
 20 19  1  0  0  0  0
 20 21  1  0  0  0  0
 22 20  1  0  0  0  0
 23 22  1  0  0  0  0
 17 23  1  0  0  0  0
 16 24  2  0  0  0  0
 16 25  2  0  0  0  0
 26 15  1  0  0  0  0
  8 26  2  0  0  0  0
  7 27  1  0  0  0  0
 27 28  1  0  0  0  0
 28 29  2  0  0  0  0
 28 30  1  0  0  0  0
 30  5  2  0  0  0  0
 31 30  1  0  0  0  0
 31 32  1  0  0  0  0
 33 31  1  0  0  0  0
  4 33  2  0  0  0  0
M  END
> <ChemID>
10354

> <CAS>
139755-83-2

> <Original_SMILES>
CN1CCN(CC1)S(=O)(=O)c1cc(C2NC(=O)c3c(N=2)c(CCC)[n][n]3C)c(cc1)OCC

> <preferred_name>
Sildenafil

> <dsstox_substance_id>
DTXSID6023579

> <dsstox_compound_id>
DTXCID003579

> <Canonical_QSARr>
CN1CCN(CC1)S(=O)(=O)C1C=C(C2NC(=O)C3=C(N=2)C(CCC)=NN3C)C(=CC=1)OCC

> <InChI_Code_QSARr>
InChI=1S/C22H30N6O4S/c1-5-7-17-19-20(27(4)25-17)22(29)24-21(23-19)16-14-15(8-9-18(16)32-6-2)33(30,31)28-12-10-26(3)11-13-28/h8-9,14H,5-7,10-13H2,1-4H3,(H,23,24,29)

> <InChI Key_QSARr>
BNRNXUUZRGQAQC-UHFFFAOYSA-N

> <Salt_Solvent>


> <Salt_Solvent_ID>
0

> <Clint>
0.7160033436347991

> <Tr_1_Tst_0>
1

$$$$
Row122
  Mrv171c012261910192D          

 25 31  0  0  0  0            999 V2000
   -1.1975   -0.2442    0.0000 C   0  0  0  0  0  0  0  0  0  0  0  0
   -1.7877   -0.7736    0.0000 C   0  0  0  0  0  0  0  0  0  0  0  0
   -1.3829   -1.6045    0.0000 C   0  0  0  0  0  0  0  0  0  0  0  0
   -0.4763   -1.7160    0.0000 N   0  0  0  0  0  0  0  0  0  0  0  0
    0.3692   -1.9541    0.0000 C   0  0  0  0  0  0  0  0  0  0  0  0
    0.9092   -1.2806    0.0000 C   0  0  0  0  0  0  0  0  0  0  0  0
    0.5095   -0.4603    0.0000 C   0  0  0  0  0  0  0  0  0  0  0  0
    1.2838   -0.1061    0.0000 C   0  0  0  0  0  0  0  0  0  0  0  0
    1.9960   -0.5225    0.0000 C   0  0  0  0  0  0  0  0  0  0  0  0
    2.7127   -0.1139    0.0000 C   0  0  0  0  0  0  0  0  0  0  0  0
    2.7172    0.7111    0.0000 C   0  0  0  0  0  0  0  0  0  0  0  0
    2.0050    1.1275    0.0000 C   0  0  0  0  0  0  0  0  0  0  0  0
    1.2883    0.7189    0.0000 C   0  0  0  0  0  0  0  0  0  0  0  0
    0.5088    1.0403    0.0000 N   0  0  0  0  0  0  0  0  0  0  0  0
    0.0772    0.3475    0.0000 C   0  0  0  0  0  0  0  0  0  0  0  0
   -0.7817    0.4475    0.0000 C   0  0  0  0  0  0  0  0  0  0  0  0
   -1.2149    1.1486    0.0000 C   0  0  0  0  0  0  0  0  0  0  0  0
   -2.0595    1.2072    0.0000 O   0  0  0  0  0  0  0  0  0  0  0  0
   -2.6330    0.5873    0.0000 C   0  0  0  0  0  0  0  0  0  0  0  0
   -2.4794   -0.2553    0.0000 C   0  0  0  0  0  0  0  0  0  0  0  0
   -0.7377    1.8435    0.0000 C   0  0  0  0  0  0  0  0  0  0  0  0
    0.1005    1.7930    0.0000 C   0  0  0  0  0  0  0  0  0  0  0  0
    0.5436    2.4889    0.0000 O   0  0  0  0  0  0  0  0  0  0  0  0
   -0.1125   -0.9938    0.0000 C   0  0  0  0  0  0  0  0  0  0  0  0
   -0.6643   -0.6304    0.0000 C   0  0  0  0  0  0  0  0  0  0  0  0
  2  1  1  0  0  0  0
  2  3  1  0  0  0  0
  3  4  1  0  0  0  0
  4  5  1  0  0  0  0
  5  6  1  0  0  0  0
  6  7  1  0  0  0  0
  8  7  1  0  0  0  0
  8  9  1  0  0  0  0
  9 10  2  0  0  0  0
 10 11  1  0  0  0  0
 11 12  2  0  0  0  0
 12 13  1  0  0  0  0
 13  8  2  0  0  0  0
 14 13  1  0  0  0  0
 14 15  1  0  0  0  0
  7 15  1  0  0  0  0
 15 16  1  0  0  0  0
 16  1  1  0  0  0  0
 16 17  1  0  0  0  0
 17 18  1  0  0  0  0
 18 19  1  0  0  0  0
 19 20  1  0  0  0  0
 20  2  2  0  0  0  0
 17 21  1  0  0  0  0
 21 22  1  0  0  0  0
 22 14  1  0  0  0  0
 22 23  2  0  0  0  0
  7 24  1  0  0  0  0
 24  4  1  0  0  0  0
 25 24  1  0  0  0  0
  1 25  1  0  0  0  0
M  END
> <ChemID>
10355

> <CAS>
57-24-9

> <Original_SMILES>
O=C1C[C@@H]2OCC=C3C[N@@]4CC[C@]56[C@H]([C@H]2[C@H]3C[C@@H]54)N1c1ccccc61

> <preferred_name>
Strychnine

> <dsstox_substance_id>
DTXSID6023600

> <dsstox_compound_id>
DTXCID503600

> <Canonical_QSARr>
O=C1CC2OCC=C3CN4CCC56C(C2C3CC54)N1C1C=CC=CC6=1

> <InChI_Code_QSARr>
InChI=1S/C21H22N2O2/c24-18-10-16-19-13-9-17-21(6-7-22(17)11-12(13)5-8-25-16)14-3-1-2-4-15(14)23(18)20(19)21/h1-5,13,16-17,19-20H,6-11H2

> <InChI Key_QSARr>
QMGVPVSNSZLJIA-UHFFFAOYSA-N

> <Salt_Solvent>


> <Salt_Solvent_ID>
0

> <Clint>
0.30102999566398114

> <Tr_1_Tst_0>
1

$$$$
Row93
  Mrv171c012261910192D          

 25 28  0  0  0  0            999 V2000
    1.1167   -1.8479    0.0000 C   0  0  0  0  0  0  0  0  0  0  0  0
    1.8311   -2.2604    0.0000 C   0  0  0  0  0  0  0  0  0  0  0  0
    2.5456   -1.8479    0.0000 C   0  0  0  0  0  0  0  0  0  0  0  0
    3.2601   -2.2604    0.0000 N   0  0  0  0  0  0  0  0  0  0  0  0
    3.9745   -1.8479    0.0000 C   0  0  0  0  0  0  0  0  0  0  0  0
    4.6890   -2.2604    0.0000 C   0  0  0  0  0  0  0  0  0  0  0  0
    5.4035   -1.8479    0.0000 C   0  0  0  0  0  0  0  0  0  0  0  0
    6.1180   -2.2604    0.0000 S   0  0  0  0  0  0  0  0  0  0  0  0
    6.8324   -1.8479    0.0000 C   0  0  0  0  0  0  0  0  0  0  0  0
    5.4035   -1.0229    0.0000 C   0  0  0  0  0  0  0  0  0  0  0  0
    4.6890   -0.6104    0.0000 C   0  0  0  0  0  0  0  0  0  0  0  0
    3.9745   -1.0229    0.0000 C   0  0  0  0  0  0  0  0  0  0  0  0
    3.2601   -0.6104    0.0000 S   0  0  0  0  0  0  0  0  0  0  0  0
    2.5456   -1.0229    0.0000 C   0  0  0  0  0  0  0  0  0  0  0  0
    1.8311   -0.6104    0.0000 C   0  0  0  0  0  0  0  0  0  0  0  0
    1.1167   -1.0229    0.0000 C   0  0  0  0  0  0  0  0  0  0  0  0
    3.2601   -3.0854    0.0000 C   0  0  0  0  0  0  0  0  0  0  0  0
    2.5456   -3.4979    0.0000 C   0  0  0  0  0  0  0  0  0  0  0  0
    2.5456   -4.3229    0.0000 C   0  0  0  0  0  0  0  0  0  0  0  0
    1.8311   -4.7354    0.0000 N   0  0  0  0  0  0  0  0  0  0  0  0
    1.1167   -4.3229    0.0000 C   0  0  0  0  0  0  0  0  0  0  0  0
    1.8311   -5.5604    0.0000 C   0  0  0  0  0  0  0  0  0  0  0  0
    2.5456   -5.9729    0.0000 C   0  0  0  0  0  0  0  0  0  0  0  0
    3.2601   -5.5604    0.0000 C   0  0  0  0  0  0  0  0  0  0  0  0
    3.2601   -4.7354    0.0000 C   0  0  0  0  0  0  0  0  0  0  0  0
  2  1  1  0  0  0  0
  3  2  2  0  0  0  0
  3  4  1  0  0  0  0
  4  5  1  0  0  0  0
  6  5  1  0  0  0  0
  7  6  2  0  0  0  0
  7  8  1  0  0  0  0
  8  9  1  0  0  0  0
 10  7  1  0  0  0  0
 11 10  2  0  0  0  0
 12 11  1  0  0  0  0
  5 12  2  0  0  0  0
 12 13  1  0  0  0  0
 13 14  1  0  0  0  0
 14  3  1  0  0  0  0
 15 14  2  0  0  0  0
 16 15  1  0  0  0  0
  1 16  2  0  0  0  0
  4 17  1  0  0  0  0
 17 18  1  0  0  0  0
 18 19  1  0  0  0  0
 20 19  1  0  0  0  0
 20 21  1  0  0  0  0
 22 20  1  0  0  0  0
 23 22  1  0  0  0  0
 24 23  1  0  0  0  0
 25 24  1  0  0  0  0
 19 25  1  0  0  0  0
M  END
> <ChemID>
10356

> <CAS>
50-52-2

> <Original_SMILES>
CN1CCCCC1CCN1c2cc(ccc2Sc2ccccc12)SC

> <preferred_name>
Thioridazine

> <dsstox_substance_id>
DTXSID6023656

> <dsstox_compound_id>
DTXCID403656

> <Canonical_QSARr>
CN1CCCCC1CCN1C2=CC=CC=C2SC2C=CC(=CC1=2)SC

> <InChI_Code_QSARr>
InChI=1S/C21H26N2S2/c1-22-13-6-5-7-16(22)12-14-23-18-8-3-4-9-20(18)25-21-11-10-17(24-2)15-19(21)23/h3-4,8-11,15-16H,5-7,12-14H2,1-2H3

> <InChI Key_QSARr>
KLBQZWRITKRQQV-UHFFFAOYSA-N

> <Salt_Solvent>


> <Salt_Solvent_ID>
0

> <Clint>
-0.038578905933551705

> <Tr_1_Tst_0>
1

$$$$
Row63
  Mrv171c012261910192D          

 10  9  0  0  0  0            999 V2000
    2.0741   -1.6109    0.0000 C   0  0  0  0  0  0  0  0  0  0  0  0
    2.0741   -0.7859    0.0000 C   0  0  0  0  0  0  0  0  0  0  0  0
    1.3596   -0.3734    0.0000 C   0  0  0  0  0  0  0  0  0  0  0  0
    0.6452   -0.7859    0.0000 C   0  0  0  0  0  0  0  0  0  0  0  0
   -0.0693   -0.3734    0.0000 C   0  0  0  0  0  0  0  0  0  0  0  0
    2.7886   -0.3734    0.0000 C   0  0  0  0  0  0  0  0  0  0  0  0
    3.5031   -0.7859    0.0000 C   0  0  0  0  0  0  0  0  0  0  0  0
    4.2175   -0.3734    0.0000 C   0  0  0  0  0  0  0  0  0  0  0  0
    2.7886   -2.0234    0.0000 O   0  0  0  0  0  0  0  0  0  0  0  0
    1.3596   -2.0234    0.0000 O   0  0  0  0  0  0  0  0  0  0  0  0
  1  2  1  0  0  0  0
  2  3  1  0  0  0  0
  3  4  1  0  0  0  0
  4  5  1  0  0  0  0
  2  6  1  0  0  0  0
  6  7  1  0  0  0  0
  7  8  1  0  0  0  0
  1  9  1  0  0  0  0
  1 10  2  0  0  0  0
M  END
> <ChemID>
10357

> <CAS>
99-66-1

> <Original_SMILES>
CCCC(CCC)C(O)=O

> <preferred_name>
Valproic acid

> <dsstox_substance_id>
DTXSID6023733

> <dsstox_compound_id>
DTXCID803733

> <Canonical_QSARr>
CCCC(CCC)C(O)=O

> <InChI_Code_QSARr>
InChI=1S/C8H16O2/c1-3-5-7(6-4-2)8(9)10/h7H,3-6H2,1-2H3,(H,9,10)

> <InChI Key_QSARr>
NIJJYAXOARWZEE-UHFFFAOYSA-N

> <Salt_Solvent>


> <Salt_Solvent_ID>
0

> <Clint>
-5.75448733218585

> <Tr_1_Tst_0>
1

$$$$
Row128
  Mrv171c012261910192D          

 26 27  0  0  0  0            999 V2000
    5.0706   -3.6018    0.0000 O   0  0  0  0  0  0  0  0  0  0  0  0
    5.7850   -3.1893    0.0000 C   0  0  0  0  0  0  0  0  0  0  0  0
    4.3561   -3.1893    0.0000 C   0  0  0  0  0  0  0  0  0  0  0  0
    3.6416   -3.6018    0.0000 C   0  0  0  0  0  0  0  0  0  0  0  0
    2.9271   -3.1893    0.0000 C   0  0  0  0  0  0  0  0  0  0  0  0
    2.9271   -2.3643    0.0000 S   0  0  0  0  0  0  0  0  0  0  0  0
    2.9271   -1.5393    0.0000 N   0  0  0  0  0  0  0  0  0  0  0  0
    3.6416   -1.1268    0.0000 C   0  0  0  0  0  0  0  0  0  0  0  0
    3.6416   -0.3018    0.0000 N   0  0  0  0  0  0  0  0  0  0  0  0
    4.3561    0.1107    0.0000 C   0  0  0  0  0  0  0  0  0  0  0  0
    5.0706   -0.3018    0.0000 N   0  0  0  0  0  0  0  0  0  0  0  0
    5.7850    0.1107    0.0000 C   0  0  0  0  0  0  0  0  0  0  0  0
    6.4995   -0.3018    0.0000 C   0  0  0  0  0  0  0  0  0  0  0  0
    5.7850    0.9357    0.0000 N   0  0  0  0  0  0  0  0  0  0  0  0
    5.0706    1.3482    0.0000 C   0  0  0  0  0  0  0  0  0  0  0  0
    5.0706    2.1732    0.0000 O   0  0  0  0  0  0  0  0  0  0  0  0
    4.3561    2.5857    0.0000 C   0  0  0  0  0  0  0  0  0  0  0  0
    4.3561    0.9357    0.0000 N   0  0  0  0  0  0  0  0  0  0  0  0
    4.3561   -1.5393    0.0000 O   0  0  0  0  0  0  0  0  0  0  0  0
    3.7521   -2.3643    0.0000 O   0  0  0  0  0  0  0  0  0  0  0  0
    2.1021   -2.3643    0.0000 O   0  0  0  0  0  0  0  0  0  0  0  0
    2.2127   -3.6018    0.0000 C   0  0  0  0  0  0  0  0  0  0  0  0
    2.2127   -4.4268    0.0000 C   0  0  0  0  0  0  0  0  0  0  0  0
    2.9271   -4.8393    0.0000 C   0  0  0  0  0  0  0  0  0  0  0  0
    3.6416   -4.4268    0.0000 C   0  0  0  0  0  0  0  0  0  0  0  0
    4.3561   -2.3643    0.0000 O   0  0  0  0  0  0  0  0  0  0  0  0
  1  2  1  0  0  0  0
  1  3  1  0  0  0  0
  3  4  1  0  0  0  0
  5  4  2  0  0  0  0
  5  6  1  0  0  0  0
  6  7  1  0  0  0  0
  7  8  1  0  0  0  0
  8  9  1  0  0  0  0
  9 10  1  0  0  0  0
 11 10  2  0  0  0  0
 12 11  1  0  0  0  0
 12 13  1  0  0  0  0
 14 12  2  0  0  0  0
 15 14  1  0  0  0  0
 15 16  1  0  0  0  0
 16 17  1  0  0  0  0
 18 15  2  0  0  0  0
 10 18  1  0  0  0  0
  8 19  2  0  0  0  0
  6 20  2  0  0  0  0
  6 21  2  0  0  0  0
 22  5  1  0  0  0  0
 23 22  2  0  0  0  0
 24 23  1  0  0  0  0
 25 24  2  0  0  0  0
  4 25  1  0  0  0  0
  3 26  2  0  0  0  0
M  END
> <ChemID>
10358

> <CAS>
74223-64-6

> <Original_SMILES>
Cc1[n]c(NC(=O)NS(=O)(=O)c2ccccc2C(=O)OC)[n]c([n]1)OC

> <preferred_name>
Metsulfuron-methyl

> <dsstox_substance_id>
DTXSID6023864

> <dsstox_compound_id>
DTXCID303864

> <Canonical_QSARr>
CC1N=C(NC(=O)NS(=O)(=O)C2C=CC=CC=2C(=O)OC)N=C(N=1)OC

> <InChI_Code_QSARr>
InChI=1S/C14H15N5O6S/c1-8-15-12(18-14(16-8)25-3)17-13(21)19-26(22,23)10-7-5-4-6-9(10)11(20)24-2/h4-7H,1-3H3,(H2,15,16,17,18,19,21)

> <InChI Key_QSARr>
RSMUVYRMZCOLBH-UHFFFAOYSA-N

> <Salt_Solvent>


> <Salt_Solvent_ID>
0

> <Clint>
0.3654879848908996

> <Tr_1_Tst_0>
1

$$$$
Row7
  Mrv171c012261910192D          

 12 13  0  0  0  0            999 V2000
    2.4334   -0.6842    0.0000 C   0  0  0  0  0  0  0  0  0  0  0  0
    3.1478   -1.0967    0.0000 N   0  0  0  0  0  0  0  0  0  0  0  0
    3.1478   -1.9217    0.0000 C   0  0  0  0  0  0  0  0  0  0  0  0
    2.7353   -2.6362    0.0000 C   0  0  0  0  0  0  0  0  0  0  0  0
    3.5603   -2.6362    0.0000 C   0  0  0  0  0  0  0  0  0  0  0  0
    2.4334    0.1408    0.0000 N   0  0  0  0  0  0  0  0  0  0  0  0
    1.7189    0.5533    0.0000 C   0  0  0  0  0  0  0  0  0  0  0  0
    1.7189    1.3783    0.0000 N   0  0  0  0  0  0  0  0  0  0  0  0
    1.0044    0.1408    0.0000 N   0  0  0  0  0  0  0  0  0  0  0  0
    1.0044   -0.6842    0.0000 C   0  0  0  0  0  0  0  0  0  0  0  0
    0.2899   -1.0967    0.0000 N   0  0  0  0  0  0  0  0  0  0  0  0
    1.7189   -1.0967    0.0000 N   0  0  0  0  0  0  0  0  0  0  0  0
  1  2  1  0  0  0  0
  2  3  1  0  0  0  0
  4  3  1  0  0  0  0
  5  4  1  0  0  0  0
  3  5  1  0  0  0  0
  6  1  1  0  0  0  0
  7  6  2  0  0  0  0
  7  8  1  0  0  0  0
  9  7  1  0  0  0  0
 10  9  2  0  0  0  0
 10 11  1  0  0  0  0
 12 10  1  0  0  0  0
  1 12  2  0  0  0  0
M  END
> <ChemID>
10359

> <CAS>
66215-27-8

> <Original_SMILES>
Nc1[n]c(NC2CC2)[n]c(N)[n]1

> <preferred_name>
Cyromazine

> <dsstox_substance_id>
DTXSID6023999

> <dsstox_compound_id>
DTXCID403999

> <Canonical_QSARr>
NC1=NC(NC2CC2)=NC(N)=N1

> <InChI_Code_QSARr>
InChI=1S/C6H10N6/c7-4-10-5(8)12-6(11-4)9-3-1-2-3/h3H,1-2H2,(H5,7,8,9,10,11,12)

> <InChI Key_QSARr>
LVQDKIWDGQRHTE-UHFFFAOYSA-N

> <Salt_Solvent>


> <Salt_Solvent_ID>
0

> <Clint>
-7.0

> <Tr_1_Tst_0>
1

$$$$
Row8
  Mrv171c012261910192D          

 19 21  0  0  0  0            999 V2000
    1.5282    0.3709    0.0000 N   0  3  0  0  0  0  0  0  0  0  0  0
    0.8608    0.8558    0.0000 N   0  0  0  0  0  0  0  0  0  0  0  0
    0.8608    1.6808    0.0000 C   0  0  0  0  0  0  0  0  0  0  0  0
    0.1934    0.3709    0.0000 C   0  0  0  0  0  0  0  0  0  0  0  0
   -0.5913    0.6258    0.0000 C   0  0  0  0  0  0  0  0  0  0  0  0
   -0.7628    1.4328    0.0000 C   0  0  0  0  0  0  0  0  0  0  0  0
   -1.5474    1.6878    0.0000 C   0  0  0  0  0  0  0  0  0  0  0  0
   -2.1605    1.1357    0.0000 C   0  0  0  0  0  0  0  0  0  0  0  0
   -1.9890    0.3287    0.0000 C   0  0  0  0  0  0  0  0  0  0  0  0
   -1.2044    0.0738    0.0000 C   0  0  0  0  0  0  0  0  0  0  0  0
    0.4483   -0.4137    0.0000 C   0  0  0  0  0  0  0  0  0  0  0  0
    1.2733   -0.4137    0.0000 C   0  0  0  0  0  0  0  0  0  0  0  0
    1.7582   -1.0812    0.0000 C   0  0  0  0  0  0  0  0  0  0  0  0
    1.4227   -1.8348    0.0000 C   0  0  0  0  0  0  0  0  0  0  0  0
    1.9076   -2.5023    0.0000 C   0  0  0  0  0  0  0  0  0  0  0  0
    2.7281   -2.4160    0.0000 C   0  0  0  0  0  0  0  0  0  0  0  0
    3.0636   -1.6624    0.0000 C   0  0  0  0  0  0  0  0  0  0  0  0
    2.5787   -0.9949    0.0000 C   0  0  0  0  0  0  0  0  0  0  0  0
    2.3129    0.6258    0.0000 C   0  0  0  0  0  0  0  0  0  0  0  0
  2  1  1  0  0  0  0
  2  3  1  0  0  0  0
  4  2  1  0  0  0  0
  4  5  1  0  0  0  0
  6  5  2  0  0  0  0
  7  6  1  0  0  0  0
  8  7  2  0  0  0  0
  9  8  1  0  0  0  0
 10  9  2  0  0  0  0
  5 10  1  0  0  0  0
 11  4  2  0  0  0  0
 12 11  1  0  0  0  0
  1 12  2  0  0  0  0
 12 13  1  0  0  0  0
 14 13  2  0  0  0  0
 15 14  1  0  0  0  0
 16 15  2  0  0  0  0
 17 16  1  0  0  0  0
 18 17  2  0  0  0  0
 13 18  1  0  0  0  0
  1 19  1  0  0  0  0
M  CHG  1   1   1
M  END
> <ChemID>
10360

> <CAS>
43222-48-6

> <Original_SMILES>
COS([O-])(=O)=O.C[n]1c(cc(-c2ccccc2)[n+]1C)-c1ccccc1

> <preferred_name>
Difenzoquat metilsulfate

> <dsstox_substance_id>
DTXSID6024048

> <dsstox_compound_id>
DTXCID804048

> <Canonical_QSARr>
CN1C(=CC(C2C=CC=CC=2)=[N+]1C)C1C=CC=CC=1

> <InChI_Code_QSARr>
InChI=1S/C17H17N2/c1-18-16(14-9-5-3-6-10-14)13-17(19(18)2)15-11-7-4-8-12-15/h3-13H,1-2H3/q+1

> <InChI Key_QSARr>
LBGPXIPGGRQBJW-UHFFFAOYSA-N

> <Salt_Solvent>
S(=O)(=O)(OC)[O-]

> <Salt_Solvent_ID>
2242

> <Clint>
-7.0

> <Tr_1_Tst_0>
1

$$$$
Row108
  Mrv171c012261910192D          

 20 20  0  0  0  0            999 V2000
   -1.0717    1.2375    0.0000 C   0  0  0  0  0  0  0  0  0  0  0  0
   -1.7862    1.6500    0.0000 O   0  0  0  0  0  0  0  0  0  0  0  0
   -1.7862    2.4750    0.0000 C   0  0  0  0  0  0  0  0  0  0  0  0
   -1.0717    0.4125    0.0000 C   0  0  0  0  0  0  0  0  0  0  0  0
   -1.7862    0.0000    0.0000 C   0  0  0  0  0  0  0  0  0  0  0  0
   -0.3572    0.0000    0.0000 N   0  0  0  0  0  0  0  0  0  0  0  0
    0.3573    0.4125    0.0000 C   0  0  0  0  0  0  0  0  0  0  0  0
    0.3573    1.2375    0.0000 C   0  0  0  0  0  0  0  0  0  0  0  0
    1.0717    1.6500    0.0000 O   0  0  0  0  0  0  0  0  0  0  0  0
    1.7862    1.2375    0.0000 C   0  0  0  0  0  0  0  0  0  0  0  0
    1.0717    0.0000    0.0000 O   0  0  0  0  0  0  0  0  0  0  0  0
   -0.3572   -0.8250    0.0000 C   0  0  0  0  0  0  0  0  0  0  0  0
   -1.0717   -1.2375    0.0000 C   0  0  0  0  0  0  0  0  0  0  0  0
   -1.7862   -0.8250    0.0000 C   0  0  0  0  0  0  0  0  0  0  0  0
   -1.0717   -2.0625    0.0000 C   0  0  0  0  0  0  0  0  0  0  0  0
   -0.3572   -2.4750    0.0000 C   0  0  0  0  0  0  0  0  0  0  0  0
    0.3573   -2.0625    0.0000 C   0  0  0  0  0  0  0  0  0  0  0  0
    0.3573   -1.2375    0.0000 C   0  0  0  0  0  0  0  0  0  0  0  0
    1.0717   -0.8250    0.0000 C   0  0  0  0  0  0  0  0  0  0  0  0
   -0.3572    1.6500    0.0000 O   0  0  0  0  0  0  0  0  0  0  0  0
  1  2  1  0  0  0  0
  2  3  1  0  0  0  0
  1  4  1  0  0  0  0
  4  5  1  0  0  0  0
  4  6  1  0  0  0  0
  6  7  1  0  0  0  0
  7  8  1  0  0  0  0
  8  9  1  0  0  0  0
  9 10  1  0  0  0  0
  7 11  2  0  0  0  0
  6 12  1  0  0  0  0
 13 12  1  0  0  0  0
 13 14  1  0  0  0  0
 15 13  2  0  0  0  0
 16 15  1  0  0  0  0
 17 16  2  0  0  0  0
 18 17  1  0  0  0  0
 12 18  2  0  0  0  0
 18 19  1  0  0  0  0
  1 20  2  0  0  0  0
M  END
> <ChemID>
10361

> <CAS>
57837-19-1

> <Original_SMILES>
COCC(=O)N(C(C)C(=O)OC)c1c(C)cccc1C

> <preferred_name>
Metalaxyl

> <dsstox_substance_id>
DTXSID6024175

> <dsstox_compound_id>
DTXCID704175

> <Canonical_QSARr>
CC1C=CC=C(C)C=1N(C(C)C(=O)OC)C(=O)COC

> <InChI_Code_QSARr>
InChI=1S/C15H21NO4/c1-10-7-6-8-11(2)14(10)16(13(17)9-19-4)12(3)15(18)20-5/h6-8,12H,9H2,1-5H3

> <InChI Key_QSARr>
ZQEIXNIJLIKNTD-UHFFFAOYSA-N

> <Salt_Solvent>


> <Salt_Solvent_ID>
0

> <Clint>
0.19865708695442263

> <Tr_1_Tst_0>
1

$$$$
Row97
  Mrv171c012261910192D          

 14 14  0  0  0  0            999 V2000
    2.6007   -0.6030    0.0000 N   0  0  0  0  0  0  0  0  0  0  0  0
    3.3152   -0.1905    0.0000 N   0  0  0  0  0  0  0  0  0  0  0  0
    1.8862   -0.1905    0.0000 C   0  0  0  0  0  0  0  0  0  0  0  0
    1.8862    0.6345    0.0000 S   0  0  0  0  0  0  0  0  0  0  0  0
    1.1718    1.0470    0.0000 C   0  0  0  0  0  0  0  0  0  0  0  0
    1.1718   -0.6030    0.0000 N   0  0  0  0  0  0  0  0  0  0  0  0
    1.1718   -1.4280    0.0000 N   0  0  0  0  0  0  0  0  0  0  0  0
    1.8862   -1.8405    0.0000 C   0  0  0  0  0  0  0  0  0  0  0  0
    1.8862   -2.6655    0.0000 C   0  0  0  0  0  0  0  0  0  0  0  0
    1.8862   -3.4905    0.0000 C   0  0  0  0  0  0  0  0  0  0  0  0
    1.0612   -2.6655    0.0000 C   0  0  0  0  0  0  0  0  0  0  0  0
    2.7112   -2.6655    0.0000 C   0  0  0  0  0  0  0  0  0  0  0  0
    2.6007   -1.4280    0.0000 C   0  0  0  0  0  0  0  0  0  0  0  0
    3.3152   -1.8405    0.0000 O   0  0  0  0  0  0  0  0  0  0  0  0
  1  2  1  0  0  0  0
  3  1  1  0  0  0  0
  3  4  1  0  0  0  0
  4  5  1  0  0  0  0
  6  3  2  0  0  0  0
  7  6  1  0  0  0  0
  8  7  2  0  0  0  0
  8  9  1  0  0  0  0
  9 10  1  0  0  0  0
  9 11  1  0  0  0  0
  9 12  1  0  0  0  0
 13  8  1  0  0  0  0
  1 13  1  0  0  0  0
 13 14  2  0  0  0  0
M  END
> <ChemID>
10362

> <CAS>
21087-64-9

> <Original_SMILES>
CSC1=NN=C(C(=O)N1N)C(C)(C)C

> <preferred_name>
Metribuzin

> <dsstox_substance_id>
DTXSID6024204

> <dsstox_compound_id>
DTXCID404204

> <Canonical_QSARr>
CSC1=NN=C(C(=O)N1N)C(C)(C)C

> <InChI_Code_QSARr>
InChI=1S/C8H14N4OS/c1-8(2,3)5-6(13)12(9)7(14-4)11-10-5/h9H2,1-4H3

> <InChI Key_QSARr>
FOXFZRUHNHCZPX-UHFFFAOYSA-N

> <Salt_Solvent>


> <Salt_Solvent_ID>
0

> <Clint>
0.029383777685209663

> <Tr_1_Tst_0>
1

$$$$
Row242
  Mrv171c012261910192D          

 12 12  0  0  0  0            999 V2000
    1.7400   -1.2985    0.0000 N   0  0  0  0  0  0  0  0  0  0  0  0
    1.7400   -0.4735    0.0000 C   0  0  0  0  0  0  0  0  0  0  0  0
    2.4545   -0.0610    0.0000 S   0  0  0  0  0  0  0  0  0  0  0  0
    2.4545    0.7640    0.0000 C   0  0  0  0  0  0  0  0  0  0  0  0
    3.1689    1.1765    0.0000 C   0  0  0  0  0  0  0  0  0  0  0  0
    1.0255   -0.0610    0.0000 O   0  0  0  0  0  0  0  0  0  0  0  0
    0.9967   -1.6564    0.0000 C   0  0  0  0  0  0  0  0  0  0  0  0
    0.8131   -2.4607    0.0000 C   0  0  0  0  0  0  0  0  0  0  0  0
    1.3275   -3.1057    0.0000 C   0  0  0  0  0  0  0  0  0  0  0  0
    2.1525   -3.1057    0.0000 C   0  0  0  0  0  0  0  0  0  0  0  0
    2.6669   -2.4607    0.0000 C   0  0  0  0  0  0  0  0  0  0  0  0
    2.4833   -1.6564    0.0000 C   0  0  0  0  0  0  0  0  0  0  0  0
  1  2  1  0  0  0  0
  2  3  1  0  0  0  0
  3  4  1  0  0  0  0
  4  5  1  0  0  0  0
  2  6  2  0  0  0  0
  7  1  1  0  0  0  0
  8  7  1  0  0  0  0
  9  8  1  0  0  0  0
 10  9  1  0  0  0  0
 11 10  1  0  0  0  0
 12 11  1  0  0  0  0
  1 12  1  0  0  0  0
M  END
> <ChemID>
10363

> <CAS>
2212-67-1

> <Original_SMILES>
CCSC(=O)N1CCCCCC1

> <preferred_name>
Molinate

> <dsstox_substance_id>
DTXSID6024206

> <dsstox_compound_id>
DTXCID204206

> <Canonical_QSARr>
CCSC(=O)N1CCCCCC1

> <InChI_Code_QSARr>
InChI=1S/C9H17NOS/c1-2-12-9(11)10-7-5-3-4-6-8-10/h2-8H2,1H3

> <InChI Key_QSARr>
DEDOPGXGGQYYMW-UHFFFAOYSA-N

> <Salt_Solvent>


> <Salt_Solvent_ID>
0

> <Clint>
1.0644579892269184

> <Tr_1_Tst_0>
1

$$$$
Row293
  Mrv171c012261910192D          

 16 16  0  0  0  0            999 V2000
    2.4881   -2.4750    0.0000 C   0  0  0  0  0  0  0  0  0  0  0  0
    1.6631   -2.4750    0.0000 N   0  0  0  0  0  0  0  0  0  0  0  0
    1.2506   -3.1894    0.0000 C   0  0  0  0  0  0  0  0  0  0  0  0
    0.4256   -3.1894    0.0000 C   0  0  0  0  0  0  0  0  0  0  0  0
    1.2506   -1.7605    0.0000 C   0  0  0  0  0  0  0  0  0  0  0  0
    1.6631   -1.0460    0.0000 C   0  0  0  0  0  0  0  0  0  0  0  0
    2.9006   -1.7605    0.0000 S   0  0  0  0  0  0  0  0  0  0  0  0
    3.7256   -1.7605    0.0000 C   0  0  0  0  0  0  0  0  0  0  0  0
    4.1381   -1.0460    0.0000 C   0  0  0  0  0  0  0  0  0  0  0  0
    4.9631   -1.0460    0.0000 C   0  0  0  0  0  0  0  0  0  0  0  0
    5.3756   -0.3316    0.0000 C   0  0  0  0  0  0  0  0  0  0  0  0
    4.9631    0.3829    0.0000 C   0  0  0  0  0  0  0  0  0  0  0  0
    5.3756    1.0974    0.0000 Cl  0  0  0  0  0  0  0  0  0  0  0  0
    4.1381    0.3829    0.0000 C   0  0  0  0  0  0  0  0  0  0  0  0
    3.7256   -0.3316    0.0000 C   0  0  0  0  0  0  0  0  0  0  0  0
    2.9006   -3.1894    0.0000 O   0  0  0  0  0  0  0  0  0  0  0  0
  1  2  1  0  0  0  0
  2  3  1  0  0  0  0
  3  4  1  0  0  0  0
  2  5  1  0  0  0  0
  5  6  1  0  0  0  0
  1  7  1  0  0  0  0
  7  8  1  0  0  0  0
  8  9  1  0  0  0  0
 10  9  1  0  0  0  0
 11 10  2  0  0  0  0
 12 11  1  0  0  0  0
 12 13  1  0  0  0  0
 14 12  2  0  0  0  0
 15 14  1  0  0  0  0
  9 15  2  0  0  0  0
  1 16  2  0  0  0  0
M  END
> <ChemID>
10364

> <CAS>
28249-77-6

> <Original_SMILES>
CCN(CC)C(=O)SCc1ccc(Cl)cc1

> <preferred_name>
Thiobencarb

> <dsstox_substance_id>
DTXSID6024337

> <dsstox_compound_id>
DTXCID704337

> <Canonical_QSARr>
CCN(CC)C(=O)SCC1C=CC(Cl)=CC=1

> <InChI_Code_QSARr>
InChI=1S/C12H16ClNOS/c1-3-14(4-2)12(15)16-9-10-5-7-11(13)8-6-10/h5-8H,3-4,9H2,1-2H3

> <InChI Key_QSARr>
QHTQREMOGMZHJV-UHFFFAOYSA-N

> <Salt_Solvent>


> <Salt_Solvent_ID>
0

> <Clint>
1.2619761913978125

> <Tr_1_Tst_0>
1

$$$$
Row276
  Mrv171c012261910192D          

 15 16  0  0  0  0            999 V2000
    1.4289   -1.6500    0.0000 N   0  0  0  0  0  0  0  0  0  0  0  0
    1.4289   -2.4750    0.0000 C   0  0  0  0  0  0  0  0  0  0  0  0
    2.1434   -2.8875    0.0000 C   0  0  0  0  0  0  0  0  0  0  0  0
    2.1434   -3.7125    0.0000 C   0  0  0  0  0  0  0  0  0  0  0  0
    1.4289   -4.1250    0.0000 C   0  0  0  0  0  0  0  0  0  0  0  0
    0.7145   -3.7125    0.0000 C   0  0  0  0  0  0  0  0  0  0  0  0
    0.7145   -2.8875    0.0000 C   0  0  0  0  0  0  0  0  0  0  0  0
    1.4289   -4.9500    0.0000 N   0  0  0  0  0  0  0  0  0  0  0  0
    2.1434   -5.3625    0.0000 N   0  0  0  0  0  0  0  0  0  0  0  0
    2.1434   -6.1875    0.0000 C   0  0  0  0  0  0  0  0  0  0  0  0
    2.8579   -6.6000    0.0000 C   0  0  0  0  0  0  0  0  0  0  0  0
    2.8579   -7.4250    0.0000 C   0  0  0  0  0  0  0  0  0  0  0  0
    2.1434   -7.8375    0.0000 C   0  0  0  0  0  0  0  0  0  0  0  0
    1.4289   -7.4250    0.0000 C   0  0  0  0  0  0  0  0  0  0  0  0
    1.4289   -6.6000    0.0000 C   0  0  0  0  0  0  0  0  0  0  0  0
  1  2  1  0  0  0  0
  2  3  1  0  0  0  0
  3  4  2  0  0  0  0
  4  5  1  0  0  0  0
  5  6  2  0  0  0  0
  6  7  1  0  0  0  0
  2  7  2  0  0  0  0
  8  5  1  4  0  0  0
  8  9  2  0  0  0  0
  9 10  1  0  0  0  0
 10 11  1  0  0  0  0
 11 12  2  0  0  0  0
 12 13  1  0  0  0  0
 13 14  2  0  0  0  0
 14 15  1  0  0  0  0
 10 15  2  0  0  0  0
M  END
> <ChemID>
10365

> <CAS>
60-09-3

> <Original_SMILES>
Nc1ccc(cc1)/N=N/c1ccccc1

> <preferred_name>
4-Aminoazobenzene

> <dsstox_substance_id>
DTXSID6024460

> <dsstox_compound_id>
DTXCID004460

> <Canonical_QSARr>
NC1C=CC(=CC=1)N=NC1C=CC=CC=1

> <InChI_Code_QSARr>
InChI=1S/C12H11N3/c13-10-6-8-12(9-7-10)15-14-11-4-2-1-3-5-11/h1-9H,13H2

> <InChI Key_QSARr>
QPQKUYVSJWQSDY-UHFFFAOYSA-N

> <Salt_Solvent>


> <Salt_Solvent_ID>
0

> <Clint>
1.1958443247472819

> <Tr_1_Tst_0>
1

$$$$
Row113
  Mrv171c012261910192D          

 20 21  0  0  0  0            999 V2000
    3.4929   -3.6437    0.0000 C   0  0  0  0  0  0  0  0  0  0  0  0
    4.2074   -4.0562    0.0000 C   0  0  0  0  0  0  0  0  0  0  0  0
    3.4929   -2.8187    0.0000 C   0  0  0  0  0  0  0  0  0  0  0  0
    2.7785   -2.4062    0.0000 C   0  0  0  0  0  0  0  0  0  0  0  0
    2.7785   -1.5812    0.0000 C   0  0  0  0  0  0  0  0  0  0  0  0
    2.0640   -1.1687    0.0000 O   0  0  0  0  0  0  0  0  0  0  0  0
    3.4929   -1.1687    0.0000 C   0  0  0  0  0  0  0  0  0  0  0  0
    3.4929   -0.3437    0.0000 C   0  0  0  0  0  0  0  0  0  0  0  0
    4.2074    0.0688    0.0000 C   0  0  0  0  0  0  0  0  0  0  0  0
    4.2074    0.8938    0.0000 C   0  0  0  0  0  0  0  0  0  0  0  0
    4.9219    1.3063    0.0000 O   0  0  0  0  0  0  0  0  0  0  0  0
    3.4929    1.3063    0.0000 N   0  0  0  0  0  0  0  0  0  0  0  0
    2.7785    0.8938    0.0000 C   0  0  0  0  0  0  0  0  0  0  0  0
    2.0640    1.3063    0.0000 O   0  0  0  0  0  0  0  0  0  0  0  0
    2.7785    0.0688    0.0000 C   0  0  0  0  0  0  0  0  0  0  0  0
    2.0640   -2.8187    0.0000 C   0  0  0  0  0  0  0  0  0  0  0  0
    1.3495   -2.4062    0.0000 O   0  0  0  0  0  0  0  0  0  0  0  0
    2.0640   -3.6437    0.0000 C   0  0  0  0  0  0  0  0  0  0  0  0
    1.3495   -4.0562    0.0000 C   0  0  0  0  0  0  0  0  0  0  0  0
    2.7785   -4.0562    0.0000 C   0  0  0  0  0  0  0  0  0  0  0  0
  1  2  1  0  0  0  0
  3  1  1  0  0  0  0
  4  3  1  0  0  0  0
  4  5  1  0  0  0  0
  5  6  1  0  0  0  0
  5  7  1  0  0  0  0
  7  8  1  0  0  0  0
  9  8  1  0  0  0  0
 10  9  1  0  0  0  0
 10 11  2  0  0  0  0
 12 10  1  0  0  0  0
 13 12  1  0  0  0  0
 13 14  2  0  0  0  0
 15 13  1  0  0  0  0
  8 15  1  0  0  0  0
 16  4  1  0  0  0  0
 16 17  2  0  0  0  0
 18 16  1  0  0  0  0
 18 19  1  0  0  0  0
 20 18  1  0  0  0  0
  1 20  1  0  0  0  0
M  END
> <ChemID>
10366

> <CAS>
66-81-9

> <Original_SMILES>
C[C@@H]1C[C@@H]([C@H](O)CC2CC(=O)NC(=O)C2)C(=O)[C@@H](C)C1

> <preferred_name>
Cycloheximide

> <dsstox_substance_id>
DTXSID6024882

> <dsstox_compound_id>
DTXCID204882

> <Canonical_QSARr>
CC1CC(C(O)CC2CC(=O)NC(=O)C2)C(=O)C(C)C1

> <InChI_Code_QSARr>
InChI=1S/C15H23NO4/c1-8-3-9(2)15(20)11(4-8)12(17)5-10-6-13(18)16-14(19)7-10/h8-12,17H,3-7H2,1-2H3,(H,16,18,19)

> <InChI Key_QSARr>
YPHMISFOHDHNIV-UHFFFAOYSA-N

> <Salt_Solvent>


> <Salt_Solvent_ID>
0

> <Clint>
0.2405492482825997

> <Tr_1_Tst_0>
1

$$$$
Row422
  Mrv171c012261910192D          

 15 15  0  0  0  0            999 V2000
    2.3374   -1.1472    0.0000 C   0  0  0  0  0  0  0  0  0  0  0  0
    1.6229   -0.7347    0.0000 C   0  0  0  0  0  0  0  0  0  0  0  0
    1.6229    0.0903    0.0000 C   0  0  0  0  0  0  0  0  0  0  0  0
    1.6229    0.9153    0.0000 C   0  0  0  0  0  0  0  0  0  0  0  0
    0.7979    0.0903    0.0000 C   0  0  0  0  0  0  0  0  0  0  0  0
    2.4479    0.0903    0.0000 C   0  0  0  0  0  0  0  0  0  0  0  0
    0.9085   -1.1472    0.0000 C   0  0  0  0  0  0  0  0  0  0  0  0
    0.9085   -1.9722    0.0000 C   0  0  0  0  0  0  0  0  0  0  0  0
    1.6229   -2.3847    0.0000 C   0  0  0  0  0  0  0  0  0  0  0  0
    2.3374   -1.9722    0.0000 C   0  0  0  0  0  0  0  0  0  0  0  0
    3.0519   -2.3847    0.0000 C   0  0  0  0  0  0  0  0  0  0  0  0
    3.7664   -2.7972    0.0000 C   0  0  0  0  0  0  0  0  0  0  0  0
    2.6394   -3.0992    0.0000 C   0  0  0  0  0  0  0  0  0  0  0  0
    3.4644   -1.6703    0.0000 C   0  0  0  0  0  0  0  0  0  0  0  0
    3.0519   -0.7347    0.0000 O   0  0  0  0  0  0  0  0  0  0  0  0
  2  1  1  0  0  0  0
  2  3  1  0  0  0  0
  3  4  1  0  0  0  0
  3  5  1  0  0  0  0
  3  6  1  0  0  0  0
  7  2  2  0  0  0  0
  8  7  1  0  0  0  0
  9  8  2  0  0  0  0
 10  9  1  0  0  0  0
  1 10  2  0  0  0  0
 10 11  1  0  0  0  0
 11 12  1  0  0  0  0
 11 13  1  0  0  0  0
 11 14  1  0  0  0  0
  1 15  1  0  0  0  0
M  END
> <ChemID>
10367

> <CAS>
128-39-2

> <Original_SMILES>
CC(C)(C)c1cccc(c1O)C(C)(C)C

> <preferred_name>
2,6-Di-tert-butylphenol

> <dsstox_substance_id>
DTXSID6027052

> <dsstox_compound_id>
DTXCID007052

> <Canonical_QSARr>
CC(C)(C)C1=CC=CC(=C1O)C(C)(C)C

> <InChI_Code_QSARr>
InChI=1S/C14H22O/c1-13(2,3)10-8-7-9-11(12(10)15)14(4,5)6/h7-9,15H,1-6H3

> <InChI Key_QSARr>
DKCPKDPYUFEZCP-UHFFFAOYSA-N

> <Salt_Solvent>


> <Salt_Solvent_ID>
0

> <Clint>
-7.0

> <Tr_1_Tst_0>
0

$$$$
Row278
  Mrv171c012261910192D          

 11 11  0  0  0  0            999 V2000
    1.7488   -0.9375    0.0000 C   0  0  0  0  0  0  0  0  0  0  0  0
    2.4633   -0.5250    0.0000 N   0  0  0  0  0  0  0  0  0  0  0  0
    1.0343   -0.5250    0.0000 C   0  0  0  0  0  0  0  0  0  0  0  0
    1.0343    0.3000    0.0000 C   0  0  0  0  0  0  0  0  0  0  0  0
    0.3198    0.7125    0.0000 C   0  0  0  0  0  0  0  0  0  0  0  0
    0.3198   -0.9375    0.0000 C   0  0  0  0  0  0  0  0  0  0  0  0
    0.3198   -1.7625    0.0000 C   0  0  0  0  0  0  0  0  0  0  0  0
    1.0343   -2.1750    0.0000 C   0  0  0  0  0  0  0  0  0  0  0  0
    1.7488   -1.7625    0.0000 C   0  0  0  0  0  0  0  0  0  0  0  0
    2.4633   -2.1750    0.0000 C   0  0  0  0  0  0  0  0  0  0  0  0
    3.1777   -1.7625    0.0000 C   0  0  0  0  0  0  0  0  0  0  0  0
  1  2  1  0  0  0  0
  3  1  1  0  0  0  0
  3  4  1  0  0  0  0
  4  5  1  0  0  0  0
  6  3  2  0  0  0  0
  7  6  1  0  0  0  0
  8  7  2  0  0  0  0
  9  8  1  0  0  0  0
  1  9  2  0  0  0  0
  9 10  1  0  0  0  0
 10 11  1  0  0  0  0
M  END
> <ChemID>
10368

> <CAS>
579-66-8

> <Original_SMILES>
CCc1cccc(CC)c1N

> <preferred_name>
2,6-Diethylaniline

> <dsstox_substance_id>
DTXSID6027218

> <dsstox_compound_id>
DTXCID607218

> <Canonical_QSARr>
CCC1=CC=CC(CC)=C1N

> <InChI_Code_QSARr>
InChI=1S/C10H15N/c1-3-8-6-5-7-9(4-2)10(8)11/h5-7H,3-4,11H2,1-2H3

> <InChI Key_QSARr>
FOYHNROGBXVLLX-UHFFFAOYSA-N

> <Salt_Solvent>


> <Salt_Solvent_ID>
0

> <Clint>
1.2076343673889613

> <Tr_1_Tst_0>
1

$$$$
Row252
  Mrv171c012261910192D          

 16 16  0  0  0  0            999 V2000
    1.8766   -1.1674    0.0000 C   0  0  0  0  0  0  0  0  0  0  0  0
    1.1622   -0.7549    0.0000 C   0  0  0  0  0  0  0  0  0  0  0  0
    1.1622    0.0701    0.0000 Cl  0  0  0  0  0  0  0  0  0  0  0  0
    0.4477   -1.1674    0.0000 C   0  0  0  0  0  0  0  0  0  0  0  0
    0.4477   -1.9924    0.0000 C   0  0  0  0  0  0  0  0  0  0  0  0
   -0.2668   -2.4049    0.0000 Cl  0  0  0  0  0  0  0  0  0  0  0  0
    1.1622   -2.4049    0.0000 C   0  0  0  0  0  0  0  0  0  0  0  0
    1.1622   -3.2299    0.0000 Cl  0  0  0  0  0  0  0  0  0  0  0  0
    1.8766   -1.9924    0.0000 N   0  0  0  0  0  0  0  0  0  0  0  0
    2.5911   -0.7549    0.0000 O   0  0  0  0  0  0  0  0  0  0  0  0
    3.3056   -1.1674    0.0000 P   0  0  0  0  0  0  0  0  0  0  0  0
    4.0201   -1.5799    0.0000 O   0  0  0  0  0  0  0  0  0  0  0  0
    4.7345   -1.1674    0.0000 C   0  0  0  0  0  0  0  0  0  0  0  0
    2.8931   -1.8819    0.0000 O   0  0  0  0  0  0  0  0  0  0  0  0
    3.3056   -2.5964    0.0000 C   0  0  0  0  0  0  0  0  0  0  0  0
    3.7181   -0.4530    0.0000 S   0  0  0  0  0  0  0  0  0  0  0  0
  2  1  1  0  0  0  0
  2  3  1  0  0  0  0
  4  2  2  0  0  0  0
  5  4  1  0  0  0  0
  5  6  1  0  0  0  0
  7  5  2  0  0  0  0
  7  8  1  0  0  0  0
  9  7  1  0  0  0  0
  1  9  2  0  0  0  0
  1 10  1  0  0  0  0
 10 11  1  0  0  0  0
 11 12  1  0  0  0  0
 12 13  1  0  0  0  0
 11 14  1  0  0  0  0
 14 15  1  0  0  0  0
 11 16  2  0  0  0  0
M  END
> <ChemID>
10369

> <CAS>
5598-13-0

> <Original_SMILES>
COP(=S)(Oc1[n]c(Cl)c(Cl)cc1Cl)OC

> <preferred_name>
Chlorpyrifos-methyl

> <dsstox_substance_id>
DTXSID6032352

> <dsstox_compound_id>
DTXCID4012352

> <Canonical_QSARr>
COP(=S)(OC1=NC(Cl)=C(Cl)C=C1Cl)OC

> <InChI_Code_QSARr>
InChI=1S/C7H7Cl3NO3PS/c1-12-15(16,13-2)14-7-5(9)3-4(8)6(10)11-7/h3H,1-2H3

> <InChI Key_QSARr>
HRBKVYFZANMGRE-UHFFFAOYSA-N

> <Salt_Solvent>


> <Salt_Solvent_ID>
0

> <Clint>
1.1078880251827985

> <Tr_1_Tst_0>
1

$$$$
Row353
  Mrv171c012261910192D          

 14 14  0  0  0  0            999 V2000
    3.0417   -1.3774    0.0000 C   0  0  0  0  0  0  0  0  0  0  0  0
    2.2167   -1.3774    0.0000 N   0  0  0  0  0  0  0  0  0  0  0  0
    1.8042   -0.6629    0.0000 C   0  0  0  0  0  0  0  0  0  0  0  0
    2.2167    0.0516    0.0000 C   0  0  0  0  0  0  0  0  0  0  0  0
    1.8042   -2.0919    0.0000 C   0  0  0  0  0  0  0  0  0  0  0  0
    0.9792   -2.0919    0.0000 C   0  0  0  0  0  0  0  0  0  0  0  0
    0.5667   -2.8063    0.0000 C   0  0  0  0  0  0  0  0  0  0  0  0
    0.9792   -3.5208    0.0000 C   0  0  0  0  0  0  0  0  0  0  0  0
    1.8042   -3.5208    0.0000 C   0  0  0  0  0  0  0  0  0  0  0  0
    2.2167   -2.8063    0.0000 C   0  0  0  0  0  0  0  0  0  0  0  0
    3.4542   -0.6629    0.0000 S   0  0  0  0  0  0  0  0  0  0  0  0
    4.2792   -0.6629    0.0000 C   0  0  0  0  0  0  0  0  0  0  0  0
    4.6917    0.0516    0.0000 C   0  0  0  0  0  0  0  0  0  0  0  0
    3.4542   -2.0919    0.0000 O   0  0  0  0  0  0  0  0  0  0  0  0
  1  2  1  0  0  0  0
  2  3  1  0  0  0  0
  3  4  1  0  0  0  0
  2  5  1  0  0  0  0
  6  5  1  0  0  0  0
  7  6  1  0  0  0  0
  8  7  1  0  0  0  0
  9  8  1  0  0  0  0
 10  9  1  0  0  0  0
  5 10  1  0  0  0  0
  1 11  1  0  0  0  0
 11 12  1  0  0  0  0
 12 13  1  0  0  0  0
  1 14  2  0  0  0  0
M  END
> <ChemID>
10370

> <CAS>
1134-23-2

> <Original_SMILES>
CCN(C1CCCCC1)C(=O)SCC

> <preferred_name>
Cycloate

> <dsstox_substance_id>
DTXSID6032356

> <dsstox_compound_id>
DTXCID4012356

> <Canonical_QSARr>
CCN(C1CCCCC1)C(=O)SCC

> <InChI_Code_QSARr>
InChI=1S/C11H21NOS/c1-3-12(11(13)14-4-2)10-8-6-5-7-9-10/h10H,3-9H2,1-2H3

> <InChI Key_QSARr>
DFCAFRGABIXSDS-UHFFFAOYSA-N

> <Salt_Solvent>


> <Salt_Solvent_ID>
0

> <Clint>
1.537567257152675

> <Tr_1_Tst_0>
1

$$$$
Row547
  Mrv171c012261910192D          

 20 22  0  0  0  0            999 V2000
    2.3611   -2.8564    0.0000 O   0  0  0  0  0  0  0  0  0  0  0  0
    2.1062   -2.0718    0.0000 C   0  0  0  0  0  0  0  0  0  0  0  0
    2.5911   -1.4044    0.0000 N   0  0  0  0  0  0  0  0  0  0  0  0
    3.4161   -1.4044    0.0000 C   0  0  0  0  0  0  0  0  0  0  0  0
    3.8286   -2.1188    0.0000 C   0  0  0  0  0  0  0  0  0  0  0  0
    3.4161   -2.8333    0.0000 C   0  0  0  0  0  0  0  0  0  0  0  0
    3.8286   -3.5478    0.0000 C   0  0  0  0  0  0  0  0  0  0  0  0
    4.6536   -2.1188    0.0000 C   0  0  0  0  0  0  0  0  0  0  0  0
    5.0661   -2.8333    0.0000 C   0  0  0  0  0  0  0  0  0  0  0  0
    5.8911   -2.8333    0.0000 C   0  0  0  0  0  0  0  0  0  0  0  0
    6.3036   -3.5478    0.0000 C   0  0  0  0  0  0  0  0  0  0  0  0
    2.1062   -0.7369    0.0000 C   0  0  0  0  0  0  0  0  0  0  0  0
    2.3611    0.0477    0.0000 O   0  0  0  0  0  0  0  0  0  0  0  0
    1.3216   -0.9919    0.0000 C   0  0  0  0  0  0  0  0  0  0  0  0
    0.6071   -0.5794    0.0000 C   0  0  0  0  0  0  0  0  0  0  0  0
   -0.1074   -0.9919    0.0000 C   0  0  0  0  0  0  0  0  0  0  0  0
   -0.1074   -1.8169    0.0000 C   0  0  0  0  0  0  0  0  0  0  0  0
    0.6071   -2.2294    0.0000 C   0  0  0  0  0  0  0  0  0  0  0  0
    1.3216   -1.8169    0.0000 C   0  0  0  0  0  0  0  0  0  0  0  0
    0.8134   -1.4044    0.0000 C   0  0  0  0  0  0  0  0  0  0  0  0
  1  2  2  0  0  0  0
  3  2  1  0  0  0  0
  3  4  1  0  0  0  0
  4  5  1  0  0  0  0
  5  6  1  0  0  0  0
  6  7  1  0  0  0  0
  5  8  1  0  0  0  0
  8  9  1  0  0  0  0
  9 10  1  0  0  0  0
 10 11  1  0  0  0  0
 12  3  1  0  0  0  0
 12 13  2  0  0  0  0
 14 12  1  0  0  0  0
 14 15  1  0  0  0  0
 16 15  1  0  0  0  0
 17 16  2  0  0  0  0
 18 17  1  0  0  0  0
 18 19  1  0  0  0  0
  2 19  1  0  0  0  0
 19 14  1  0  0  0  0
 20 18  1  0  0  0  0
 15 20  1  0  0  0  0
M  END
> <ChemID>
10371

> <CAS>
113-48-4

> <Original_SMILES>
CCC(CN1C(=O)C2C(C3CC2C=C3)C1=O)CCCC

> <preferred_name>
Octylbicycloheptenedicarboximide

> <dsstox_substance_id>
DTXSID6032562

> <dsstox_compound_id>
DTXCID4012562

> <Canonical_QSARr>
CCC(CN1C(=O)C2C(C3CC2C=C3)C1=O)CCCC

> <InChI_Code_QSARr>
InChI=1S/C17H25NO2/c1-3-5-6-11(4-2)10-18-16(19)14-12-7-8-13(9-12)15(14)17(18)20/h7-8,11-15H,3-6,9-10H2,1-2H3

> <InChI Key_QSARr>
WLLGXSLBOPFWQV-UHFFFAOYSA-N

> <Salt_Solvent>


> <Salt_Solvent_ID>
0

> <Clint>
2.128173014749728

> <Tr_1_Tst_0>
0

$$$$
Row418
  Mrv171c012261910192D          

 15 16  0  0  0  0            999 V2000
    0.1778   -1.9706    0.0000 Cl  0  0  0  0  0  0  0  0  0  0  0  0
    0.8922   -1.5581    0.0000 C   0  0  0  0  0  0  0  0  0  0  0  0
    0.8922   -0.7331    0.0000 C   0  0  0  0  0  0  0  0  0  0  0  0
    1.6067   -0.3206    0.0000 C   0  0  0  0  0  0  0  0  0  0  0  0
    2.3212   -0.7331    0.0000 C   0  0  0  0  0  0  0  0  0  0  0  0
    3.0356   -0.3206    0.0000 C   0  0  0  0  0  0  0  0  0  0  0  0
    3.7501   -0.7331    0.0000 C   0  0  0  0  0  0  0  0  0  0  0  0
    4.4646   -0.3206    0.0000 Cl  0  0  0  0  0  0  0  0  0  0  0  0
    3.7501   -1.5581    0.0000 C   0  0  0  0  0  0  0  0  0  0  0  0
    3.0356   -1.9706    0.0000 N   0  0  0  0  0  0  0  0  0  0  0  0
    2.3212   -1.5581    0.0000 C   0  0  0  0  0  0  0  0  0  0  0  0
    1.6067   -1.9706    0.0000 C   0  0  0  0  0  0  0  0  0  0  0  0
    1.6067   -2.7956    0.0000 C   0  0  0  0  0  0  0  0  0  0  0  0
    0.8922   -3.2081    0.0000 O   0  0  0  0  0  0  0  0  0  0  0  0
    2.3212   -3.2081    0.0000 O   0  0  0  0  0  0  0  0  0  0  0  0
  1  2  1  0  0  0  0
  3  2  1  0  0  0  0
  4  3  2  0  0  0  0
  5  4  1  0  0  0  0
  5  6  2  0  0  0  0
  6  7  1  0  0  0  0
  7  8  1  0  0  0  0
  7  9  2  0  0  0  0
  9 10  1  0  0  0  0
 10 11  2  0  0  0  0
 11  5  1  0  0  0  0
 12 11  1  0  0  0  0
  2 12  2  0  0  0  0
 12 13  1  0  0  0  0
 13 14  1  0  0  0  0
 13 15  2  0  0  0  0
M  END
> <ChemID>
10372

> <CAS>
84087-01-4

> <Original_SMILES>
OC(=O)c1c2[n]cc(Cl)cc2ccc1Cl

> <preferred_name>
Quinclorac

> <dsstox_substance_id>
DTXSID6032641

> <dsstox_compound_id>
DTXCID4012641

> <Canonical_QSARr>
OC(=O)C1C2=NC=C(Cl)C=C2C=CC=1Cl

> <InChI_Code_QSARr>
InChI=1S/C10H5Cl2NO2/c11-6-3-5-1-2-7(12)8(10(14)15)9(5)13-4-6/h1-4H,(H,14,15)

> <InChI Key_QSARr>
FFSSWMQPCJRCRV-UHFFFAOYSA-N

> <Salt_Solvent>


> <Salt_Solvent_ID>
0

> <Clint>
-7.0

> <Tr_1_Tst_0>
0

$$$$
Row186
  Mrv171c012261910192D          

 23 24  0  0  0  0            999 V2000
    6.2282    0.3781    0.0000 C   0  0  0  0  0  0  0  0  0  0  0  0
    5.4436    0.1232    0.0000 S   0  0  0  0  0  0  0  0  0  0  0  0
    5.1886    0.9078    0.0000 O   0  0  0  0  0  0  0  0  0  0  0  0
    4.6589   -0.1317    0.0000 N   0  0  0  0  0  0  0  0  0  0  0  0
    4.4874   -0.9387    0.0000 C   0  0  0  0  0  0  0  0  0  0  0  0
    3.7028   -1.1936    0.0000 C   0  0  0  0  0  0  0  0  0  0  0  0
    3.5313   -2.0006    0.0000 C   0  0  0  0  0  0  0  0  0  0  0  0
    2.7467   -2.2556    0.0000 N   0  0  0  0  0  0  0  0  0  0  0  0
    2.0792   -1.7706    0.0000 C   0  0  0  0  0  0  0  0  0  0  0  0
    2.0792   -0.9456    0.0000 O   0  0  0  0  0  0  0  0  0  0  0  0
    1.4118   -2.2556    0.0000 N   0  0  0  0  0  0  0  0  0  0  0  0
    0.6272   -2.0006    0.0000 C   0  0  0  0  0  0  0  0  0  0  0  0
    0.0141   -2.5526    0.0000 F   0  0  0  0  0  0  0  0  0  0  0  0
    0.4556   -1.1936    0.0000 F   0  0  0  0  0  0  0  0  0  0  0  0
    1.6667   -3.0402    0.0000 C   0  0  0  0  0  0  0  0  0  0  0  0
    1.1818   -3.7076    0.0000 C   0  0  0  0  0  0  0  0  0  0  0  0
    2.4917   -3.0402    0.0000 N   0  0  0  0  0  0  0  0  0  0  0  0
    4.1444   -2.5526    0.0000 C   0  0  0  0  0  0  0  0  0  0  0  0
    3.9728   -3.3596    0.0000 Cl  0  0  0  0  0  0  0  0  0  0  0  0
    4.9290   -2.2977    0.0000 C   0  0  0  0  0  0  0  0  0  0  0  0
    5.1005   -1.4907    0.0000 C   0  0  0  0  0  0  0  0  0  0  0  0
    5.8851   -1.2358    0.0000 Cl  0  0  0  0  0  0  0  0  0  0  0  0
    5.6985   -0.6614    0.0000 O   0  0  0  0  0  0  0  0  0  0  0  0
  1  2  1  0  0  0  0
  2  3  2  0  0  0  0
  2  4  1  0  0  0  0
  4  5  1  0  0  0  0
  6  5  1  0  0  0  0
  7  6  2  0  0  0  0
  7  8  1  0  0  0  0
  9  8  1  0  0  0  0
  9 10  2  0  0  0  0
 11  9  1  0  0  0  0
 11 12  1  0  0  0  0
 12 13  1  0  0  0  0
 12 14  1  0  0  0  0
 15 11  1  0  0  0  0
 15 16  1  0  0  0  0
 17 15  2  0  0  0  0
  8 17  1  0  0  0  0
 18  7  1  0  0  0  0
 18 19  1  0  0  0  0
 20 18  2  0  0  0  0
 21 20  1  0  0  0  0
  5 21  2  0  0  0  0
 21 22  1  0  0  0  0
  2 23  2  0  0  0  0
M  END
> <ChemID>
10373

> <CAS>
122836-35-5

> <Original_SMILES>
CC1=NN(C(=O)N1C(F)F)c1cc(NS(C)(=O)=O)c(Cl)cc1Cl

> <preferred_name>
Sulfentrazone

> <dsstox_substance_id>
DTXSID6032645

> <dsstox_compound_id>
DTXCID4012645

> <Canonical_QSARr>
CC1=NN(C(=O)N1C(F)F)C1=CC(NS(C)(=O)=O)=C(Cl)C=C1Cl

> <InChI_Code_QSARr>
InChI=1S/C11H10Cl2F2N4O3S/c1-5-16-19(11(20)18(5)10(14)15)9-4-8(17-23(2,21)22)6(12)3-7(9)13/h3-4,10,17H,1-2H3

> <InChI Key_QSARr>
OORLZFUTLGXMEF-UHFFFAOYSA-N

> <Salt_Solvent>


> <Salt_Solvent_ID>
0

> <Clint>
0.756636108245848

> <Tr_1_Tst_0>
1

$$$$
Row363
  Mrv171c012261910192D          

 24 26  0  0  0  0            999 V2000
    4.7453   -1.0526    0.0000 N   0  0  0  0  0  0  0  0  0  0  0  0
    3.9203   -1.0526    0.0000 C   0  0  0  0  0  0  0  0  0  0  0  0
    3.5078   -1.7671    0.0000 O   0  0  0  0  0  0  0  0  0  0  0  0
    2.6828   -1.7671    0.0000 C   0  0  0  0  0  0  0  0  0  0  0  0
    2.2703   -1.0526    0.0000 O   0  0  0  0  0  0  0  0  0  0  0  0
    2.2703   -2.4816    0.0000 C   0  0  0  0  0  0  0  0  0  0  0  0
    1.5558   -2.8941    0.0000 C   0  0  0  0  0  0  0  0  0  0  0  0
    0.7308   -2.8941    0.0000 C   0  0  0  0  0  0  0  0  0  0  0  0
    0.3183   -2.1796    0.0000 C   0  0  0  0  0  0  0  0  0  0  0  0
   -0.5067   -2.1796    0.0000 C   0  0  0  0  0  0  0  0  0  0  0  0
    0.7308   -1.4651    0.0000 C   0  0  0  0  0  0  0  0  0  0  0  0
    2.2703   -3.3066    0.0000 C   0  0  0  0  0  0  0  0  0  0  0  0
    2.1984   -4.1284    0.0000 C   0  0  0  0  0  0  0  0  0  0  0  0
    3.0180   -3.6552    0.0000 C   0  0  0  0  0  0  0  0  0  0  0  0
    5.2302   -0.3852    0.0000 C   0  0  0  0  0  0  0  0  0  0  0  0
    4.9753    0.3994    0.0000 O   0  0  0  0  0  0  0  0  0  0  0  0
    6.0148   -0.6401    0.0000 C   0  0  0  0  0  0  0  0  0  0  0  0
    6.7293   -0.2276    0.0000 C   0  0  0  0  0  0  0  0  0  0  0  0
    7.4438   -0.6401    0.0000 C   0  0  0  0  0  0  0  0  0  0  0  0
    7.4438   -1.4651    0.0000 C   0  0  0  0  0  0  0  0  0  0  0  0
    6.7293   -1.8776    0.0000 C   0  0  0  0  0  0  0  0  0  0  0  0
    6.0148   -1.4651    0.0000 C   0  0  0  0  0  0  0  0  0  0  0  0
    5.2302   -1.7201    0.0000 C   0  0  0  0  0  0  0  0  0  0  0  0
    4.9753   -2.5047    0.0000 O   0  0  0  0  0  0  0  0  0  0  0  0
  1  2  1  0  0  0  0
  2  3  1  0  0  0  0
  3  4  1  0  0  0  0
  4  5  2  0  0  0  0
  4  6  1  0  0  0  0
  7  6  1  0  0  0  0
  7  8  1  0  0  0  0
  8  9  2  0  0  0  0
  9 10  1  0  0  0  0
  9 11  1  0  0  0  0
 12  7  1  0  0  0  0
  6 12  1  0  0  0  0
 12 13  1  0  0  0  0
 12 14  1  0  0  0  0
 15  1  1  0  0  0  0
 15 16  2  0  0  0  0
 17 15  1  0  0  0  0
 17 18  1  0  0  0  0
 18 19  1  0  0  0  0
 19 20  1  0  0  0  0
 20 21  1  0  0  0  0
 21 22  1  0  0  0  0
 22 17  2  0  0  0  0
 23 22  1  0  0  0  0
  1 23  1  0  0  0  0
 23 24  2  0  0  0  0
M  END
> <ChemID>
10374

> <CAS>
7696-12-0

> <Original_SMILES>
CC(C)=CC1C(C(=O)OCN2C(=O)C3CCCCC=3C2=O)C1(C)C

> <preferred_name>
Tetramethrin

> <dsstox_substance_id>
DTXSID6032649

> <dsstox_compound_id>
DTXCID4012649

> <Canonical_QSARr>
CC(C)=CC1C(C(=O)OCN2C(=O)C3CCCCC=3C2=O)C1(C)C

> <InChI_Code_QSARr>
InChI=1S/C19H25NO4/c1-11(2)9-14-15(19(14,3)4)18(23)24-10-20-16(21)12-7-5-6-8-13(12)17(20)22/h9,14-15H,5-8,10H2,1-4H3

> <InChI Key_QSARr>
CXBMCYHAMVGWJQ-UHFFFAOYSA-N

> <Salt_Solvent>


> <Salt_Solvent_ID>
0

> <Clint>
1.5751878449276608

> <Tr_1_Tst_0>
1

$$$$
Row287
  Mrv171c012261910192D          

 23 25  0  0  0  0            999 V2000
    3.8834   -2.9569    0.0000 C   0  0  0  0  0  0  0  0  0  0  0  0
    3.1689   -2.5444    0.0000 N   0  0  0  0  0  0  0  0  0  0  0  0
    2.4544   -2.9569    0.0000 C   0  0  0  0  0  0  0  0  0  0  0  0
    2.4544   -3.7819    0.0000 C   0  0  0  0  0  0  0  0  0  0  0  0
    1.7399   -4.1944    0.0000 C   0  0  0  0  0  0  0  0  0  0  0  0
    1.0255   -3.7819    0.0000 C   0  0  0  0  0  0  0  0  0  0  0  0
    1.0255   -2.9569    0.0000 C   0  0  0  0  0  0  0  0  0  0  0  0
    1.7399   -2.5444    0.0000 C   0  0  0  0  0  0  0  0  0  0  0  0
    1.7399   -1.7194    0.0000 C   0  0  0  0  0  0  0  0  0  0  0  0
    2.4544   -1.3069    0.0000 C   0  0  0  0  0  0  0  0  0  0  0  0
    2.4544   -0.4819    0.0000 C   0  0  0  0  0  0  0  0  0  0  0  0
    1.7399   -0.0694    0.0000 C   0  0  0  0  0  0  0  0  0  0  0  0
    1.7399    0.7556    0.0000 Cl  0  0  0  0  0  0  0  0  0  0  0  0
    1.0255   -0.4819    0.0000 C   0  0  0  0  0  0  0  0  0  0  0  0
    1.0255   -1.3069    0.0000 C   0  0  0  0  0  0  0  0  0  0  0  0
    3.8834   -3.7819    0.0000 O   0  0  0  0  0  0  0  0  0  0  0  0
    4.5978   -2.5444    0.0000 C   0  0  0  0  0  0  0  0  0  0  0  0
    5.3123   -2.9569    0.0000 C   0  0  0  0  0  0  0  0  0  0  0  0
    6.0268   -2.5444    0.0000 C   0  0  0  0  0  0  0  0  0  0  0  0
    6.0268   -1.7194    0.0000 C   0  0  0  0  0  0  0  0  0  0  0  0
    5.3123   -1.3069    0.0000 N   0  0  0  0  0  0  0  0  0  0  0  0
    4.5978   -1.7194    0.0000 C   0  0  0  0  0  0  0  0  0  0  0  0
    3.8834   -1.3069    0.0000 Cl  0  0  0  0  0  0  0  0  0  0  0  0
  1  2  1  0  0  0  0
  2  3  1  0  0  0  0
  4  3  1  0  0  0  0
  5  4  2  0  0  0  0
  6  5  1  0  0  0  0
  7  6  2  0  0  0  0
  8  7  1  0  0  0  0
  3  8  2  0  0  0  0
  8  9  1  0  0  0  0
 10  9  1  0  0  0  0
 11 10  2  0  0  0  0
 12 11  1  0  0  0  0
 12 13  1  0  0  0  0
 14 12  2  0  0  0  0
 15 14  1  0  0  0  0
  9 15  2  0  0  0  0
  1 16  2  0  0  0  0
  1 17  1  0  0  0  0
 18 17  1  0  0  0  0
 19 18  2  0  0  0  0
 20 19  1  0  0  0  0
 21 20  2  0  0  0  0
 22 21  1  0  0  0  0
 17 22  2  0  0  0  0
 22 23  1  0  0  0  0
M  END
> <ChemID>
10375

> <CAS>
188425-85-6

> <Original_SMILES>
O=C(Nc1ccccc1-c1ccc(Cl)cc1)c1ccc[n]c1Cl

> <preferred_name>
Boscalid

> <dsstox_substance_id>
DTXSID6034392

> <dsstox_compound_id>
DTXCID4014392

> <Canonical_QSARr>
O=C(NC1C=CC=CC=1C1C=CC(Cl)=CC=1)C1C=CC=NC=1Cl

> <InChI_Code_QSARr>
InChI=1S/C18H12Cl2N2O/c19-13-9-7-12(8-10-13)14-4-1-2-6-16(14)22-18(23)15-5-3-11-21-17(15)20/h1-11H,(H,22,23)

> <InChI Key_QSARr>
WYEMLYFITZORAB-UHFFFAOYSA-N

> <Salt_Solvent>


> <Salt_Solvent_ID>
0

> <Clint>
1.2375437381428744

> <Tr_1_Tst_0>
1

$$$$
Row181
  Mrv171c012261910192D          

 33 34  0  0  0  0            999 V2000
    5.7758   -0.7191    0.0000 C   0  0  0  0  0  0  0  0  0  0  0  0
    5.0614   -0.3066    0.0000 C   0  0  0  0  0  0  0  0  0  0  0  0
    5.0614    0.5184    0.0000 C   0  0  0  0  0  0  0  0  0  0  0  0
    5.7758    0.9309    0.0000 N   0  0  0  0  0  0  0  0  0  0  0  0
    5.7758    1.7559    0.0000 S   0  0  0  0  0  0  0  0  0  0  0  0
    5.7758    2.5809    0.0000 O   0  0  0  0  0  0  0  0  0  0  0  0
    4.9508    1.7559    0.0000 O   0  0  0  0  0  0  0  0  0  0  0  0
    6.6008    1.7559    0.0000 C   0  0  0  0  0  0  0  0  0  0  0  0
    4.3469   -0.7191    0.0000 C   0  0  0  0  0  0  0  0  0  0  0  0
    4.3469   -1.5441    0.0000 C   0  0  0  0  0  0  0  0  0  0  0  0
    3.6324   -1.9566    0.0000 S   0  0  0  0  0  0  0  0  0  0  0  0
    2.9179   -2.3691    0.0000 N   0  0  0  0  0  0  0  0  0  0  0  0
    2.9179   -3.1941    0.0000 C   0  0  0  0  0  0  0  0  0  0  0  0
    2.2035   -3.6066    0.0000 N   0  0  0  0  0  0  0  0  0  0  0  0
    2.2035   -4.4316    0.0000 C   0  0  0  0  0  0  0  0  0  0  0  0
    1.4890   -4.8441    0.0000 N   0  0  0  0  0  0  0  0  0  0  0  0
    1.4890   -5.6691    0.0000 C   0  0  0  0  0  0  0  0  0  0  0  0
    0.7745   -6.0816    0.0000 O   0  0  0  0  0  0  0  0  0  0  0  0
    0.7745   -6.9066    0.0000 C   0  0  0  0  0  0  0  0  0  0  0  0
    2.2035   -6.0816    0.0000 C   0  0  0  0  0  0  0  0  0  0  0  0
    2.9179   -5.6691    0.0000 C   0  0  0  0  0  0  0  0  0  0  0  0
    3.6324   -6.0816    0.0000 O   0  0  0  0  0  0  0  0  0  0  0  0
    4.3469   -5.6691    0.0000 C   0  0  0  0  0  0  0  0  0  0  0  0
    2.9179   -4.8441    0.0000 N   0  0  0  0  0  0  0  0  0  0  0  0
    3.6324   -3.6066    0.0000 O   0  0  0  0  0  0  0  0  0  0  0  0
    3.2199   -1.2421    0.0000 O   0  0  0  0  0  0  0  0  0  0  0  0
    4.0449   -2.6710    0.0000 O   0  0  0  0  0  0  0  0  0  0  0  0
    5.0614   -1.9566    0.0000 C   0  0  0  0  0  0  0  0  0  0  0  0
    5.0614   -2.7816    0.0000 C   0  0  0  0  0  0  0  0  0  0  0  0
    4.3469   -3.1941    0.0000 O   0  0  0  0  0  0  0  0  0  0  0  0
    5.7758   -3.1941    0.0000 O   0  0  0  0  0  0  0  0  0  0  0  0
    5.7758   -4.0191    0.0000 C   0  0  0  0  0  0  0  0  0  0  0  0
    5.7758   -1.5441    0.0000 C   0  0  0  0  0  0  0  0  0  0  0  0
  2  1  1  0  0  0  0
  2  3  1  0  0  0  0
  3  4  1  0  0  0  0
  4  5  1  0  0  0  0
  5  6  2  0  0  0  0
  5  7  2  0  0  0  0
  5  8  1  0  0  0  0
  9  2  2  0  0  0  0
 10  9  1  0  0  0  0
 10 11  1  0  0  0  0
 11 12  1  0  0  0  0
 12 13  1  0  0  0  0
 13 14  1  0  0  0  0
 14 15  1  0  0  0  0
 16 15  1  0  0  0  0
 17 16  2  0  0  0  0
 17 18  1  0  0  0  0
 18 19  1  0  0  0  0
 20 17  1  0  0  0  0
 21 20  2  0  0  0  0
 21 22  1  0  0  0  0
 22 23  1  0  0  0  0
 24 21  1  0  0  0  0
 15 24  2  0  0  0  0
 13 25  2  0  0  0  0
 11 26  2  0  0  0  0
 11 27  2  0  0  0  0
 28 10  2  0  0  0  0
 28 29  1  0  0  0  0
 29 30  2  0  0  0  0
 29 31  1  0  0  0  0
 31 32  1  0  0  0  0
 33 28  1  0  0  0  0
  1 33  2  0  0  0  0
M  END
> <ChemID>
10376

> <CAS>
208465-21-8

> <Original_SMILES>
CS(=O)(=O)NCc1cc(c(cc1)C(=O)OC)S(=O)(=O)NC(=O)Nc1[n]c(cc([n]1)OC)OC

> <preferred_name>
Mesosulfuron-methyl

> <dsstox_substance_id>
DTXSID6034712

> <dsstox_compound_id>
DTXCID4014712

> <Canonical_QSARr>
CS(=O)(=O)NCC1=CC(=C(C=C1)C(=O)OC)S(=O)(=O)NC(=O)NC1N=C(C=C(N=1)OC)OC

> <InChI_Code_QSARr>
InChI=1S/C17H21N5O9S2/c1-29-13-8-14(30-2)20-16(19-13)21-17(24)22-33(27,28)12-7-10(9-18-32(4,25)26)5-6-11(12)15(23)31-3/h5-8,18H,9H2,1-4H3,(H2,19,20,21,22,24)

> <InChI Key_QSARr>
NIFKBBMCXCMCAO-UHFFFAOYSA-N

> <Salt_Solvent>


> <Salt_Solvent_ID>
0

> <Clint>
0.7363965022766424

> <Tr_1_Tst_0>
1

$$$$
Row474
  Mrv171c012261910192D          

 13 12  0  0  0  0            999 V2000
    0.0000    0.3808    0.0000 C   0  0  0  0  0  0  0  0  0  0  0  0
    0.0000    1.2058    0.0000 O   0  0  0  0  0  0  0  0  0  0  0  0
   -0.7145   -0.0317    0.0000 O   0  0  0  0  0  0  0  0  0  0  0  0
   -1.4289    0.3808    0.0000 C   0  0  0  0  0  0  0  0  0  0  0  0
   -2.1434   -0.0317    0.0000 C   0  0  0  0  0  0  0  0  0  0  0  0
   -2.8579    0.3808    0.0000 C   0  0  0  0  0  0  0  0  0  0  0  0
    0.7145   -0.0317    0.0000 N   0  0  0  0  0  0  0  0  0  0  0  0
    1.4289    0.3808    0.0000 C   0  0  0  0  0  0  0  0  0  0  0  0
    2.1434   -0.0317    0.0000 C   0  0  0  0  0  0  0  0  0  0  0  0
    2.8579    0.3808    0.0000 C   0  0  0  0  0  0  0  0  0  0  0  0
    3.5724   -0.0317    0.0000 N   0  0  0  0  0  0  0  0  0  0  0  0
    4.2868    0.3808    0.0000 C   0  0  0  0  0  0  0  0  0  0  0  0
    3.5724   -0.8567    0.0000 C   0  0  0  0  0  0  0  0  0  0  0  0
  1  2  2  0  0  0  0
  1  3  1  0  0  0  0
  3  4  1  0  0  0  0
  4  5  1  0  0  0  0
  5  6  1  0  0  0  0
  1  7  1  0  0  0  0
  7  8  1  0  0  0  0
  8  9  1  0  0  0  0
  9 10  1  0  0  0  0
 10 11  1  0  0  0  0
 11 12  1  0  0  0  0
 11 13  1  0  0  0  0
M  END
> <ChemID>
10377

> <CAS>
25606-41-1

> <Original_SMILES>
Cl.CCCOC(=O)NCCCN(C)C

> <preferred_name>
Propamocarb hydrochloride

> <dsstox_substance_id>
DTXSID6034849

> <dsstox_compound_id>
DTXCID4014849

> <Canonical_QSARr>
CCCOC(=O)NCCCN(C)C

> <InChI_Code_QSARr>
InChI=1S/C9H20N2O2/c1-4-8-13-9(12)10-6-5-7-11(2)3/h4-8H2,1-3H3,(H,10,12)

> <InChI Key_QSARr>
WZZLDXDUQPOXNW-UHFFFAOYSA-N

> <Salt_Solvent>
Cl

> <Salt_Solvent_ID>
170

> <Clint>
0.7641761323903306

> <Tr_1_Tst_0>
0

$$$$
Row94
  Mrv171c012261910192D          

 23 26  0  0  0  0            999 V2000
    3.7508   -3.4228    0.0000 N   0  0  0  0  0  0  0  0  0  0  0  0
    4.1780   -4.1285    0.0000 C   0  0  0  0  0  0  0  0  0  0  0  0
    3.8582   -4.8890    0.0000 C   0  0  0  0  0  0  0  0  0  0  0  0
    4.9813   -3.9403    0.0000 N   0  0  0  0  0  0  0  0  0  0  0  0
    5.0504   -3.1182    0.0000 N   0  0  0  0  0  0  0  0  0  0  0  0
    4.2899   -2.7984    0.0000 C   0  0  0  0  0  0  0  0  0  0  0  0
    4.1379   -1.9875    0.0000 C   0  0  0  0  0  0  0  0  0  0  0  0
    3.4091   -1.6008    0.0000 N   0  0  0  0  0  0  0  0  0  0  0  0
    2.6524   -1.9295    0.0000 C   0  0  0  0  0  0  0  0  0  0  0  0
    2.0280   -1.3903    0.0000 C   0  0  0  0  0  0  0  0  0  0  0  0
    2.1827   -0.5800    0.0000 C   0  0  0  0  0  0  0  0  0  0  0  0
    1.5582   -0.0408    0.0000 C   0  0  0  0  0  0  0  0  0  0  0  0
    0.7791   -0.3120    0.0000 C   0  0  0  0  0  0  0  0  0  0  0  0
    0.6244   -1.1224    0.0000 C   0  0  0  0  0  0  0  0  0  0  0  0
    1.2488   -1.6615    0.0000 C   0  0  0  0  0  0  0  0  0  0  0  0
    1.0941   -2.4719    0.0000 Cl  0  0  0  0  0  0  0  0  0  0  0  0
    2.4376   -2.7260    0.0000 C   0  0  0  0  0  0  0  0  0  0  0  0
    1.6176   -2.8170    0.0000 C   0  0  0  0  0  0  0  0  0  0  0  0
    1.2865   -3.5727    0.0000 C   0  0  0  0  0  0  0  0  0  0  0  0
    0.4665   -3.6637    0.0000 Cl  0  0  0  0  0  0  0  0  0  0  0  0
    1.7753   -4.2373    0.0000 C   0  0  0  0  0  0  0  0  0  0  0  0
    2.5952   -4.1462    0.0000 C   0  0  0  0  0  0  0  0  0  0  0  0
    2.9264   -3.3906    0.0000 C   0  0  0  0  0  0  0  0  0  0  0  0
  2  1  1  0  0  0  0
  2  3  1  0  0  0  0
  4  2  2  0  0  0  0
  5  4  1  0  0  0  0
  6  5  2  0  0  0  0
  6  1  1  0  0  0  0
  7  6  1  0  0  0  0
  8  7  1  0  0  0  0
  9  8  2  0  0  0  0
  9 10  1  0  0  0  0
 11 10  1  0  0  0  0
 12 11  2  0  0  0  0
 13 12  1  0  0  0  0
 14 13  2  0  0  0  0
 15 14  1  0  0  0  0
 10 15  2  0  0  0  0
 15 16  1  0  0  0  0
 17  9  1  0  0  0  0
 17 18  1  0  0  0  0
 18 19  2  0  0  0  0
 19 20  1  0  0  0  0
 19 21  1  0  0  0  0
 21 22  2  0  0  0  0
 22 23  1  0  0  0  0
  1 23  1  0  0  0  0
 23 17  2  0  0  0  0
M  END
> <ChemID>
10378

> <CAS>
28911-01-5

> <Original_SMILES>
Cc1[n][n]c2CN=C(c3cc(Cl)ccc3-[n]21)c1ccccc1Cl

> <preferred_name>
Triazolam

> <dsstox_substance_id>
DTXSID6046763

> <dsstox_compound_id>
DTXCID4026763

> <Canonical_QSARr>
CC1=NN=C2CN=C(C3C=C(Cl)C=CC=3N21)C1C=CC=CC=1Cl

> <InChI_Code_QSARr>
InChI=1S/C17H12Cl2N4/c1-10-21-22-16-9-20-17(12-4-2-3-5-14(12)19)13-8-11(18)6-7-15(13)23(10)16/h2-8H,9H2,1H3

> <InChI Key_QSARr>
JOFWLTCLBGQGBO-UHFFFAOYSA-N

> <Salt_Solvent>


> <Salt_Solvent_ID>
0

> <Clint>
0.0

> <Tr_1_Tst_0>
1

$$$$
Row229
  Mrv171c012261910192D          

 37 40  0  0  0  0            999 V2000
    2.3746   -2.3749    0.0000 C   0  0  0  0  0  0  0  0  0  0  0  0
    1.7029   -1.8959    0.0000 C   0  0  0  0  0  0  0  0  0  0  0  0
    1.0397   -2.3867    0.0000 C   0  0  0  0  0  0  0  0  0  0  0  0
    1.3016   -3.1691    0.0000 C   0  0  0  0  0  0  0  0  0  0  0  0
    2.1266   -3.1618    0.0000 C   0  0  0  0  0  0  0  0  0  0  0  0
    2.9276   -1.7627    0.0000 C   0  0  0  0  0  0  0  0  0  0  0  0
    2.6739   -0.9777    0.0000 O   0  0  0  0  0  0  0  0  0  0  0  0
    3.7343   -1.9356    0.0000 N   0  0  0  0  0  0  0  0  0  0  0  0
    4.2873   -1.3234    0.0000 C   0  0  0  0  0  0  0  0  0  0  0  0
    5.0940   -1.4962    0.0000 C   0  0  0  0  0  0  0  0  0  0  0  0
    5.6471   -0.8840    0.0000 C   0  0  0  0  0  0  0  0  0  0  0  0
    5.3934   -0.0990    0.0000 C   0  0  0  0  0  0  0  0  0  0  0  0
    5.9464    0.5132    0.0000 C   0  0  0  0  0  0  0  0  0  0  0  0
    5.6928    1.2982    0.0000 O   0  0  0  0  0  0  0  0  0  0  0  0
    6.7531    0.3404    0.0000 O   0  0  0  0  0  0  0  0  0  0  0  0
    4.5867    0.0739    0.0000 C   0  0  0  0  0  0  0  0  0  0  0  0
    4.0337   -0.5383    0.0000 C   0  0  0  0  0  0  0  0  0  0  0  0
    3.1847   -2.5308    0.0000 C   0  0  0  0  0  0  0  0  0  0  0  0
    3.4548   -3.3104    0.0000 C   0  0  0  0  0  0  0  0  0  0  0  0
    2.9147   -3.9340    0.0000 C   0  0  0  0  0  0  0  0  0  0  0  0
    2.1045   -3.7781    0.0000 O   0  0  0  0  0  0  0  0  0  0  0  0
    1.5644   -4.4018    0.0000 C   0  0  0  0  0  0  0  0  0  0  0  0
    0.7543   -4.2458    0.0000 C   0  0  0  0  0  0  0  0  0  0  0  0
    0.2142   -4.8695    0.0000 O   0  0  0  0  0  0  0  0  0  0  0  0
   -0.5959   -4.7136    0.0000 C   0  0  0  0  0  0  0  0  0  0  0  0
    4.2649   -3.4663    0.0000 C   0  0  0  0  0  0  0  0  0  0  0  0
    4.8050   -2.8426    0.0000 O   0  0  0  0  0  0  0  0  0  0  0  0
    4.5349   -4.2458    0.0000 O   0  0  0  0  0  0  0  0  0  0  0  0
    5.3451   -4.4018    0.0000 C   0  0  0  0  0  0  0  0  0  0  0  0
    5.6151   -5.1813    0.0000 C   0  0  0  0  0  0  0  0  0  0  0  0
    6.4252   -5.3372    0.0000 C   0  0  0  0  0  0  0  0  0  0  0  0
    6.9653   -4.7136    0.0000 C   0  0  0  0  0  0  0  0  0  0  0  0
    7.7902   -4.6976    0.0000 C   0  0  0  0  0  0  0  0  0  0  0  0
    8.0299   -3.9082    0.0000 C   0  0  0  0  0  0  0  0  0  0  0  0
    7.3532   -3.4363    0.0000 C   0  0  0  0  0  0  0  0  0  0  0  0
    6.6953   -3.9340    0.0000 C   0  0  0  0  0  0  0  0  0  0  0  0
    5.8852   -3.7781    0.0000 C   0  0  0  0  0  0  0  0  0  0  0  0
  2  1  1  0  0  0  0
  3  2  1  0  0  0  0
  4  3  1  0  0  0  0
  5  4  1  0  0  0  0
  1  5  1  0  0  0  0
  1  6  1  0  0  0  0
  6  7  2  0  0  0  0
  6  8  1  0  0  0  0
  8  9  1  0  0  0  0
 10  9  1  0  0  0  0
 11 10  1  0  0  0  0
 12 11  1  0  0  0  0
 12 13  1  0  0  0  0
 13 14  2  0  0  0  0
 13 15  1  0  0  0  0
 16 12  1  0  0  0  0
 17 16  1  0  0  0  0
  9 17  1  0  0  0  0
  1 18  1  0  0  0  0
 18 19  1  0  0  0  0
 19 20  1  0  0  0  0
 20 21  1  0  0  0  0
 21 22  1  0  0  0  0
 22 23  1  0  0  0  0
 23 24  1  0  0  0  0
 24 25  1  0  0  0  0
 19 26  1  0  0  0  0
 26 27  2  0  0  0  0
 26 28  1  0  0  0  0
 28 29  1  0  0  0  0
 30 29  1  0  0  0  0
 31 30  2  0  0  0  0
 32 31  1  0  0  0  0
 32 33  1  0  0  0  0
 33 34  1  0  0  0  0
 34 35  1  0  0  0  0
 35 36  1  0  0  0  0
 36 32  2  0  0  0  0
 37 36  1  0  0  0  0
 29 37  2  0  0  0  0
M  END
> <ChemID>
10379

> <CAS>
123122-55-4

> <Original_SMILES>
COCCOC[C@H](CC1(CCCC1)C(=O)N[C@@H]1CC[C@@H](CC1)C(O)=O)C(=O)Oc1cc2CCCc2cc1

> <preferred_name>
Candoxatril

> <dsstox_substance_id>
DTXSID6047286

> <dsstox_compound_id>
DTXCID4027286

> <Canonical_QSARr>
COCCOCC(CC1(CCCC1)C(=O)NC1CCC(CC1)C(O)=O)C(=O)OC1=CC2CCCC=2C=C1

> <InChI_Code_QSARr>
InChI=1S/C29H41NO7/c1-35-15-16-36-19-23(27(33)37-25-12-9-20-5-4-6-22(20)17-25)18-29(13-2-3-14-29)28(34)30-24-10-7-21(8-11-24)26(31)32/h9,12,17,21,23-24H,2-8,10-11,13-16,18-19H2,1H3,(H,30,34)(H,31,32)

> <InChI Key_QSARr>
ZTWZVMIYIIVABD-UHFFFAOYSA-N

> <Salt_Solvent>


> <Salt_Solvent_ID>
0

> <Clint>
0.9955474494751373

> <Tr_1_Tst_0>
1

$$$$
Row182
  Mrv171c012261910192D          

 27 29  0  0  0  0            999 V2000
    2.6273   -2.3120    0.0000 C   0  0  0  0  0  0  0  0  0  0  0  0
    3.3418   -1.8995    0.0000 O   0  0  0  0  0  0  0  0  0  0  0  0
    3.3418   -1.0745    0.0000 C   0  0  0  0  0  0  0  0  0  0  0  0
    1.9129   -1.8995    0.0000 C   0  0  0  0  0  0  0  0  0  0  0  0
    1.9129   -1.0745    0.0000 O   0  0  0  0  0  0  0  0  0  0  0  0
    1.1984   -0.6620    0.0000 C   0  0  0  0  0  0  0  0  0  0  0  0
    1.1984   -2.3120    0.0000 C   0  0  0  0  0  0  0  0  0  0  0  0
    1.1984   -3.1370    0.0000 C   0  0  0  0  0  0  0  0  0  0  0  0
    1.9129   -3.5495    0.0000 C   0  0  0  0  0  0  0  0  0  0  0  0
    2.6273   -3.1370    0.0000 C   0  0  0  0  0  0  0  0  0  0  0  0
    3.3418   -3.5495    0.0000 C   0  0  0  0  0  0  0  0  0  0  0  0
    3.3418   -4.3745    0.0000 O   0  0  0  0  0  0  0  0  0  0  0  0
    4.0563   -3.1370    0.0000 C   0  0  0  0  0  0  0  0  0  0  0  0
    4.7708   -3.5495    0.0000 C   0  0  0  0  0  0  0  0  0  0  0  0
    5.4852   -3.1370    0.0000 C   0  0  0  0  0  0  0  0  0  0  0  0
    5.4852   -2.3120    0.0000 N   0  0  0  0  0  0  0  0  0  0  0  0
    6.1997   -1.8995    0.0000 C   0  0  0  0  0  0  0  0  0  0  0  0
    6.9142   -2.3120    0.0000 C   0  0  0  0  0  0  0  0  0  0  0  0
    7.6286   -1.8995    0.0000 C   0  0  0  0  0  0  0  0  0  0  0  0
    8.3431   -2.3120    0.0000 C   0  0  0  0  0  0  0  0  0  0  0  0
    9.0576   -1.8995    0.0000 C   0  0  0  0  0  0  0  0  0  0  0  0
    9.0576   -1.0745    0.0000 C   0  0  0  0  0  0  0  0  0  0  0  0
    9.7721   -0.6620    0.0000 F   0  0  0  0  0  0  0  0  0  0  0  0
    8.3431   -0.6620    0.0000 C   0  0  0  0  0  0  0  0  0  0  0  0
    7.6286   -1.0745    0.0000 C   0  0  0  0  0  0  0  0  0  0  0  0
    4.7708   -1.8995    0.0000 C   0  0  0  0  0  0  0  0  0  0  0  0
    4.0563   -2.3120    0.0000 C   0  0  0  0  0  0  0  0  0  0  0  0
  1  2  1  0  0  0  0
  2  3  1  0  0  0  0
  4  1  2  0  0  0  0
  4  5  1  0  0  0  0
  5  6  1  0  0  0  0
  7  4  1  0  0  0  0
  8  7  2  0  0  0  0
  9  8  1  0  0  0  0
 10  9  2  0  0  0  0
  1 10  1  0  0  0  0
 10 11  1  0  0  0  0
 11 12  1  0  0  0  0
 11 13  1  0  0  0  0
 14 13  1  0  0  0  0
 15 14  1  0  0  0  0
 16 15  1  0  0  0  0
 16 17  1  0  0  0  0
 17 18  1  0  0  0  0
 18 19  1  0  0  0  0
 20 19  1  0  0  0  0
 21 20  2  0  0  0  0
 22 21  1  0  0  0  0
 22 23  1  0  0  0  0
 24 22  2  0  0  0  0
 25 24  1  0  0  0  0
 19 25  2  0  0  0  0
 26 16  1  0  0  0  0
 27 26  1  0  0  0  0
 13 27  1  0  0  0  0
M  END
> <ChemID>
10380

> <CAS>
139290-65-6

> <Original_SMILES>
COc1cccc([C@H](O)C2CCN(CCc3ccc(F)cc3)CC2)c1OC

> <preferred_name>
Volinanserin

> <dsstox_substance_id>
DTXSID6047363

> <dsstox_compound_id>
DTXCID4027363

> <Canonical_QSARr>
COC1C=CC=C(C(O)C2CCN(CCC3=CC=C(F)C=C3)CC2)C=1OC

> <InChI_Code_QSARr>
InChI=1S/C22H28FNO3/c1-26-20-5-3-4-19(22(20)27-2)21(25)17-11-14-24(15-12-17)13-10-16-6-8-18(23)9-7-16/h3-9,17,21,25H,10-15H2,1-2H3

> <InChI Key_QSARr>
HXTGXYRHXAGCFP-UHFFFAOYSA-N

> <Salt_Solvent>


> <Salt_Solvent_ID>
0

> <Clint>
0.7375106906734761

> <Tr_1_Tst_0>
1

$$$$
Row72
  Mrv171c012261910192D          

 18 19  0  0  0  0            999 V2000
    0.3572    1.4438    0.0000 C   0  0  0  0  0  0  0  0  0  0  0  0
   -0.3572    1.8563    0.0000 C   0  0  0  0  0  0  0  0  0  0  0  0
   -0.3572    2.6813    0.0000 Cl  0  0  0  0  0  0  0  0  0  0  0  0
   -1.0717    1.4438    0.0000 C   0  0  0  0  0  0  0  0  0  0  0  0
   -1.0717    0.6188    0.0000 C   0  0  0  0  0  0  0  0  0  0  0  0
   -0.3572    0.2063    0.0000 C   0  0  0  0  0  0  0  0  0  0  0  0
   -0.3572   -0.6187    0.0000 Cl  0  0  0  0  0  0  0  0  0  0  0  0
    0.3572    0.6188    0.0000 C   0  0  0  0  0  0  0  0  0  0  0  0
    1.0717    0.2063    0.0000 Cl  0  0  0  0  0  0  0  0  0  0  0  0
    1.0717    1.8563    0.0000 C   0  0  0  0  0  0  0  0  0  0  0  0
    1.7862    1.4438    0.0000 C   0  0  0  0  0  0  0  0  0  0  0  0
    1.7862    0.6188    0.0000 Cl  0  0  0  0  0  0  0  0  0  0  0  0
    2.5006    1.8563    0.0000 C   0  0  0  0  0  0  0  0  0  0  0  0
    2.5006    2.6813    0.0000 C   0  0  0  0  0  0  0  0  0  0  0  0
    1.7862    3.0938    0.0000 C   0  0  0  0  0  0  0  0  0  0  0  0
    1.7862    3.9188    0.0000 Cl  0  0  0  0  0  0  0  0  0  0  0  0
    1.0717    2.6813    0.0000 C   0  0  0  0  0  0  0  0  0  0  0  0
    0.3572    3.0938    0.0000 Cl  0  0  0  0  0  0  0  0  0  0  0  0
  2  1  1  0  0  0  0
  2  3  1  0  0  0  0
  4  2  2  0  0  0  0
  5  4  1  0  0  0  0
  6  5  2  0  0  0  0
  6  7  1  0  0  0  0
  8  6  1  0  0  0  0
  1  8  2  0  0  0  0
  8  9  1  0  0  0  0
  1 10  1  0  0  0  0
 11 10  1  0  0  0  0
 11 12  1  0  0  0  0
 13 11  2  0  0  0  0
 14 13  1  0  0  0  0
 15 14  2  0  0  0  0
 15 16  1  0  0  0  0
 17 15  1  0  0  0  0
 10 17  2  0  0  0  0
 17 18  1  0  0  0  0
M  END
> <ChemID>
10381

> <CAS>
38411-22-2

> <Original_SMILES>
Clc1ccc(Cl)c(Cl)c1-c1c(Cl)c(Cl)ccc1Cl

> <preferred_name>
2,2',3,3',6,6'-Hexachlorobiphenyl

> <dsstox_substance_id>
DTXSID6073499

> <dsstox_compound_id>
DTXCID9039490

> <Canonical_QSARr>
ClC1=CC=C(Cl)C(Cl)=C1C1=C(Cl)C(Cl)=CC=C1Cl

> <InChI_Code_QSARr>
InChI=1S/C12H4Cl6/c13-5-1-3-7(15)11(17)9(5)10-6(14)2-4-8(16)12(10)18/h1-4H

> <InChI Key_QSARr>
FZFUUSROAHKTTF-UHFFFAOYSA-N

> <Salt_Solvent>


> <Salt_Solvent_ID>
0

> <Clint>
-3.568636235841012

> <Tr_1_Tst_0>
1

$$$$
Row301
  Mrv171c012261910192D          

 17 18  0  0  0  0            999 V2000
    1.5011   -1.6268    0.0000 C   0  0  0  0  0  0  0  0  0  0  0  0
    2.3261   -1.6268    0.0000 C   0  0  0  0  0  0  0  0  0  0  0  0
    3.1511   -1.6268    0.0000 C   0  0  0  0  0  0  0  0  0  0  0  0
    2.3261   -0.8018    0.0000 C   0  0  0  0  0  0  0  0  0  0  0  0
    3.0405   -0.3893    0.0000 C   0  0  0  0  0  0  0  0  0  0  0  0
    3.0405    0.4357    0.0000 C   0  0  0  0  0  0  0  0  0  0  0  0
    2.3261    0.8482    0.0000 C   0  0  0  0  0  0  0  0  0  0  0  0
    2.3261    1.6732    0.0000 O   0  0  0  0  0  0  0  0  0  0  0  0
    1.6116    0.4357    0.0000 C   0  0  0  0  0  0  0  0  0  0  0  0
    1.6116   -0.3893    0.0000 C   0  0  0  0  0  0  0  0  0  0  0  0
    2.3261   -2.4518    0.0000 C   0  0  0  0  0  0  0  0  0  0  0  0
    1.6116   -2.8643    0.0000 C   0  0  0  0  0  0  0  0  0  0  0  0
    1.6116   -3.6893    0.0000 C   0  0  0  0  0  0  0  0  0  0  0  0
    2.3261   -4.1018    0.0000 C   0  0  0  0  0  0  0  0  0  0  0  0
    2.3261   -4.9268    0.0000 O   0  0  0  0  0  0  0  0  0  0  0  0
    3.0405   -3.6893    0.0000 C   0  0  0  0  0  0  0  0  0  0  0  0
    3.0405   -2.8643    0.0000 C   0  0  0  0  0  0  0  0  0  0  0  0
  1  2  1  0  0  0  0
  2  3  1  0  0  0  0
  2  4  1  0  0  0  0
  5  4  1  0  0  0  0
  6  5  2  0  0  0  0
  7  6  1  0  0  0  0
  7  8  1  0  0  0  0
  9  7  2  0  0  0  0
 10  9  1  0  0  0  0
  4 10  2  0  0  0  0
  2 11  1  0  0  0  0
 12 11  1  0  0  0  0
 13 12  2  0  0  0  0
 14 13  1  0  0  0  0
 14 15  1  0  0  0  0
 16 14  2  0  0  0  0
 17 16  1  0  0  0  0
 11 17  2  0  0  0  0
M  END
> <ChemID>
10382

> <CAS>
80-05-7

> <Original_SMILES>
CC(C)(c1ccc(O)cc1)c1ccc(O)cc1

> <preferred_name>
Bisphenol A

> <dsstox_substance_id>
DTXSID7020182

> <dsstox_compound_id>
DTXCID30182

> <Canonical_QSARr>
CC(C)(C1C=CC(O)=CC=1)C1C=CC(O)=CC=1

> <InChI_Code_QSARr>
InChI=1S/C15H16O2/c1-15(2,11-3-7-13(16)8-4-11)12-5-9-14(17)10-6-12/h3-10,16-17H,1-2H3

> <InChI Key_QSARr>
IISBACLAFKSPIT-UHFFFAOYSA-N

> <Salt_Solvent>


> <Salt_Solvent_ID>
0

> <Clint>
1.2853322276438843

> <Tr_1_Tst_0>
1

$$$$
Row88
  Mrv171c012261910192D          

 20 20  0  0  0  0            999 V2000
    1.6317   -0.6407    0.0000 O   0  0  0  0  0  0  0  0  0  0  0  0
    2.0442   -1.3552    0.0000 C   0  0  0  0  0  0  0  0  0  0  0  0
    2.8692   -1.3552    0.0000 C   0  0  0  0  0  0  0  0  0  0  0  0
    3.2817   -2.0697    0.0000 C   0  0  0  0  0  0  0  0  0  0  0  0
    4.1067   -2.0697    0.0000 C   0  0  0  0  0  0  0  0  0  0  0  0
    4.5192   -1.3552    0.0000 C   0  0  0  0  0  0  0  0  0  0  0  0
    5.3442   -1.3552    0.0000 N   0  3  0  0  0  0  0  0  0  0  0  0
    5.7567   -0.6407    0.0000 O   0  0  0  0  0  0  0  0  0  0  0  0
    5.7567   -2.0697    0.0000 O   0  5  0  0  0  0  0  0  0  0  0  0
    4.1067   -0.6407    0.0000 C   0  0  0  0  0  0  0  0  0  0  0  0
    3.2817   -0.6407    0.0000 C   0  0  0  0  0  0  0  0  0  0  0  0
    1.6317   -2.0697    0.0000 C   0  0  0  0  0  0  0  0  0  0  0  0
    0.8067   -2.0697    0.0000 N   0  0  0  0  0  0  0  0  0  0  0  0
    0.3942   -2.7841    0.0000 C   0  0  0  0  0  0  0  0  0  0  0  0
   -0.4308   -2.7841    0.0000 C   0  0  0  0  0  0  0  0  0  0  0  0
   -0.8433   -3.4986    0.0000 Cl  0  0  0  0  0  0  0  0  0  0  0  0
   -0.8433   -2.0697    0.0000 Cl  0  0  0  0  0  0  0  0  0  0  0  0
    0.8067   -3.4986    0.0000 O   0  0  0  0  0  0  0  0  0  0  0  0
    2.0442   -2.7841    0.0000 C   0  0  0  0  0  0  0  0  0  0  0  0
    1.6317   -3.4986    0.0000 O   0  0  0  0  0  0  0  0  0  0  0  0
  1  2  1  0  0  0  0
  2  3  1  0  0  0  0
  4  3  1  0  0  0  0
  5  4  2  0  0  0  0
  6  5  1  0  0  0  0
  6  7  1  0  0  0  0
  7  8  2  0  0  0  0
  7  9  1  0  0  0  0
 10  6  2  0  0  0  0
 11 10  1  0  0  0  0
  3 11  2  0  0  0  0
  2 12  1  0  0  0  0
 12 13  1  0  0  0  0
 13 14  1  0  0  0  0
 14 15  1  0  0  0  0
 15 16  1  0  0  0  0
 15 17  1  0  0  0  0
 14 18  2  0  0  0  0
 12 19  1  0  0  0  0
 19 20  1  0  0  0  0
M  CHG  2   7   1   9  -1
M  END
> <ChemID>
10383

> <CAS>
56-75-7

> <Original_SMILES>
[O-][N+](=O)c1ccc(cc1)[C@@H](O)[C@@H](CO)NC(=O)C(Cl)Cl

> <preferred_name>
Chloramphenicol

> <dsstox_substance_id>
DTXSID7020265

> <dsstox_compound_id>
DTXCID90265

> <Canonical_QSARr>
[O-][N+](=O)C1C=CC(=CC=1)C(O)C(CO)NC(=O)C(Cl)Cl

> <InChI_Code_QSARr>
InChI=1S/C11H12Cl2N2O5/c12-10(13)11(18)14-8(5-16)9(17)6-1-3-7(4-2-6)15(19)20/h1-4,8-10,16-17H,5H2,(H,14,18)

> <InChI Key_QSARr>
WIIZWVCIJKGZOK-UHFFFAOYSA-N

> <Salt_Solvent>


> <Salt_Solvent_ID>
0

> <Clint>
-0.1408617027054692

> <Tr_1_Tst_0>
1

$$$$
Row53
  Mrv171c012261910192D          

 11 12  0  0  0  0            999 V2000
   -0.0005   -1.6510    0.0000 O   0  0  0  0  0  0  0  0  0  0  0  0
    0.7140   -1.2385    0.0000 C   0  0  0  0  0  0  0  0  0  0  0  0
    0.7140   -0.4135    0.0000 C   0  0  0  0  0  0  0  0  0  0  0  0
    1.4285   -0.0010    0.0000 C   0  0  0  0  0  0  0  0  0  0  0  0
    2.1429   -0.4135    0.0000 C   0  0  0  0  0  0  0  0  0  0  0  0
    2.8574   -0.0010    0.0000 C   0  0  0  0  0  0  0  0  0  0  0  0
    3.5719   -0.4135    0.0000 C   0  0  0  0  0  0  0  0  0  0  0  0
    3.5719   -1.2385    0.0000 C   0  0  0  0  0  0  0  0  0  0  0  0
    2.8574   -1.6510    0.0000 C   0  0  0  0  0  0  0  0  0  0  0  0
    2.1429   -1.2385    0.0000 C   0  0  0  0  0  0  0  0  0  0  0  0
    1.4285   -1.6510    0.0000 O   0  0  0  0  0  0  0  0  0  0  0  0
  1  2  2  0  0  0  0
  3  2  1  0  0  0  0
  4  3  2  0  0  0  0
  5  4  1  0  0  0  0
  5  6  1  0  0  0  0
  6  7  2  0  0  0  0
  7  8  1  0  0  0  0
  8  9  2  0  0  0  0
  9 10  1  0  0  0  0
 10  5  2  0  0  0  0
 11 10  1  0  0  0  0
  2 11  1  0  0  0  0
M  END
> <ChemID>
10384

> <CAS>
91-64-5

> <Original_SMILES>
O=C1C=Cc2ccccc2O1

> <preferred_name>
Coumarin

> <dsstox_substance_id>
DTXSID7020348

> <dsstox_compound_id>
DTXCID50348

> <Canonical_QSARr>
O=C1C=CC2C=CC=CC=2O1

> <InChI_Code_QSARr>
InChI=1S/C9H6O2/c10-9-6-5-7-3-1-2-4-8(7)11-9/h1-6H

> <InChI Key_QSARr>
ZYGHJZDHTFUPRJ-UHFFFAOYSA-N

> <Salt_Solvent>


> <Salt_Solvent_ID>
0

> <Clint>
-7.0

> <Tr_1_Tst_0>
1

$$$$
Row215
  Mrv171c012261910192D          

 18 18  0  0  0  0            999 V2000
    2.3719   -1.0078    0.0000 O   0  0  0  0  0  0  0  0  0  0  0  0
    1.6574   -1.4203    0.0000 C   0  0  0  0  0  0  0  0  0  0  0  0
    0.9430   -1.0078    0.0000 O   0  0  0  0  0  0  0  0  0  0  0  0
    0.9430   -0.1828    0.0000 C   0  0  0  0  0  0  0  0  0  0  0  0
    0.2285    0.2297    0.0000 C   0  0  0  0  0  0  0  0  0  0  0  0
    0.2285    1.0547    0.0000 C   0  0  0  0  0  0  0  0  0  0  0  0
    1.6574   -2.2453    0.0000 C   0  0  0  0  0  0  0  0  0  0  0  0
    0.9430   -2.6578    0.0000 C   0  0  0  0  0  0  0  0  0  0  0  0
    0.9430   -3.4828    0.0000 C   0  0  0  0  0  0  0  0  0  0  0  0
    1.6574   -3.8953    0.0000 C   0  0  0  0  0  0  0  0  0  0  0  0
    2.3719   -3.4828    0.0000 C   0  0  0  0  0  0  0  0  0  0  0  0
    2.3719   -2.6578    0.0000 C   0  0  0  0  0  0  0  0  0  0  0  0
    3.0864   -2.2453    0.0000 C   0  0  0  0  0  0  0  0  0  0  0  0
    3.8009   -2.6578    0.0000 O   0  0  0  0  0  0  0  0  0  0  0  0
    4.5153   -2.2453    0.0000 C   0  0  0  0  0  0  0  0  0  0  0  0
    5.2298   -2.6578    0.0000 C   0  0  0  0  0  0  0  0  0  0  0  0
    5.9443   -2.2453    0.0000 C   0  0  0  0  0  0  0  0  0  0  0  0
    3.0864   -1.4203    0.0000 O   0  0  0  0  0  0  0  0  0  0  0  0
  1  2  2  0  0  0  0
  2  3  1  0  0  0  0
  3  4  1  0  0  0  0
  4  5  1  0  0  0  0
  5  6  2  0  0  0  0
  2  7  1  0  0  0  0
  8  7  1  0  0  0  0
  9  8  2  0  0  0  0
 10  9  1  0  0  0  0
 11 10  2  0  0  0  0
 12 11  1  0  0  0  0
  7 12  2  0  0  0  0
 12 13  1  0  0  0  0
 13 14  1  0  0  0  0
 14 15  1  0  0  0  0
 15 16  1  0  0  0  0
 16 17  2  0  0  0  0
 13 18  2  0  0  0  0
M  END
> <ChemID>
10385

> <CAS>
131-17-9

> <Original_SMILES>
C=CCOC(=O)c1ccccc1C(=O)OCC=C

> <preferred_name>
Diallyl phthalate

> <dsstox_substance_id>
DTXSID7020392

> <dsstox_compound_id>
DTXCID70392

> <Canonical_QSARr>
C=CCOC(=O)C1C=CC=CC=1C(=O)OCC=C

> <InChI_Code_QSARr>
InChI=1S/C14H14O4/c1-3-9-17-13(15)11-7-5-6-8-12(11)14(16)18-10-4-2/h3-8H,1-2,9-10H2

> <InChI Key_QSARr>
QUDWYFHPNIMBFC-UHFFFAOYSA-N

> <Salt_Solvent>


> <Salt_Solvent_ID>
0

> <Clint>
0.9146604305892218

> <Tr_1_Tst_0>
1

$$$$
Row465
  Mrv171c012261910192D          

 12 11  0  0  0  0            999 V2000
    0.9482   -3.3580    0.0000 S   0  0  0  0  0  0  0  0  0  0  0  0
    1.6627   -2.9455    0.0000 P   0  0  0  0  0  0  0  0  0  0  0  0
    2.0752   -3.6600    0.0000 O   0  0  0  0  0  0  0  0  0  0  0  0
    1.6627   -4.3744    0.0000 C   0  0  0  0  0  0  0  0  0  0  0  0
    2.3771   -2.5330    0.0000 O   0  0  0  0  0  0  0  0  0  0  0  0
    3.0916   -2.9455    0.0000 C   0  0  0  0  0  0  0  0  0  0  0  0
    1.2502   -2.2310    0.0000 S   0  0  0  0  0  0  0  0  0  0  0  0
    1.6627   -1.5165    0.0000 C   0  0  0  0  0  0  0  0  0  0  0  0
    1.2502   -0.8021    0.0000 C   0  0  0  0  0  0  0  0  0  0  0  0
    1.6627   -0.0876    0.0000 N   0  0  0  0  0  0  0  0  0  0  0  0
    1.2502    0.6269    0.0000 C   0  0  0  0  0  0  0  0  0  0  0  0
    0.4252   -0.8021    0.0000 O   0  0  0  0  0  0  0  0  0  0  0  0
  1  2  2  0  0  0  0
  2  3  1  0  0  0  0
  3  4  1  0  0  0  0
  2  5  1  0  0  0  0
  5  6  1  0  0  0  0
  2  7  1  0  0  0  0
  7  8  1  0  0  0  0
  8  9  1  0  0  0  0
  9 10  1  0  0  0  0
 10 11  1  0  0  0  0
  9 12  2  0  0  0  0
M  END
> <ChemID>
10386

> <CAS>
60-51-5

> <Original_SMILES>
CNC(=O)CSP(=S)(OC)OC

> <preferred_name>
Dimethoate

> <dsstox_substance_id>
DTXSID7020479

> <dsstox_compound_id>
DTXCID50479

> <Canonical_QSARr>
CNC(=O)CSP(=S)(OC)OC

> <InChI_Code_QSARr>
InChI=1S/C5H12NO3PS2/c1-6-5(7)4-12-10(11,8-2)9-3/h4H2,1-3H3,(H,6,7)

> <InChI Key_QSARr>
MCWXGJITAZMZEV-UHFFFAOYSA-N

> <Salt_Solvent>


> <Salt_Solvent_ID>
0

> <Clint>
0.5658478186735176

> <Tr_1_Tst_0>
0

$$$$
Row467
  Mrv171c012261910192D          

 17 18  0  0  0  0            999 V2000
    3.6399   -0.7435    0.0000 O   0  0  0  0  0  0  0  0  0  0  0  0
    2.8553   -0.9985    0.0000 C   0  0  0  0  0  0  0  0  0  0  0  0
    2.1879   -0.5135    0.0000 C   0  0  0  0  0  0  0  0  0  0  0  0
    2.1879    0.3115    0.0000 N   0  0  0  0  0  0  0  0  0  0  0  0
    1.4734    0.7240    0.0000 C   0  0  0  0  0  0  0  0  0  0  0  0
    2.9023    0.7240    0.0000 C   0  0  0  0  0  0  0  0  0  0  0  0
    1.5204   -0.9985    0.0000 C   0  0  0  0  0  0  0  0  0  0  0  0
    0.7358   -0.7435    0.0000 C   0  0  0  0  0  0  0  0  0  0  0  0
    1.7754   -1.7831    0.0000 N   0  0  0  0  0  0  0  0  0  0  0  0
    1.2904   -2.4505    0.0000 C   0  0  0  0  0  0  0  0  0  0  0  0
    2.6004   -1.7831    0.0000 N   0  0  0  0  0  0  0  0  0  0  0  0
    3.0853   -2.4505    0.0000 C   0  0  0  0  0  0  0  0  0  0  0  0
    2.7497   -3.2042    0.0000 C   0  0  0  0  0  0  0  0  0  0  0  0
    3.2346   -3.8716    0.0000 C   0  0  0  0  0  0  0  0  0  0  0  0
    4.0551   -3.7854    0.0000 C   0  0  0  0  0  0  0  0  0  0  0  0
    4.3907   -3.0317    0.0000 C   0  0  0  0  0  0  0  0  0  0  0  0
    3.9058   -2.3643    0.0000 C   0  0  0  0  0  0  0  0  0  0  0  0
  1  2  2  0  0  0  0
  3  2  1  0  0  0  0
  3  4  1  0  0  0  0
  4  5  1  0  0  0  0
  4  6  1  0  0  0  0
  7  3  2  0  0  0  0
  7  8  1  0  0  0  0
  9  7  1  0  0  0  0
  9 10  1  0  0  0  0
 11  9  1  0  0  0  0
  2 11  1  0  0  0  0
 11 12  1  0  0  0  0
 13 12  1  0  0  0  0
 14 13  2  0  0  0  0
 15 14  1  0  0  0  0
 16 15  2  0  0  0  0
 17 16  1  0  0  0  0
 12 17  2  0  0  0  0
M  END
> <ChemID>
10387

> <CAS>
58-15-1

> <Original_SMILES>
CN(C)C1C(=O)N(c2ccccc2)N(C)C=1C

> <preferred_name>
4-Dimethylaminoantipyrine

> <dsstox_substance_id>
DTXSID7020504

> <dsstox_compound_id>
DTXCID70504

> <Canonical_QSARr>
CN(C)C1C(=O)N(C2C=CC=CC=2)N(C)C=1C

> <InChI_Code_QSARr>
InChI=1S/C13H17N3O/c1-10-12(14(2)3)13(17)16(15(10)4)11-8-6-5-7-9-11/h5-9H,1-4H3

> <InChI Key_QSARr>
RMMXTBMQSGEXHJ-UHFFFAOYSA-N

> <Salt_Solvent>


> <Salt_Solvent_ID>
0

> <Clint>
0.6127838567197355

> <Tr_1_Tst_0>
0

$$$$
Row396
  Mrv171c012261910192D          

 26 29  0  0  0  0            999 V2000
    2.2655   -2.6921    0.0000 C   0  0  0  0  0  0  0  0  0  0  0  0
    1.9057   -1.9497    0.0000 C   0  0  0  0  0  0  0  0  0  0  0  0
    2.7974   -2.0614    0.0000 C   0  0  0  0  0  0  0  0  0  0  0  0
    3.6095   -2.2066    0.0000 C   0  0  0  0  0  0  0  0  0  0  0  0
    4.1413   -1.5759    0.0000 O   0  0  0  0  0  0  0  0  0  0  0  0
    3.8898   -2.9825    0.0000 C   0  0  0  0  0  0  0  0  0  0  0  0
    3.3580   -3.6132    0.0000 C   0  0  0  0  0  0  0  0  0  0  0  0
    3.6383   -4.3891    0.0000 C   0  0  0  0  0  0  0  0  0  0  0  0
    4.4504   -4.5343    0.0000 C   0  0  0  0  0  0  0  0  0  0  0  0
    4.9822   -3.9036    0.0000 C   0  0  0  0  0  0  0  0  0  0  0  0
    5.7943   -4.0489    0.0000 C   0  0  0  0  0  0  0  0  0  0  0  0
    6.3261   -3.4181    0.0000 C   0  0  0  0  0  0  0  0  0  0  0  0
    7.1382   -3.5634    0.0000 O   0  0  0  0  0  0  0  0  0  0  0  0
    6.0458   -2.6422    0.0000 C   0  0  0  0  0  0  0  0  0  0  0  0
    5.2337   -2.4970    0.0000 C   0  0  0  0  0  0  0  0  0  0  0  0
    4.7019   -3.1277    0.0000 C   0  0  0  0  0  0  0  0  0  0  0  0
    4.4216   -2.3518    0.0000 C   0  0  0  0  0  0  0  0  0  0  0  0
    2.5458   -3.4680    0.0000 C   0  0  0  0  0  0  0  0  0  0  0  0
    1.8945   -3.9743    0.0000 C   0  0  0  0  0  0  0  0  0  0  0  0
    1.2117   -3.5114    0.0000 C   0  0  0  0  0  0  0  0  0  0  0  0
    1.4410   -2.7189    0.0000 C   0  0  0  0  0  0  0  0  0  0  0  0
    0.6801   -2.4000    0.0000 O   0  0  0  0  0  0  0  0  0  0  0  0
    1.3196   -1.9029    0.0000 C   0  0  0  0  0  0  0  0  0  0  0  0
    0.5522   -1.6000    0.0000 C   0  0  0  0  0  0  0  0  0  0  0  0
    0.4308   -0.7840    0.0000 O   0  0  0  0  0  0  0  0  0  0  0  0
    1.9656   -1.3897    0.0000 O   0  0  0  0  0  0  0  0  0  0  0  0
  1  2  1  0  0  0  0
  3  1  1  0  0  0  0
  4  3  1  0  0  0  0
  4  5  1  0  0  0  0
  6  4  1  0  0  0  0
  6  7  1  0  0  0  0
  7  8  1  0  0  0  0
  8  9  1  0  0  0  0
  9 10  1  0  0  0  0
 11 10  2  0  0  0  0
 12 11  1  0  0  0  0
 12 13  2  0  0  0  0
 14 12  1  0  0  0  0
 15 14  1  0  0  0  0
 16 15  1  0  0  0  0
 10 16  1  0  0  0  0
 16  6  1  0  0  0  0
 16 17  1  0  0  0  0
 18  7  1  0  0  0  0
 18  1  1  0  0  0  0
 19 18  1  0  0  0  0
 20 19  1  0  0  0  0
 21 20  1  0  0  0  0
  1 21  1  0  0  0  0
 21 22  1  0  0  0  0
 21 23  1  0  0  0  0
 23 24  1  0  0  0  0
 24 25  1  0  0  0  0
 23 26  2  0  0  0  0
M  END
> <ChemID>
10388

> <CAS>
50-23-7

> <Original_SMILES>
C[C@]12CCC(=O)C=C1CC[C@@H]1[C@@H]2[C@@H](O)C[C@@]2(C)[C@H]1CC[C@]2(O)C(=O)CO

> <preferred_name>
Hydrocortisone

> <dsstox_substance_id>
DTXSID7020714

> <dsstox_compound_id>
DTXCID10714

> <Canonical_QSARr>
CC12CCC(=O)C=C1CCC1C2C(O)CC2(C)C1CCC2(O)C(=O)CO

> <InChI_Code_QSARr>
InChI=1S/C21H30O5/c1-19-7-5-13(23)9-12(19)3-4-14-15-6-8-21(26,17(25)11-22)20(15,2)10-16(24)18(14)19/h9,14-16,18,22,24,26H,3-8,10-11H2,1-2H3

> <InChI Key_QSARr>
JYGXADMDTFJGBT-UHFFFAOYSA-N

> <Salt_Solvent>


> <Salt_Solvent_ID>
0

> <Clint>
1.9637878273455551

> <Tr_1_Tst_0>
1

$$$$
Row374
  Mrv171c012261910192D          

 14 14  0  0  0  0            999 V2000
    2.1450   -0.4143    0.0000 O   0  0  0  0  0  0  0  0  0  0  0  0
    2.1450   -1.2393    0.0000 C   0  0  0  0  0  0  0  0  0  0  0  0
    1.4306   -1.6518    0.0000 O   0  0  0  0  0  0  0  0  0  0  0  0
    0.7161   -1.2393    0.0000 C   0  0  0  0  0  0  0  0  0  0  0  0
    0.0016   -1.6518    0.0000 C   0  0  0  0  0  0  0  0  0  0  0  0
    0.7161   -0.4143    0.0000 C   0  0  0  0  0  0  0  0  0  0  0  0
    2.8595   -1.6518    0.0000 N   0  0  0  0  0  0  0  0  0  0  0  0
    3.5740   -1.2393    0.0000 C   0  0  0  0  0  0  0  0  0  0  0  0
    4.2885   -1.6518    0.0000 C   0  0  0  0  0  0  0  0  0  0  0  0
    5.0029   -1.2393    0.0000 C   0  0  0  0  0  0  0  0  0  0  0  0
    5.7174   -1.6518    0.0000 Cl  0  0  0  0  0  0  0  0  0  0  0  0
    5.0029   -0.4143    0.0000 C   0  0  0  0  0  0  0  0  0  0  0  0
    4.2885   -0.0018    0.0000 C   0  0  0  0  0  0  0  0  0  0  0  0
    3.5740   -0.4143    0.0000 C   0  0  0  0  0  0  0  0  0  0  0  0
  1  2  2  0  0  0  0
  2  3  1  0  0  0  0
  3  4  1  0  0  0  0
  4  5  1  0  0  0  0
  4  6  1  0  0  0  0
  2  7  1  0  0  0  0
  7  8  1  0  0  0  0
  9  8  1  0  0  0  0
 10  9  2  0  0  0  0
 10 11  1  0  0  0  0
 12 10  1  0  0  0  0
 13 12  2  0  0  0  0
 14 13  1  0  0  0  0
  8 14  2  0  0  0  0
M  END
> <ChemID>
10389

> <CAS>
101-21-3

> <Original_SMILES>
CC(C)OC(=O)Nc1cccc(Cl)c1

> <preferred_name>
Chlorpropham

> <dsstox_substance_id>
DTXSID7020764

> <dsstox_compound_id>
DTXCID10764

> <Canonical_QSARr>
CC(C)OC(=O)NC1C=C(Cl)C=CC=1

> <InChI_Code_QSARr>
InChI=1S/C10H12ClNO2/c1-7(2)14-10(13)12-9-5-3-4-8(11)6-9/h3-7H,1-2H3,(H,12,13)

> <InChI Key_QSARr>
CWJSHJJYOPWUGX-UHFFFAOYSA-N

> <Salt_Solvent>


> <Salt_Solvent_ID>
0

> <Clint>
1.641771470653959

> <Tr_1_Tst_0>
1

$$$$
Row424
  Mrv171c012261910192D          

 22 26  0  0  0  0            999 V2000
    2.1662   -0.5944    0.0000 C   0  0  0  0  0  0  0  0  0  0  0  0
    2.4248    0.1890    0.0000 Cl  0  0  0  0  0  0  0  0  0  0  0  0
    2.2004   -1.2333    0.0000 C   0  0  0  0  0  0  0  0  0  0  0  0
    2.2867   -2.3035    0.0000 C   0  0  0  0  0  0  0  0  0  0  0  0
    2.8140   -2.0472    0.0000 C   0  0  0  0  0  0  0  0  0  0  0  0
    1.7458   -2.2129    0.0000 C   0  0  0  0  0  0  0  0  0  0  0  0
    1.1128   -2.7419    0.0000 Cl  0  0  0  0  0  0  0  0  0  0  0  0
    1.9165   -1.6139    0.0000 C   0  0  0  0  0  0  0  0  0  0  0  0
    0.8878   -1.5630    0.0000 C   0  0  0  0  0  0  0  0  0  0  0  0
    1.2172   -0.7010    0.0000 C   0  0  0  0  0  0  0  0  0  0  0  0
    0.7121   -0.0487    0.0000 Cl  0  0  0  0  0  0  0  0  0  0  0  0
    1.4615   -1.2803    0.0000 C   0  0  0  0  0  0  0  0  0  0  0  0
    0.9991   -1.9636    0.0000 Cl  0  0  0  0  0  0  0  0  0  0  0  0
    0.5619   -2.3209    0.0000 Cl  0  0  0  0  0  0  0  0  0  0  0  0
    0.0628   -1.5561    0.0000 Cl  0  0  0  0  0  0  0  0  0  0  0  0
    1.7560   -0.8046    0.0000 Cl  0  0  0  0  0  0  0  0  0  0  0  0
    2.8089   -1.1927    0.0000 C   0  0  0  0  0  0  0  0  0  0  0  0
    3.6241   -1.3196    0.0000 Cl  0  0  0  0  0  0  0  0  0  0  0  0
    3.5146   -2.4828    0.0000 Cl  0  0  0  0  0  0  0  0  0  0  0  0
    1.5470   -2.6688    0.0000 Cl  0  0  0  0  0  0  0  0  0  0  0  0
    2.3479   -3.1262    0.0000 Cl  0  0  0  0  0  0  0  0  0  0  0  0
    3.0003   -1.4351    0.0000 Cl  0  0  0  0  0  0  0  0  0  0  0  0
  1  2  1  0  0  0  0
  3  1  1  0  0  0  0
  3  4  1  0  0  0  0
  4  5  1  0  0  0  0
  5  6  1  0  0  0  0
  6  7  1  0  0  0  0
  8  6  1  0  0  0  0
  9  8  1  0  0  0  0
 10  9  1  0  0  0  0
 10  1  1  0  0  0  0
 10 11  1  0  0  0  0
 12 10  1  0  0  0  0
 12  3  1  0  0  0  0
  6 12  1  0  0  0  0
 12 13  1  0  0  0  0
  9 14  1  0  0  0  0
  9 15  1  0  0  0  0
  8 16  1  0  0  0  0
  8 17  1  0  0  0  0
  1 17  1  0  0  0  0
 17  5  1  0  0  0  0
 17 18  1  0  0  0  0
  5 19  1  0  0  0  0
  4 20  1  0  0  0  0
  4 21  1  0  0  0  0
  3 22  1  0  0  0  0
M  END
> <ChemID>
10390

> <CAS>
2385-85-5

> <Original_SMILES>
ClC1(Cl)C2(Cl)C3(Cl)C4(Cl)C2(Cl)C2(Cl)C(Cl)(C3(Cl)C12Cl)C4(Cl)Cl

> <preferred_name>
Mirex

> <dsstox_substance_id>
DTXSID7020895

> <dsstox_compound_id>
DTXCID10895

> <Canonical_QSARr>
ClC1(Cl)C2(Cl)C3(Cl)C4(Cl)C2(Cl)C2(Cl)C(Cl)(C3(Cl)C12Cl)C4(Cl)Cl

> <InChI_Code_QSARr>
InChI=1S/C10Cl12/c11-1-2(12)7(17)4(14)3(13,5(1,15)9(7,19)20)6(1,16)10(21,22)8(2,4)18

> <InChI Key_QSARr>
GVYLCNUFSHDAAW-UHFFFAOYSA-N

> <Salt_Solvent>


> <Salt_Solvent_ID>
0

> <Clint>
-7.0

> <Tr_1_Tst_0>
0

$$$$
Row195
  Mrv171c012261910192D          

 18 18  0  0  0  0            999 V2000
    2.3786   -1.4485    0.0000 S   0  0  0  0  0  0  0  0  0  0  0  0
    2.7911   -2.1629    0.0000 P   0  0  0  0  0  0  0  0  0  0  0  0
    2.0766   -2.5754    0.0000 O   0  0  0  0  0  0  0  0  0  0  0  0
    2.0766   -3.4004    0.0000 C   0  0  0  0  0  0  0  0  0  0  0  0
    1.3621   -3.8129    0.0000 C   0  0  0  0  0  0  0  0  0  0  0  0
    3.2036   -2.8774    0.0000 O   0  0  0  0  0  0  0  0  0  0  0  0
    2.7911   -3.5919    0.0000 C   0  0  0  0  0  0  0  0  0  0  0  0
    3.2036   -4.3063    0.0000 C   0  0  0  0  0  0  0  0  0  0  0  0
    3.5055   -1.7504    0.0000 O   0  0  0  0  0  0  0  0  0  0  0  0
    3.5055   -0.9254    0.0000 C   0  0  0  0  0  0  0  0  0  0  0  0
    4.2200   -0.5129    0.0000 C   0  0  0  0  0  0  0  0  0  0  0  0
    4.2200    0.3121    0.0000 C   0  0  0  0  0  0  0  0  0  0  0  0
    3.5055    0.7246    0.0000 C   0  0  0  0  0  0  0  0  0  0  0  0
    3.5055    1.5496    0.0000 N   0  3  0  0  0  0  0  0  0  0  0  0
    2.7911    1.9621    0.0000 O   0  5  0  0  0  0  0  0  0  0  0  0
    4.2200    1.9621    0.0000 O   0  0  0  0  0  0  0  0  0  0  0  0
    2.7911    0.3121    0.0000 C   0  0  0  0  0  0  0  0  0  0  0  0
    2.7911   -0.5129    0.0000 C   0  0  0  0  0  0  0  0  0  0  0  0
  1  2  2  0  0  0  0
  2  3  1  0  0  0  0
  3  4  1  0  0  0  0
  4  5  1  0  0  0  0
  2  6  1  0  0  0  0
  6  7  1  0  0  0  0
  7  8  1  0  0  0  0
  2  9  1  0  0  0  0
  9 10  1  0  0  0  0
 11 10  1  0  0  0  0
 12 11  2  0  0  0  0
 13 12  1  0  0  0  0
 13 14  1  0  0  0  0
 14 15  1  0  0  0  0
 14 16  2  0  0  0  0
 17 13  2  0  0  0  0
 18 17  1  0  0  0  0
 10 18  2  0  0  0  0
M  CHG  2  14   1  15  -1
M  END
> <ChemID>
10391

> <CAS>
56-38-2

> <Original_SMILES>
CCOP(=S)(Oc1ccc(cc1)[N+]([O-])=O)OCC

> <preferred_name>
Parathion

> <dsstox_substance_id>
DTXSID7021100

> <dsstox_compound_id>
DTXCID301100

> <Canonical_QSARr>
CCOP(=S)(OC1C=CC(=CC=1)[N+]([O-])=O)OCC

> <InChI_Code_QSARr>
InChI=1S/C10H14NO5PS/c1-3-14-17(18,15-4-2)16-10-7-5-9(6-8-10)11(12)13/h5-8H,3-4H2,1-2H3

> <InChI Key_QSARr>
LCCNCVORNKJIRZ-UHFFFAOYSA-N

> <Salt_Solvent>


> <Salt_Solvent_ID>
0

> <Clint>
0.8228216453031045

> <Tr_1_Tst_0>
1

$$$$
Row220
  Mrv171c012261910192D          

 12 12  0  0  0  0            999 V2000
    3.0761   -0.6015    0.0000 O   0  0  0  0  0  0  0  0  0  0  0  0
    2.3616   -1.0140    0.0000 C   0  0  0  0  0  0  0  0  0  0  0  0
    1.6472   -0.6015    0.0000 C   0  0  0  0  0  0  0  0  0  0  0  0
    1.6472    0.2235    0.0000 Cl  0  0  0  0  0  0  0  0  0  0  0  0
    0.9327   -1.0140    0.0000 C   0  0  0  0  0  0  0  0  0  0  0  0
    0.2182   -0.6015    0.0000 Cl  0  0  0  0  0  0  0  0  0  0  0  0
    0.9327   -1.8390    0.0000 C   0  0  0  0  0  0  0  0  0  0  0  0
    0.2182   -2.2515    0.0000 Cl  0  0  0  0  0  0  0  0  0  0  0  0
    1.6472   -2.2515    0.0000 C   0  0  0  0  0  0  0  0  0  0  0  0
    1.6472   -3.0765    0.0000 Cl  0  0  0  0  0  0  0  0  0  0  0  0
    2.3616   -1.8390    0.0000 C   0  0  0  0  0  0  0  0  0  0  0  0
    3.0761   -2.2515    0.0000 Cl  0  0  0  0  0  0  0  0  0  0  0  0
  1  2  1  0  0  0  0
  3  2  1  0  0  0  0
  3  4  1  0  0  0  0
  5  3  2  0  0  0  0
  5  6  1  0  0  0  0
  7  5  1  0  0  0  0
  7  8  1  0  0  0  0
  9  7  2  0  0  0  0
  9 10  1  0  0  0  0
 11  9  1  0  0  0  0
  2 11  2  0  0  0  0
 11 12  1  0  0  0  0
M  END
> <ChemID>
10392

> <CAS>
87-86-5

> <Original_SMILES>
Oc1c(Cl)c(Cl)c(Cl)c(Cl)c1Cl

> <preferred_name>
Pentachlorophenol

> <dsstox_substance_id>
DTXSID7021106

> <dsstox_compound_id>
DTXCID701106

> <Canonical_QSARr>
OC1C(Cl)=C(Cl)C(Cl)=C(Cl)C=1Cl

> <InChI_Code_QSARr>
InChI=1S/C6HCl5O/c7-1-2(8)4(10)6(12)5(11)3(1)9/h12H

> <InChI Key_QSARr>
IZUPBVBPLAPZRR-UHFFFAOYSA-N

> <Salt_Solvent>


> <Salt_Solvent_ID>
0

> <Clint>
0.9427023688886675

> <Tr_1_Tst_0>
1

$$$$
Row248
  Mrv171c012261910192D          

 44 49  0  0  0  0            999 V2000
   -2.5305    0.5944    0.0000 C   0  0  0  0  0  0  0  0  0  0  0  0
   -1.7199    0.4407    0.0000 C   0  0  0  0  0  0  0  0  0  0  0  0
   -1.1815    1.0658    0.0000 C   0  0  0  0  0  0  0  0  0  0  0  0
   -0.3710    0.9120    0.0000 C   0  0  0  0  0  0  0  0  0  0  0  0
   -0.0988    0.1332    0.0000 C   0  0  0  0  0  0  0  0  0  0  0  0
   -0.6372   -0.4919    0.0000 C   0  0  0  0  0  0  0  0  0  0  0  0
   -1.4478   -0.3381    0.0000 N   0  0  0  0  0  0  0  0  0  0  0  0
   -1.9862   -0.9632    0.0000 C   0  0  0  0  0  0  0  0  0  0  0  0
   -2.7967   -0.8095    0.0000 C   0  0  0  0  0  0  0  0  0  0  0  0
   -3.0689   -0.0307    0.0000 C   0  0  0  0  0  0  0  0  0  0  0  0
   -3.8297    0.2882    0.0000 C   0  0  0  0  0  0  0  0  0  0  0  0
   -4.5759   -0.0639    0.0000 C   0  0  0  0  0  0  0  0  0  0  0  0
   -5.2538    0.4063    0.0000 C   0  0  0  0  0  0  0  0  0  0  0  0
   -5.1856    1.2284    0.0000 C   0  0  0  0  0  0  0  0  0  0  0  0
   -5.8636    1.6986    0.0000 O   0  0  0  0  0  0  0  0  0  0  0  0
   -6.6097    1.3465    0.0000 C   0  0  0  0  0  0  0  0  0  0  0  0
   -4.4395    1.5805    0.0000 C   0  0  0  0  0  0  0  0  0  0  0  0
   -3.7616    1.1104    0.0000 C   0  0  0  0  0  0  0  0  0  0  0  0
   -2.9586    1.2996    0.0000 N   0  0  0  0  0  0  0  0  0  0  0  0
    0.7117   -0.0205    0.0000 C   0  0  0  0  0  0  0  0  0  0  0  0
    1.2501    0.6046    0.0000 C   0  0  0  0  0  0  0  0  0  0  0  0
    2.0607    0.4509    0.0000 O   0  0  0  0  0  0  0  0  0  0  0  0
    2.3328   -0.3280    0.0000 C   0  0  0  0  0  0  0  0  0  0  0  0
    1.7944   -0.9530    0.0000 O   0  0  0  0  0  0  0  0  0  0  0  0
    3.1434   -0.4817    0.0000 C   0  0  0  0  0  0  0  0  0  0  0  0
    3.4155   -1.2605    0.0000 C   0  0  0  0  0  0  0  0  0  0  0  0
    4.2261   -1.4142    0.0000 C   0  0  0  0  0  0  0  0  0  0  0  0
    4.4982   -2.1931    0.0000 O   0  0  0  0  0  0  0  0  0  0  0  0
    5.3088   -2.3468    0.0000 C   0  0  0  0  0  0  0  0  0  0  0  0
    4.7645   -0.7891    0.0000 C   0  0  0  0  0  0  0  0  0  0  0  0
    5.5750   -0.9429    0.0000 O   0  0  0  0  0  0  0  0  0  0  0  0
    6.1135   -0.3178    0.0000 C   0  0  0  0  0  0  0  0  0  0  0  0
    4.4924   -0.0103    0.0000 C   0  0  0  0  0  0  0  0  0  0  0  0
    5.0308    0.6148    0.0000 O   0  0  0  0  0  0  0  0  0  0  0  0
    4.7586    1.3936    0.0000 C   0  0  0  0  0  0  0  0  0  0  0  0
    3.6818    0.1434    0.0000 C   0  0  0  0  0  0  0  0  0  0  0  0
    0.9780    1.3834    0.0000 C   0  0  0  0  0  0  0  0  0  0  0  0
    1.5164    2.0085    0.0000 O   0  0  0  0  0  0  0  0  0  0  0  0
    1.2443    2.7873    0.0000 C   0  0  0  0  0  0  0  0  0  0  0  0
    0.1675    1.5371    0.0000 C   0  0  0  0  0  0  0  0  0  0  0  0
   -0.1047    2.3160    0.0000 C   0  0  0  0  0  0  0  0  0  0  0  0
   -0.9152    2.4697    0.0000 O   0  0  0  0  0  0  0  0  0  0  0  0
   -1.1874    3.2485    0.0000 C   0  0  0  0  0  0  0  0  0  0  0  0
    0.4337    2.9411    0.0000 O   0  0  0  0  0  0  0  0  0  0  0  0
  2  1  1  0  0  0  0
  2  3  1  0  0  0  0
  3  4  1  0  0  0  0
  5  4  1  0  0  0  0
  5  6  1  0  0  0  0
  6  7  1  0  0  0  0
  7  2  1  0  0  0  0
  8  7  1  0  0  0  0
  9  8  1  0  0  0  0
 10  9  1  0  0  0  0
 10  1  2  0  0  0  0
 11 10  1  0  0  0  0
 11 12  1  0  0  0  0
 12 13  2  0  0  0  0
 13 14  1  0  0  0  0
 14 15  1  0  0  0  0
 15 16  1  0  0  0  0
 14 17  2  0  0  0  0
 17 18  1  0  0  0  0
 18 11  2  0  0  0  0
 19 18  1  0  0  0  0
  1 19  1  0  0  0  0
 20  5  1  0  0  0  0
 21 20  1  0  0  0  0
 21 22  1  0  0  0  0
 22 23  1  0  0  0  0
 23 24  2  0  0  0  0
 23 25  1  0  0  0  0
 26 25  1  0  0  0  0
 27 26  2  0  0  0  0
 27 28  1  0  0  0  0
 28 29  1  0  0  0  0
 30 27  1  0  0  0  0
 30 31  1  0  0  0  0
 31 32  1  0  0  0  0
 33 30  2  0  0  0  0
 33 34  1  0  0  0  0
 34 35  1  0  0  0  0
 36 33  1  0  0  0  0
 25 36  2  0  0  0  0
 37 21  1  0  0  0  0
 37 38  1  0  0  0  0
 38 39  1  0  0  0  0
 40 37  1  0  0  0  0
  4 40  1  0  0  0  0
 40 41  1  0  0  0  0
 41 42  1  0  0  0  0
 42 43  1  0  0  0  0
 41 44  2  0  0  0  0
M  END
> <ChemID>
10393

> <CAS>
50-55-5

> <Original_SMILES>
COC(=O)[C@@H]1[C@@H](OC)[C@@H](C[C@@H]2CN3CCc4c([nH]c5cc(ccc45)OC)[C@H]3C[C@@H]21)OC(=O)c1cc(OC)c(OC)c(c1)OC

> <preferred_name>
Reserpine

> <dsstox_substance_id>
DTXSID7021237

> <dsstox_compound_id>
DTXCID201237

> <Canonical_QSARr>
COC1C=C(C=C(OC)C=1OC)C(=O)OC1CC2CN3CCC4C5C=CC(=CC=5NC=4C3CC2C(C1OC)C(=O)OC)OC

> <InChI_Code_QSARr>
InChI=1S/C33H40N2O9/c1-38-19-7-8-20-21-9-10-35-16-18-13-27(44-32(36)17-11-25(39-2)30(41-4)26(12-17)40-3)31(42-5)28(33(37)43-6)22(18)15-24(35)29(21)34-23(20)14-19/h7-8,11-12,14,18,22,24,27-28,31,34H,9-10,13,15-16H2,1-6H3

> <InChI Key_QSARr>
QEVHRUUCFGRFIF-UHFFFAOYSA-N

> <Salt_Solvent>


> <Salt_Solvent_ID>
0

> <Clint>
1.088206988134535

> <Tr_1_Tst_0>
1

$$$$
Row54
  Mrv171c012261910192D          

 16 16  0  0  0  0            999 V2000
    4.0205   -4.5875    0.0000 C   0  0  0  0  0  0  0  0  0  0  0  0
    4.0205   -3.7625    0.0000 C   0  0  0  0  0  0  0  0  0  0  0  0
    4.0205   -2.9375    0.0000 N   0  0  0  0  0  0  0  0  0  0  0  0
    3.3060   -2.5250    0.0000 C   0  0  0  0  0  0  0  0  0  0  0  0
    3.3060   -1.7000    0.0000 C   0  0  0  0  0  0  0  0  0  0  0  0
    2.5915   -1.2875    0.0000 C   0  0  0  0  0  0  0  0  0  0  0  0
    2.5915   -0.4625    0.0000 C   0  0  0  0  0  0  0  0  0  0  0  0
    1.8771   -0.0500    0.0000 C   0  0  0  0  0  0  0  0  0  0  0  0
    1.8771    0.7750    0.0000 O   0  0  0  0  0  0  0  0  0  0  0  0
    1.1626   -0.4625    0.0000 C   0  0  0  0  0  0  0  0  0  0  0  0
    1.1626   -1.2875    0.0000 C   0  0  0  0  0  0  0  0  0  0  0  0
    0.4481   -1.7000    0.0000 O   0  0  0  0  0  0  0  0  0  0  0  0
    1.8771   -1.7000    0.0000 C   0  0  0  0  0  0  0  0  0  0  0  0
    4.0205   -1.2875    0.0000 O   0  0  0  0  0  0  0  0  0  0  0  0
    4.8455   -3.7625    0.0000 C   0  0  0  0  0  0  0  0  0  0  0  0
    3.1955   -3.7625    0.0000 C   0  0  0  0  0  0  0  0  0  0  0  0
  1  2  1  0  0  0  0
  2  3  1  0  0  0  0
  3  4  1  0  0  0  0
  4  5  1  0  0  0  0
  5  6  1  0  0  0  0
  7  6  1  0  0  0  0
  8  7  2  0  0  0  0
  8  9  1  0  0  0  0
 10  8  1  0  0  0  0
 11 10  2  0  0  0  0
 11 12  1  0  0  0  0
 13 11  1  0  0  0  0
  6 13  2  0  0  0  0
  5 14  1  0  0  0  0
  2 15  1  0  0  0  0
  2 16  1  0  0  0  0
M  END
> <ChemID>
10394

> <CAS>
23031-25-6

> <Original_SMILES>
CC(C)(C)NCC(O)c1cc(O)cc(O)c1

> <preferred_name>
Terbutaline

> <dsstox_substance_id>
DTXSID7021310

> <dsstox_compound_id>
DTXCID001310

> <Canonical_QSARr>
CC(C)(C)NCC(O)C1C=C(O)C=C(O)C=1

> <InChI_Code_QSARr>
InChI=1S/C12H19NO3/c1-12(2,3)13-7-11(16)8-4-9(14)6-10(15)5-8/h4-6,11,13-16H,7H2,1-3H3

> <InChI Key_QSARr>
XWTYSIMOBUGWOL-UHFFFAOYSA-N

> <Salt_Solvent>


> <Salt_Solvent_ID>
0

> <Clint>
-7.0

> <Tr_1_Tst_0>
1

$$$$
Row333
  Mrv171c012261910192D          

 14 15  0  0  0  0            999 V2000
    3.8047   -0.7509    0.0000 O   0  0  0  0  0  0  0  0  0  0  0  0
    3.0902   -0.3384    0.0000 C   0  0  0  0  0  0  0  0  0  0  0  0
    2.3757   -0.7509    0.0000 O   0  0  0  0  0  0  0  0  0  0  0  0
    3.0902    0.4866    0.0000 C   0  0  0  0  0  0  0  0  0  0  0  0
    2.3757    0.8991    0.0000 O   0  0  0  0  0  0  0  0  0  0  0  0
    2.3757    1.7241    0.0000 C   0  0  0  0  0  0  0  0  0  0  0  0
    1.6612    2.1366    0.0000 C   0  0  0  0  0  0  0  0  0  0  0  0
    3.8047    0.8991    0.0000 C   0  0  0  0  0  0  0  0  0  0  0  0
    4.5191    0.4866    0.0000 C   0  0  0  0  0  0  0  0  0  0  0  0
    5.2336    0.8991    0.0000 C   0  0  0  0  0  0  0  0  0  0  0  0
    5.9481    0.4866    0.0000 C   0  0  0  0  0  0  0  0  0  0  0  0
    5.9481   -0.3384    0.0000 C   0  0  0  0  0  0  0  0  0  0  0  0
    5.2336   -0.7509    0.0000 C   0  0  0  0  0  0  0  0  0  0  0  0
    4.5191   -0.3384    0.0000 C   0  0  0  0  0  0  0  0  0  0  0  0
  2  1  1  0  0  0  0
  2  3  2  0  0  0  0
  4  2  1  0  0  0  0
  4  5  1  0  0  0  0
  5  6  1  0  0  0  0
  6  7  1  0  0  0  0
  8  4  2  0  0  0  0
  9  8  1  0  0  0  0
  9 10  2  0  0  0  0
 10 11  1  0  0  0  0
 11 12  2  0  0  0  0
 12 13  1  0  0  0  0
 13 14  2  0  0  0  0
  1 14  1  0  0  0  0
 14  9  1  0  0  0  0
M  END
> <ChemID>
10395

> <CAS>
65216-93-5

> <Original_SMILES>
CCOC1=Cc2ccccc2OC1=O

> <preferred_name>
3-Ethoxychromen-2-one

> <dsstox_substance_id>
DTXSID70215523

> <dsstox_compound_id>
DTXCID00138014

> <Canonical_QSARr>
CCOC1=CC2=CC=CC=C2OC1=O

> <InChI_Code_QSARr>
InChI=1S/C11H10O3/c1-2-13-10-7-8-5-3-4-6-9(8)14-11(10)12/h3-7H,2H2,1H3

> <InChI Key_QSARr>
PPGXDBJURPEKDZ-UHFFFAOYSA-N

> <Salt_Solvent>


> <Salt_Solvent_ID>
0

> <Clint>
1.414973347970818

> <Tr_1_Tst_0>
1

$$$$
Row372
  Mrv171c012261910192D          

 16 16  0  0  0  0            999 V2000
    4.8210   -3.4038    0.0000 C   0  0  0  0  0  0  0  0  0  0  0  0
    4.1066   -2.9913    0.0000 C   0  0  0  0  0  0  0  0  0  0  0  0
    3.3921   -3.4038    0.0000 O   0  0  0  0  0  0  0  0  0  0  0  0
    2.6776   -2.9913    0.0000 C   0  0  0  0  0  0  0  0  0  0  0  0
    1.9631   -3.4038    0.0000 C   0  0  0  0  0  0  0  0  0  0  0  0
    1.2487   -2.9913    0.0000 C   0  0  0  0  0  0  0  0  0  0  0  0
    1.2487   -2.1663    0.0000 C   0  0  0  0  0  0  0  0  0  0  0  0
    0.5342   -1.7538    0.0000 O   0  0  0  0  0  0  0  0  0  0  0  0
    0.5342   -0.9288    0.0000 C   0  0  0  0  0  0  0  0  0  0  0  0
   -0.1803   -0.5163    0.0000 C   0  0  0  0  0  0  0  0  0  0  0  0
    1.9631   -1.7538    0.0000 O   0  0  0  0  0  0  0  0  0  0  0  0
    0.5342   -3.4038    0.0000 C   0  0  0  0  0  0  0  0  0  0  0  0
    0.5342   -4.2288    0.0000 C   0  0  0  0  0  0  0  0  0  0  0  0
    1.2487   -4.6413    0.0000 C   0  0  0  0  0  0  0  0  0  0  0  0
    1.9631   -4.2288    0.0000 C   0  0  0  0  0  0  0  0  0  0  0  0
    2.6776   -2.1663    0.0000 O   0  0  0  0  0  0  0  0  0  0  0  0
  1  2  1  0  0  0  0
  2  3  1  0  0  0  0
  3  4  1  0  0  0  0
  4  5  1  0  0  0  0
  6  5  1  0  0  0  0
  6  7  1  0  0  0  0
  7  8  1  0  0  0  0
  8  9  1  0  0  0  0
  9 10  1  0  0  0  0
  7 11  2  0  0  0  0
 12  6  2  0  0  0  0
 13 12  1  0  0  0  0
 14 13  2  0  0  0  0
 15 14  1  0  0  0  0
  5 15  2  0  0  0  0
  4 16  2  0  0  0  0
M  END
> <ChemID>
10396

> <CAS>
84-66-2

> <Original_SMILES>
CCOC(=O)c1ccccc1C(=O)OCC

> <preferred_name>
Diethyl phthalate

> <dsstox_substance_id>
DTXSID7021780

> <dsstox_compound_id>
DTXCID901780

> <Canonical_QSARr>
CCOC(=O)C1=CC=CC=C1C(=O)OCC

> <InChI_Code_QSARr>
InChI=1S/C12H14O4/c1-3-15-11(13)9-7-5-6-8-10(9)12(14)16-4-2/h5-8H,3-4H2,1-2H3

> <InChI Key_QSARr>
FLKPEMZONWLCSK-UHFFFAOYSA-N

> <Salt_Solvent>


> <Salt_Solvent_ID>
0

> <Clint>
1.6283889300503114

> <Tr_1_Tst_0>
1

$$$$
Row535
  Mrv171c012261910192D          

  8  8  0  0  0  0            999 V2000
    1.6500   -2.3653    0.0000 O   0  0  0  0  0  0  0  0  0  0  0  0
    1.6500   -1.5403    0.0000 C   0  0  0  0  0  0  0  0  0  0  0  0
    2.3645   -1.1278    0.0000 C   0  0  0  0  0  0  0  0  0  0  0  0
    2.3645   -0.3028    0.0000 C   0  0  0  0  0  0  0  0  0  0  0  0
    1.6500    0.1097    0.0000 C   0  0  0  0  0  0  0  0  0  0  0  0
    1.6500    0.9347    0.0000 C   0  0  0  0  0  0  0  0  0  0  0  0
    0.9355   -0.3028    0.0000 C   0  0  0  0  0  0  0  0  0  0  0  0
    0.9355   -1.1278    0.0000 C   0  0  0  0  0  0  0  0  0  0  0  0
  1  2  1  0  0  0  0
  3  2  1  0  0  0  0
  4  3  2  0  0  0  0
  5  4  1  0  0  0  0
  5  6  1  0  0  0  0
  7  5  2  0  0  0  0
  8  7  1  0  0  0  0
  2  8  2  0  0  0  0
M  END
> <ChemID>
10397

> <CAS>
106-44-5

> <Original_SMILES>
Cc1ccc(O)cc1

> <preferred_name>
p-Cresol

> <dsstox_substance_id>
DTXSID7021869

> <dsstox_compound_id>
DTXCID101869

> <Canonical_QSARr>
CC1=CC=C(O)C=C1

> <InChI_Code_QSARr>
InChI=1S/C7H8O/c1-6-2-4-7(8)5-3-6/h2-5,8H,1H3

> <InChI Key_QSARr>
IWDCLRJOBJJRNH-UHFFFAOYSA-N

> <Salt_Solvent>


> <Salt_Solvent_ID>
0

> <Clint>
1.5983527098692838

> <Tr_1_Tst_0>
0

$$$$
Row196
  Mrv171c012261910192D          

 15 15  0  0  0  0            999 V2000
    4.7422   -2.6245    0.0000 C   0  0  0  0  0  0  0  0  0  0  0  0
    4.0277   -3.0370    0.0000 C   0  0  0  0  0  0  0  0  0  0  0  0
    3.3132   -2.6245    0.0000 O   0  0  0  0  0  0  0  0  0  0  0  0
    2.5988   -3.0370    0.0000 C   0  0  0  0  0  0  0  0  0  0  0  0
    1.8843   -2.6245    0.0000 C   0  0  0  0  0  0  0  0  0  0  0  0
    1.8843   -1.7995    0.0000 O   0  0  0  0  0  0  0  0  0  0  0  0
    1.1698   -1.3870    0.0000 C   0  0  0  0  0  0  0  0  0  0  0  0
    1.1698   -0.5620    0.0000 N   0  0  0  0  0  0  0  0  0  0  0  0
    0.4554   -0.1495    0.0000 C   0  0  0  0  0  0  0  0  0  0  0  0
    0.4554   -1.7995    0.0000 O   0  0  0  0  0  0  0  0  0  0  0  0
    1.1698   -3.0370    0.0000 C   0  0  0  0  0  0  0  0  0  0  0  0
    1.1698   -3.8620    0.0000 C   0  0  0  0  0  0  0  0  0  0  0  0
    1.8843   -4.2745    0.0000 C   0  0  0  0  0  0  0  0  0  0  0  0
    2.5988   -3.8620    0.0000 C   0  0  0  0  0  0  0  0  0  0  0  0
    4.0277   -3.8620    0.0000 C   0  0  0  0  0  0  0  0  0  0  0  0
  1  2  1  0  0  0  0
  2  3  1  0  0  0  0
  3  4  1  0  0  0  0
  5  4  1  0  0  0  0
  5  6  1  0  0  0  0
  6  7  1  0  0  0  0
  7  8  1  0  0  0  0
  8  9  1  0  0  0  0
  7 10  2  0  0  0  0
 11  5  2  0  0  0  0
 12 11  1  0  0  0  0
 13 12  2  0  0  0  0
 14 13  1  0  0  0  0
  4 14  2  0  0  0  0
  2 15  1  0  0  0  0
M  END
> <ChemID>
10398

> <CAS>
114-26-1

> <Original_SMILES>
CNC(=O)Oc1ccccc1OC(C)C

> <preferred_name>
Propoxur

> <dsstox_substance_id>
DTXSID7021948

> <dsstox_compound_id>
DTXCID301948

> <Canonical_QSARr>
CNC(=O)OC1=CC=CC=C1OC(C)C

> <InChI_Code_QSARr>
InChI=1S/C11H15NO3/c1-8(2)14-9-6-4-5-7-10(9)15-11(13)12-3/h4-8H,1-3H3,(H,12,13)

> <InChI Key_QSARr>
ISRUGXGCCGIOQO-UHFFFAOYSA-N

> <Salt_Solvent>


> <Salt_Solvent_ID>
0

> <Clint>
0.8388490907372552

> <Tr_1_Tst_0>
1

$$$$
Row213
  Mrv171c012261910192D          

 21 22  0  0  0  0            999 V2000
    2.4555   -2.8039    0.0000 C   0  0  0  0  0  0  0  0  0  0  0  0
    3.2805   -2.8039    0.0000 C   0  0  0  0  0  0  0  0  0  0  0  0
    3.6930   -3.5183    0.0000 O   0  0  0  0  0  0  0  0  0  0  0  0
    4.5180   -3.5183    0.0000 P   0  0  0  0  0  0  0  0  0  0  0  0
    4.5180   -4.3433    0.0000 C   0  0  0  0  0  0  0  0  0  0  0  0
    3.8035   -4.7558    0.0000 C   0  0  0  0  0  0  0  0  0  0  0  0
    3.8035   -5.5808    0.0000 C   0  0  0  0  0  0  0  0  0  0  0  0
    4.5180   -5.9933    0.0000 C   0  0  0  0  0  0  0  0  0  0  0  0
    5.2325   -5.5808    0.0000 C   0  0  0  0  0  0  0  0  0  0  0  0
    5.2325   -4.7558    0.0000 C   0  0  0  0  0  0  0  0  0  0  0  0
    5.3430   -3.5183    0.0000 O   0  0  0  0  0  0  0  0  0  0  0  0
    5.7555   -2.8039    0.0000 C   0  0  0  0  0  0  0  0  0  0  0  0
    6.5805   -2.8039    0.0000 C   0  0  0  0  0  0  0  0  0  0  0  0
    6.9930   -2.0894    0.0000 C   0  0  0  0  0  0  0  0  0  0  0  0
    6.5805   -1.3749    0.0000 C   0  0  0  0  0  0  0  0  0  0  0  0
    6.9930   -0.6604    0.0000 N   0  3  0  0  0  0  0  0  0  0  0  0
    6.5805    0.0540    0.0000 O   0  5  0  0  0  0  0  0  0  0  0  0
    7.8180   -0.6604    0.0000 O   0  0  0  0  0  0  0  0  0  0  0  0
    5.7555   -1.3749    0.0000 C   0  0  0  0  0  0  0  0  0  0  0  0
    5.3430   -2.0894    0.0000 C   0  0  0  0  0  0  0  0  0  0  0  0
    4.5180   -2.6933    0.0000 S   0  0  0  0  0  0  0  0  0  0  0  0
  1  2  1  0  0  0  0
  2  3  1  0  0  0  0
  3  4  1  0  0  0  0
  4  5  1  0  0  0  0
  6  5  1  0  0  0  0
  7  6  2  0  0  0  0
  8  7  1  0  0  0  0
  9  8  2  0  0  0  0
 10  9  1  0  0  0  0
  5 10  2  0  0  0  0
  4 11  1  0  0  0  0
 11 12  1  0  0  0  0
 13 12  1  0  0  0  0
 14 13  2  0  0  0  0
 15 14  1  0  0  0  0
 15 16  1  0  0  0  0
 16 17  1  0  0  0  0
 16 18  2  0  0  0  0
 19 15  2  0  0  0  0
 20 19  1  0  0  0  0
 12 20  2  0  0  0  0
  4 21  2  0  0  0  0
M  CHG  2  16   1  17  -1
M  END
> <ChemID>
10399

> <CAS>
2104-64-5

> <Original_SMILES>
CCOP(=S)(Oc1ccc(cc1)[N+]([O-])=O)c1ccccc1

> <preferred_name>
EPN

> <dsstox_substance_id>
DTXSID7022174

> <dsstox_compound_id>
DTXCID102174

> <Canonical_QSARr>
CCOP(=S)(OC1C=CC(=CC=1)[N+]([O-])=O)C1C=CC=CC=1

> <InChI_Code_QSARr>
InChI=1S/C14H14NO4PS/c1-2-18-20(21,14-6-4-3-5-7-14)19-13-10-8-12(9-11-13)15(16)17/h3-11H,2H2,1H3

> <InChI Key_QSARr>
AIGRXSNSLVJMEA-UHFFFAOYSA-N

> <Salt_Solvent>


> <Salt_Solvent_ID>
0

> <Clint>
0.9116901587538611

> <Tr_1_Tst_0>
1

$$$$
Row398
  Mrv171c012261910192D          

 25 27  0  0  0  0            999 V2000
    6.8623   -1.5828    0.0000 C   0  0  0  0  0  0  0  0  0  0  0  0
    6.1478   -1.9953    0.0000 C   0  0  0  0  0  0  0  0  0  0  0  0
    5.4334   -1.5828    0.0000 O   0  0  0  0  0  0  0  0  0  0  0  0
    4.7189   -1.9953    0.0000 C   0  0  0  0  0  0  0  0  0  0  0  0
    4.0044   -1.5828    0.0000 C   0  0  0  0  0  0  0  0  0  0  0  0
    3.9182   -0.7624    0.0000 C   0  0  0  0  0  0  0  0  0  0  0  0
    3.1112   -0.5908    0.0000 C   0  0  0  0  0  0  0  0  0  0  0  0
    2.7757    0.1628    0.0000 C   0  0  0  0  0  0  0  0  0  0  0  0
    1.9552    0.2491    0.0000 C   0  0  0  0  0  0  0  0  0  0  0  0
    1.6196    1.0028    0.0000 C   0  0  0  0  0  0  0  0  0  0  0  0
    0.7991    1.0890    0.0000 C   0  0  0  0  0  0  0  0  0  0  0  0
    0.3142    0.4216    0.0000 C   0  0  0  0  0  0  0  0  0  0  0  0
    0.6498   -0.3321    0.0000 C   0  0  0  0  0  0  0  0  0  0  0  0
    1.4703   -0.4184    0.0000 C   0  0  0  0  0  0  0  0  0  0  0  0
    2.6987   -1.3053    0.0000 O   0  0  0  0  0  0  0  0  0  0  0  0
    3.2508   -1.9184    0.0000 C   0  0  0  0  0  0  0  0  0  0  0  0
    6.1478   -2.8203    0.0000 O   0  0  0  0  0  0  0  0  0  0  0  0
    7.6873   -1.5828    0.0000 C   0  0  0  0  0  0  0  0  0  0  0  0
    8.4018   -1.9953    0.0000 C   0  0  0  0  0  0  0  0  0  0  0  0
    8.4018   -2.8203    0.0000 C   0  0  0  0  0  0  0  0  0  0  0  0
    9.1163   -3.2328    0.0000 C   0  0  0  0  0  0  0  0  0  0  0  0
    7.6873   -3.2328    0.0000 C   0  0  0  0  0  0  0  0  0  0  0  0
    7.2748   -0.8684    0.0000 C   0  0  0  0  0  0  0  0  0  0  0  0
    7.7480   -0.1926    0.0000 C   0  0  0  0  0  0  0  0  0  0  0  0
    6.8016   -0.1926    0.0000 C   0  0  0  0  0  0  0  0  0  0  0  0
  1  2  1  0  0  0  0
  2  3  1  0  0  0  0
  3  4  1  0  0  0  0
  4  5  1  0  0  0  0
  6  5  1  0  0  0  0
  7  6  2  0  0  0  0
  7  8  1  0  0  0  0
  8  9  1  0  0  0  0
 10  9  1  0  0  0  0
 11 10  2  0  0  0  0
 12 11  1  0  0  0  0
 13 12  2  0  0  0  0
 14 13  1  0  0  0  0
  9 14  2  0  0  0  0
 15  7  1  0  0  0  0
 16 15  1  0  0  0  0
  5 16  2  0  0  0  0
  2 17  2  0  0  0  0
 18  1  1  0  0  0  0
 18 19  1  0  0  0  0
 19 20  2  0  0  0  0
 20 21  1  0  0  0  0
 20 22  1  0  0  0  0
 23 18  1  0  0  0  0
  1 23  1  0  0  0  0
 23 24  1  0  0  0  0
 23 25  1  0  0  0  0
M  END
> <ChemID>
10400

> <CAS>
10453-86-8

> <Original_SMILES>
CC(C)=CC1C(C(=O)OCc2coc(Cc3ccccc3)c2)C1(C)C

> <preferred_name>
Resmethrin

> <dsstox_substance_id>
DTXSID7022253

> <dsstox_compound_id>
DTXCID302253

> <Canonical_QSARr>
CC(C)=CC1C(C(=O)OCC2C=C(CC3C=CC=CC=3)OC=2)C1(C)C

> <InChI_Code_QSARr>
InChI=1S/C22H26O3/c1-15(2)10-19-20(22(19,3)4)21(23)25-14-17-12-18(24-13-17)11-16-8-6-5-7-9-16/h5-10,12-13,19-20H,11,14H2,1-4H3

> <InChI Key_QSARr>
VEMKTZHHVJILDY-UHFFFAOYSA-N

> <Salt_Solvent>


> <Salt_Solvent_ID>
0

> <Clint>
1.995459686621064

> <Tr_1_Tst_0>
1

$$$$
Row300
  Mrv171c012261910192D          

 11 11  0  0  0  0            999 V2000
    1.6875   -1.8697    0.0000 C   0  0  0  0  0  0  0  0  0  0  0  0
    1.6875   -2.6947    0.0000 C   0  0  0  0  0  0  0  0  0  0  0  0
    2.4020   -3.1072    0.0000 C   0  0  0  0  0  0  0  0  0  0  0  0
    0.9730   -3.1072    0.0000 C   0  0  0  0  0  0  0  0  0  0  0  0
    0.9730   -3.9322    0.0000 C   0  0  0  0  0  0  0  0  0  0  0  0
    2.4020   -1.4572    0.0000 C   0  0  0  0  0  0  0  0  0  0  0  0
    2.4020   -0.6322    0.0000 C   0  0  0  0  0  0  0  0  0  0  0  0
    1.6875   -0.2197    0.0000 C   0  0  0  0  0  0  0  0  0  0  0  0
    1.6875    0.6053    0.0000 O   0  0  0  0  0  0  0  0  0  0  0  0
    0.9730   -0.6322    0.0000 C   0  0  0  0  0  0  0  0  0  0  0  0
    0.9730   -1.4572    0.0000 C   0  0  0  0  0  0  0  0  0  0  0  0
  1  2  1  0  0  0  0
  2  3  1  0  0  0  0
  2  4  1  0  0  0  0
  4  5  1  0  0  0  0
  6  1  1  0  0  0  0
  7  6  2  0  0  0  0
  8  7  1  0  0  0  0
  8  9  1  0  0  0  0
 10  8  2  0  0  0  0
 11 10  1  0  0  0  0
  1 11  2  0  0  0  0
M  END
> <ChemID>
10401

> <CAS>
99-71-8

> <Original_SMILES>
CCC(C)c1ccc(O)cc1

> <preferred_name>
4-(Butan-2-yl)phenol

> <dsstox_substance_id>
DTXSID7022332

> <dsstox_compound_id>
DTXCID502332

> <Canonical_QSARr>
CC(CC)C1C=CC(O)=CC=1

> <InChI_Code_QSARr>
InChI=1S/C10H14O/c1-3-8(2)9-4-6-10(11)7-5-9/h4-8,11H,3H2,1-2H3

> <InChI Key_QSARr>
ZUTYZAFDFLLILI-UHFFFAOYSA-N

> <Salt_Solvent>


> <Salt_Solvent_ID>
0

> <Clint>
1.2793474924107322

> <Tr_1_Tst_0>
1

$$$$
Row390
  Mrv171c012261910192D          

 12 12  0  0  0  0            999 V2000
    0.0000    3.3000    0.0000 C   0  0  0  0  0  0  0  0  0  0  0  0
    0.0000    2.4750    0.0000 C   0  0  0  0  0  0  0  0  0  0  0  0
    0.7145    2.0625    0.0000 C   0  0  0  0  0  0  0  0  0  0  0  0
    0.7145    1.2375    0.0000 C   0  0  0  0  0  0  0  0  0  0  0  0
    1.4289    0.8250    0.0000 C   0  0  0  0  0  0  0  0  0  0  0  0
    1.4289   -0.0000    0.0000 C   0  0  0  0  0  0  0  0  0  0  0  0
    2.1434   -0.4125    0.0000 O   0  0  0  0  0  0  0  0  0  0  0  0
    2.8579   -0.0000    0.0000 C   0  0  0  0  0  0  0  0  0  0  0  0
    0.7145   -0.4125    0.0000 C   0  0  0  0  0  0  0  0  0  0  0  0
    0.7145   -1.2375    0.0000 O   0  0  0  0  0  0  0  0  0  0  0  0
    0.0000    0.0000    0.0000 C   0  0  0  0  0  0  0  0  0  0  0  0
    0.0000    0.8250    0.0000 C   0  0  0  0  0  0  0  0  0  0  0  0
  2  1  1  4  0  0  0
  2  3  2  0  0  0  0
  3  4  1  0  0  0  0
  4  5  1  0  0  0  0
  5  6  2  0  0  0  0
  6  7  1  0  0  0  0
  7  8  1  0  0  0  0
  6  9  1  0  0  0  0
  9 10  1  0  0  0  0
  9 11  2  0  0  0  0
 11 12  1  0  0  0  0
  4 12  2  0  0  0  0
M  END
> <ChemID>
10402

> <CAS>
97-54-1

> <Original_SMILES>
CC=Cc1cc(OC)c(O)cc1

> <preferred_name>
Isoeugenol

> <dsstox_substance_id>
DTXSID7022413

> <dsstox_compound_id>
DTXCID502413

> <Canonical_QSARr>
CC=CC1C=C(OC)C(O)=CC=1

> <InChI_Code_QSARr>
InChI=1S/C10H12O2/c1-3-4-8-5-6-9(11)10(7-8)12-2/h3-7,11H,1-2H3

> <InChI Key_QSARr>
BJIOGJUNALELMI-UHFFFAOYSA-N

> <Salt_Solvent>


> <Salt_Solvent_ID>
0

> <Clint>
1.8560034539972208

> <Tr_1_Tst_0>
1

$$$$
Row85
  Mrv171c012261910192D          

 21 23  0  0  0  0            999 V2000
    0.2940   -1.3473    0.0000 C   0  0  0  0  0  0  0  0  0  0  0  0
    0.8988   -0.7862    0.0000 C   0  0  0  0  0  0  0  0  0  0  0  0
    1.6871   -1.0293    0.0000 C   0  0  0  0  0  0  0  0  0  0  0  0
    2.2015   -0.3843    0.0000 C   0  0  0  0  0  0  0  0  0  0  0  0
    3.0265   -0.3843    0.0000 C   0  0  0  0  0  0  0  0  0  0  0  0
    3.5409   -1.0293    0.0000 C   0  0  0  0  0  0  0  0  0  0  0  0
    4.3292   -0.7862    0.0000 C   0  0  0  0  0  0  0  0  0  0  0  0
    4.9340   -1.3473    0.0000 C   0  0  0  0  0  0  0  0  0  0  0  0
    4.7504   -2.1516    0.0000 C   0  0  0  0  0  0  0  0  0  0  0  0
    3.9621   -2.3948    0.0000 C   0  0  0  0  0  0  0  0  0  0  0  0
    3.3573   -1.8337    0.0000 C   0  0  0  0  0  0  0  0  0  0  0  0
    2.6140   -2.1916    0.0000 C   0  0  0  0  0  0  0  0  0  0  0  0
    2.6140   -3.0166    0.0000 C   0  0  0  0  0  0  0  0  0  0  0  0
    3.3285   -3.4291    0.0000 C   0  0  0  0  0  0  0  0  0  0  0  0
    4.0429   -3.0166    0.0000 C   0  0  0  0  0  0  0  0  0  0  0  0
    4.7574   -3.4291    0.0000 N   0  0  0  0  0  0  0  0  0  0  0  0
    5.4719   -3.0166    0.0000 C   0  0  0  0  0  0  0  0  0  0  0  0
    4.7574   -4.2541    0.0000 C   0  0  0  0  0  0  0  0  0  0  0  0
    1.8707   -1.8337    0.0000 C   0  0  0  0  0  0  0  0  0  0  0  0
    1.2659   -2.3948    0.0000 C   0  0  0  0  0  0  0  0  0  0  0  0
    0.4776   -2.1516    0.0000 C   0  0  0  0  0  0  0  0  0  0  0  0
  2  1  1  0  0  0  0
  3  2  2  0  0  0  0
  3  4  1  0  0  0  0
  4  5  1  0  0  0  0
  5  6  1  0  0  0  0
  7  6  1  0  0  0  0
  8  7  2  0  0  0  0
  9  8  1  0  0  0  0
 10  9  2  0  0  0  0
 11 10  1  0  0  0  0
  6 11  2  0  0  0  0
 11 12  1  0  0  0  0
 12 13  2  0  0  0  0
 13 14  1  0  0  0  0
 14 15  1  0  0  0  0
 15 16  1  0  0  0  0
 16 17  1  0  0  0  0
 16 18  1  0  0  0  0
 12 19  1  0  0  0  0
 19  3  1  0  0  0  0
 20 19  2  0  0  0  0
 21 20  1  0  0  0  0
  1 21  2  0  0  0  0
M  END
> <ChemID>
10403

> <CAS>
50-48-6

> <Original_SMILES>
CN(C)CCC=C1c2ccccc2CCc2ccccc21

> <preferred_name>
Amitriptyline

> <dsstox_substance_id>
DTXSID7022594

> <dsstox_compound_id>
DTXCID502594

> <Canonical_QSARr>
CN(C)CC/C=C1/C2=CC=CC=C2CCC2C=CC=CC=2/1

> <InChI_Code_QSARr>
InChI=1S/C20H23N/c1-21(2)15-7-12-20-18-10-5-3-8-16(18)13-14-17-9-4-6-11-19(17)20/h3-6,8-12H,7,13-15H2,1-2H3

> <InChI Key_QSARr>
KRMDCWKBEZIMAB-UHFFFAOYSA-N

> <Salt_Solvent>


> <Salt_Solvent_ID>
0

> <Clint>
-0.1408617027054692

> <Tr_1_Tst_0>
1

$$$$
Row119
  Mrv171c012261910192D          

 15 15  0  0  0  0            999 V2000
    4.4647   -0.1541    0.0000 O   0  0  0  0  0  0  0  0  0  0  0  0
    3.7503   -0.5666    0.0000 C   0  0  0  0  0  0  0  0  0  0  0  0
    3.0358   -0.1541    0.0000 C   0  0  0  0  0  0  0  0  0  0  0  0
    3.5661    0.4779    0.0000 C   0  0  0  0  0  0  0  0  0  0  0  0
    4.3786    0.3346    0.0000 C   0  0  0  0  0  0  0  0  0  0  0  0
    2.5055    0.4779    0.0000 C   0  0  0  0  0  0  0  0  0  0  0  0
    2.7877    1.2531    0.0000 C   0  0  0  0  0  0  0  0  0  0  0  0
    2.2574    1.8851    0.0000 C   0  0  0  0  0  0  0  0  0  0  0  0
    2.5395    2.6604    0.0000 C   0  0  0  0  0  0  0  0  0  0  0  0
    2.3213   -0.5666    0.0000 C   0  0  0  0  0  0  0  0  0  0  0  0
    1.6069   -0.1541    0.0000 O   0  0  0  0  0  0  0  0  0  0  0  0
    2.3213   -1.3916    0.0000 N   0  0  0  0  0  0  0  0  0  0  0  0
    3.0358   -1.8041    0.0000 C   0  0  0  0  0  0  0  0  0  0  0  0
    3.0358   -2.6291    0.0000 O   0  0  0  0  0  0  0  0  0  0  0  0
    3.7503   -1.3916    0.0000 N   0  0  0  0  0  0  0  0  0  0  0  0
  1  2  2  0  0  0  0
  3  2  1  0  0  0  0
  3  4  1  0  0  0  0
  4  5  1  0  0  0  0
  3  6  1  0  0  0  0
  6  7  1  0  0  0  0
  7  8  1  0  0  0  0
  8  9  1  0  0  0  0
 10  3  1  0  0  0  0
 10 11  2  0  0  0  0
 12 10  1  0  0  0  0
 13 12  1  0  0  0  0
 13 14  2  0  0  0  0
 15 13  1  0  0  0  0
  2 15  1  0  0  0  0
M  END
> <ChemID>
10404

> <CAS>
77-28-1

> <Original_SMILES>
CCCCC1(CC)C(=O)NC(=O)NC1=O

> <preferred_name>
Butethal

> <dsstox_substance_id>
DTXSID70227808

> <dsstox_compound_id>
DTXCID80150299

> <Canonical_QSARr>
CCCCC1(CC)C(=O)NC(=O)NC1=O

> <InChI_Code_QSARr>
InChI=1S/C10H16N2O3/c1-3-5-6-10(4-2)7(13)11-9(15)12-8(10)14/h3-6H2,1-2H3,(H2,11,12,13,14,15)

> <InChI Key_QSARr>
STDBAQMTJLUMFW-UHFFFAOYSA-N

> <Salt_Solvent>


> <Salt_Solvent_ID>
0

> <Clint>
0.2787536009528289

> <Tr_1_Tst_0>
1

$$$$
Row254
  Mrv171c012261910192D          

 21 23  0  0  0  0            999 V2000
    2.3747    3.6320    0.0000 C   0  0  0  0  0  0  0  0  0  0  0  0
    2.3747    2.8070    0.0000 N   0  0  0  0  0  0  0  0  0  0  0  0
    1.6603    2.3945    0.0000 C   0  0  0  0  0  0  0  0  0  0  0  0
    3.0892    2.3945    0.0000 C   0  0  0  0  0  0  0  0  0  0  0  0
    3.0892    1.5695    0.0000 C   0  0  0  0  0  0  0  0  0  0  0  0
    3.8037    1.1570    0.0000 C   0  0  0  0  0  0  0  0  0  0  0  0
    3.8037    0.3320    0.0000 C   0  0  0  0  0  0  0  0  0  0  0  0
    4.5470   -0.0260    0.0000 C   0  0  0  0  0  0  0  0  0  0  0  0
    5.1517    0.5352    0.0000 C   0  0  0  0  0  0  0  0  0  0  0  0
    5.9401    0.2920    0.0000 C   0  0  0  0  0  0  0  0  0  0  0  0
    6.1237   -0.5123    0.0000 C   0  0  0  0  0  0  0  0  0  0  0  0
    5.5189   -1.0735    0.0000 C   0  0  0  0  0  0  0  0  0  0  0  0
    4.7305   -0.8303    0.0000 C   0  0  0  0  0  0  0  0  0  0  0  0
    4.2162   -1.4753    0.0000 C   0  0  0  0  0  0  0  0  0  0  0  0
    3.3912   -1.4753    0.0000 O   0  0  0  0  0  0  0  0  0  0  0  0
    2.8768   -0.8303    0.0000 C   0  0  0  0  0  0  0  0  0  0  0  0
    2.0884   -1.0735    0.0000 C   0  0  0  0  0  0  0  0  0  0  0  0
    1.4837   -0.5123    0.0000 C   0  0  0  0  0  0  0  0  0  0  0  0
    1.6673    0.2920    0.0000 C   0  0  0  0  0  0  0  0  0  0  0  0
    2.4556    0.5352    0.0000 C   0  0  0  0  0  0  0  0  0  0  0  0
    3.0604   -0.0260    0.0000 C   0  0  0  0  0  0  0  0  0  0  0  0
  1  2  1  0  0  0  0
  2  3  1  0  0  0  0
  2  4  1  0  0  0  0
  4  5  1  0  0  0  0
  6  5  1  4  0  0  0
  6  7  2  0  0  0  0
  7  8  1  0  0  0  0
  8  9  1  0  0  0  0
  9 10  2  0  0  0  0
 10 11  1  0  0  0  0
 11 12  2  0  0  0  0
 12 13  1  0  0  0  0
  8 13  2  0  0  0  0
 13 14  1  0  0  0  0
 14 15  1  0  0  0  0
 15 16  1  0  0  0  0
 16 17  1  0  0  0  0
 17 18  2  0  0  0  0
 18 19  1  0  0  0  0
 19 20  2  0  0  0  0
 20 21  1  0  0  0  0
 16 21  2  0  0  0  0
  7 21  1  0  0  0  0
M  END
> <ChemID>
10405

> <CAS>
1668-19-5

> <Original_SMILES>
CN(C)CC/C=C1\c2ccccc2COc2ccccc2\1

> <preferred_name>
Doxepin

> <dsstox_substance_id>
DTXSID7022966

> <dsstox_compound_id>
DTXCID202966

> <Canonical_QSARr>
CN(C)CCC=C1C2C=CC=CC=2COC2C=CC=CC=21

> <InChI_Code_QSARr>
InChI=1S/C19H21NO/c1-20(2)13-7-11-17-16-9-4-3-8-15(16)14-21-19-12-6-5-10-18(17)19/h3-6,8-12H,7,13-14H2,1-2H3

> <InChI Key_QSARr>
ODQWQRRAPPTVAG-UHFFFAOYSA-N

> <Salt_Solvent>


> <Salt_Solvent_ID>
0

> <Clint>
1.1139433523068367

> <Tr_1_Tst_0>
1

$$$$
Row375
  Mrv171c012261910192D          

 23 25  0  0  0  0            999 V2000
    4.0070   -2.7745    0.0000 N   0  0  0  0  0  0  0  0  0  0  0  0
    4.3649   -2.0312    0.0000 C   0  0  0  0  0  0  0  0  0  0  0  0
    4.0070   -1.2879    0.0000 C   0  0  0  0  0  0  0  0  0  0  0  0
    4.5214   -0.6428    0.0000 O   0  0  0  0  0  0  0  0  0  0  0  0
    3.2027   -1.1043    0.0000 N   0  0  0  0  0  0  0  0  0  0  0  0
    3.0191   -0.3000    0.0000 C   0  0  0  0  0  0  0  0  0  0  0  0
    2.5577   -1.6187    0.0000 C   0  0  0  0  0  0  0  0  0  0  0  0
    1.8432   -1.2062    0.0000 C   0  0  0  0  0  0  0  0  0  0  0  0
    1.1287   -1.6187    0.0000 C   0  0  0  0  0  0  0  0  0  0  0  0
    1.1287   -2.4437    0.0000 C   0  0  0  0  0  0  0  0  0  0  0  0
    1.8432   -2.8562    0.0000 C   0  0  0  0  0  0  0  0  0  0  0  0
    2.5577   -2.4437    0.0000 C   0  0  0  0  0  0  0  0  0  0  0  0
    3.2027   -2.9580    0.0000 C   0  0  0  0  0  0  0  0  0  0  0  0
    3.0191   -3.7624    0.0000 C   0  0  0  0  0  0  0  0  0  0  0  0
    2.2307   -4.0055    0.0000 C   0  0  0  0  0  0  0  0  0  0  0  0
    1.6260   -3.4444    0.0000 F   0  0  0  0  0  0  0  0  0  0  0  0
    2.0472   -4.8098    0.0000 C   0  0  0  0  0  0  0  0  0  0  0  0
    2.6519   -5.3710    0.0000 C   0  0  0  0  0  0  0  0  0  0  0  0
    3.4403   -5.1278    0.0000 C   0  0  0  0  0  0  0  0  0  0  0  0
    3.6239   -4.3235    0.0000 C   0  0  0  0  0  0  0  0  0  0  0  0
    0.4142   -2.8562    0.0000 N   0  3  0  0  0  0  0  0  0  0  0  0
    0.4142   -3.6812    0.0000 O   0  0  0  0  0  0  0  0  0  0  0  0
   -0.3002   -2.4437    0.0000 O   0  5  0  0  0  0  0  0  0  0  0  0
  2  1  1  0  0  0  0
  3  2  1  0  0  0  0
  3  4  2  0  0  0  0
  5  3  1  0  0  0  0
  5  6  1  0  0  0  0
  7  5  1  0  0  0  0
  7  8  1  0  0  0  0
  8  9  2  0  0  0  0
  9 10  1  0  0  0  0
 10 11  2  0  0  0  0
 11 12  1  0  0  0  0
 12  7  2  0  0  0  0
 13 12  1  0  0  0  0
  1 13  2  0  0  0  0
 13 14  1  0  0  0  0
 15 14  1  0  0  0  0
 15 16  1  0  0  0  0
 17 15  2  0  0  0  0
 18 17  1  0  0  0  0
 19 18  2  0  0  0  0
 20 19  1  0  0  0  0
 14 20  2  0  0  0  0
 10 21  1  0  0  0  0
 21 22  2  0  0  0  0
 21 23  1  0  0  0  0
M  CHG  2  21   1  23  -1
M  END
> <ChemID>
10406

> <CAS>
1622-62-4

> <Original_SMILES>
CN1c2ccc(cc2C(=NCC1=O)c1ccccc1F)[N+]([O-])=O

> <preferred_name>
Flunitrazepam

> <dsstox_substance_id>
DTXSID7023065

> <dsstox_compound_id>
DTXCID103065

> <Canonical_QSARr>
CN1C2C=CC(=CC=2C(=NCC1=O)C1=CC=CC=C1F)[N+]([O-])=O

> <InChI_Code_QSARr>
InChI=1S/C16H12FN3O3/c1-19-14-7-6-10(20(22)23)8-12(14)16(18-9-15(19)21)11-4-2-3-5-13(11)17/h2-8H,9H2,1H3

> <InChI Key_QSARr>
PPTYJKAXVCCBDU-UHFFFAOYSA-N

> <Salt_Solvent>


> <Salt_Solvent_ID>
0

> <Clint>
1.6627578316815739

> <Tr_1_Tst_0>
1

$$$$
Row95
  Mrv171c012261910192D          

 22 23  0  0  0  0            999 V2000
    2.5702    0.3919    0.0000 C   0  0  0  0  0  0  0  0  0  0  0  0
    1.8557   -0.0206    0.0000 C   0  0  0  0  0  0  0  0  0  0  0  0
    1.8557   -0.8456    0.0000 C   0  0  0  0  0  0  0  0  0  0  0  0
    2.5702   -1.2581    0.0000 C   0  0  0  0  0  0  0  0  0  0  0  0
    2.5702   -2.0831    0.0000 O   0  0  0  0  0  0  0  0  0  0  0  0
    3.2847   -2.4956    0.0000 C   0  0  0  0  0  0  0  0  0  0  0  0
    3.2847   -3.3206    0.0000 C   0  0  0  0  0  0  0  0  0  0  0  0
    2.5702   -3.7331    0.0000 C   0  0  0  0  0  0  0  0  0  0  0  0
    2.5702   -4.5581    0.0000 C   0  0  0  0  0  0  0  0  0  0  0  0
    3.2847   -4.9706    0.0000 C   0  0  0  0  0  0  0  0  0  0  0  0
    3.9991   -4.5581    0.0000 C   0  0  0  0  0  0  0  0  0  0  0  0
    3.9991   -3.7331    0.0000 C   0  0  0  0  0  0  0  0  0  0  0  0
    3.9991   -2.0831    0.0000 C   0  0  0  0  0  0  0  0  0  0  0  0
    4.7136   -2.4956    0.0000 C   0  0  0  0  0  0  0  0  0  0  0  0
    5.4281   -2.0831    0.0000 N   0  0  0  0  0  0  0  0  0  0  0  0
    6.1426   -2.4956    0.0000 C   0  0  0  0  0  0  0  0  0  0  0  0
    3.2847   -0.8456    0.0000 C   0  0  0  0  0  0  0  0  0  0  0  0
    3.2847   -0.0206    0.0000 C   0  0  0  0  0  0  0  0  0  0  0  0
    2.5702    1.2169    0.0000 C   0  0  0  0  0  0  0  0  0  0  0  0
    2.5702    2.0419    0.0000 F   0  0  0  0  0  0  0  0  0  0  0  0
    3.3952    1.2169    0.0000 F   0  0  0  0  0  0  0  0  0  0  0  0
    1.7452    1.2169    0.0000 F   0  0  0  0  0  0  0  0  0  0  0  0
  2  1  1  0  0  0  0
  3  2  2  0  0  0  0
  4  3  1  0  0  0  0
  4  5  1  0  0  0  0
  5  6  1  0  0  0  0
  6  7  1  0  0  0  0
  8  7  1  0  0  0  0
  9  8  2  0  0  0  0
 10  9  1  0  0  0  0
 11 10  2  0  0  0  0
 12 11  1  0  0  0  0
  7 12  2  0  0  0  0
  6 13  1  0  0  0  0
 13 14  1  0  0  0  0
 14 15  1  0  0  0  0
 15 16  1  0  0  0  0
 17  4  2  0  0  0  0
 18 17  1  0  0  0  0
  1 18  2  0  0  0  0
  1 19  1  0  0  0  0
 19 20  1  0  0  0  0
 19 21  1  0  0  0  0
 19 22  1  0  0  0  0
M  END
> <ChemID>
10407

> <CAS>
54910-89-3

> <Original_SMILES>
CNCCC(Oc1ccc(cc1)C(F)(F)F)c1ccccc1

> <preferred_name>
Fluoxetine

> <dsstox_substance_id>
DTXSID7023067

> <dsstox_compound_id>
DTXCID903067

> <Canonical_QSARr>
CNCCC(OC1C=CC(=CC=1)C(F)(F)F)C1C=CC=CC=1

> <InChI_Code_QSARr>
InChI=1S/C17H18F3NO/c1-21-12-11-16(13-5-3-2-4-6-13)22-15-9-7-14(8-10-15)17(18,19)20/h2-10,16,21H,11-12H2,1H3

> <InChI Key_QSARr>
RTHCYVBBDHJXIQ-UHFFFAOYSA-N

> <Salt_Solvent>


> <Salt_Solvent_ID>
0

> <Clint>
0.0

> <Tr_1_Tst_0>
1

$$$$
Row76
  Mrv171c012261910192D          

 21 23  0  0  0  0            999 V2000
    0.5780   -1.2976    0.0000 C   0  0  0  0  0  0  0  0  0  0  0  0
    1.2924   -0.8851    0.0000 C   0  0  0  0  0  0  0  0  0  0  0  0
    2.0069   -1.2976    0.0000 C   0  0  0  0  0  0  0  0  0  0  0  0
    2.6519   -0.7832    0.0000 N   0  0  0  0  0  0  0  0  0  0  0  0
    3.4562   -0.9668    0.0000 C   0  0  0  0  0  0  0  0  0  0  0  0
    3.8142   -1.7101    0.0000 C   0  0  0  0  0  0  0  0  0  0  0  0
    3.4562   -2.4534    0.0000 N   0  0  0  0  0  0  0  0  0  0  0  0
    2.6519   -2.6369    0.0000 C   0  0  0  0  0  0  0  0  0  0  0  0
    2.4683   -3.4413    0.0000 C   0  0  0  0  0  0  0  0  0  0  0  0
    1.6800   -3.6844    0.0000 C   0  0  0  0  0  0  0  0  0  0  0  0
    1.0752   -3.1233    0.0000 Cl  0  0  0  0  0  0  0  0  0  0  0  0
    1.4964   -4.4887    0.0000 C   0  0  0  0  0  0  0  0  0  0  0  0
    2.1012   -5.0499    0.0000 C   0  0  0  0  0  0  0  0  0  0  0  0
    2.8895   -4.8067    0.0000 C   0  0  0  0  0  0  0  0  0  0  0  0
    3.0731   -4.0024    0.0000 C   0  0  0  0  0  0  0  0  0  0  0  0
    2.0069   -2.1226    0.0000 C   0  0  0  0  0  0  0  0  0  0  0  0
    1.2924   -2.5351    0.0000 C   0  0  0  0  0  0  0  0  0  0  0  0
    0.5780   -2.1226    0.0000 C   0  0  0  0  0  0  0  0  0  0  0  0
   -0.1365   -2.5351    0.0000 Cl  0  0  0  0  0  0  0  0  0  0  0  0
    4.6392   -1.7101    0.0000 O   0  0  0  0  0  0  0  0  0  0  0  0
    3.9706   -0.3217    0.0000 O   0  0  0  0  0  0  0  0  0  0  0  0
  2  1  1  0  0  0  0
  3  2  2  0  0  0  0
  3  4  1  0  0  0  0
  4  5  1  0  0  0  0
  5  6  1  0  0  0  0
  6  7  1  0  0  0  0
  7  8  2  0  0  0  0
  8  9  1  0  0  0  0
 10  9  1  0  0  0  0
 10 11  1  0  0  0  0
 12 10  2  0  0  0  0
 13 12  1  0  0  0  0
 14 13  2  0  0  0  0
 15 14  1  0  0  0  0
  9 15  2  0  0  0  0
  8 16  1  0  0  0  0
 16  3  1  0  0  0  0
 17 16  2  0  0  0  0
 18 17  1  0  0  0  0
  1 18  2  0  0  0  0
 18 19  1  0  0  0  0
  6 20  1  0  0  0  0
  5 21  2  0  0  0  0
M  END
> <ChemID>
10408

> <CAS>
846-49-1

> <Original_SMILES>
OC1N=C(c2cc(Cl)ccc2NC1=O)c1ccccc1Cl

> <preferred_name>
Lorazepam

> <dsstox_substance_id>
DTXSID7023225

> <dsstox_compound_id>
DTXCID303225

> <Canonical_QSARr>
OC1N=C(C2=CC(Cl)=CC=C2NC1=O)C1=CC=CC=C1Cl

> <InChI_Code_QSARr>
InChI=1S/C15H10Cl2N2O2/c16-8-5-6-12-10(7-8)13(19-15(21)14(20)18-12)9-3-1-2-4-11(9)17/h1-7,15,21H,(H,18,20)

> <InChI Key_QSARr>
DIWRORZWFLOCLC-UHFFFAOYSA-N

> <Salt_Solvent>


> <Salt_Solvent_ID>
0

> <Clint>
-0.5686362358410126

> <Tr_1_Tst_0>
1

$$$$
Row104
  Mrv171c012261910192D          

 23 24  0  0  0  0            999 V2000
    2.4775   -2.2500    0.0000 C   0  0  0  0  0  0  0  0  0  0  0  0
    3.3025   -2.2500    0.0000 C   0  0  0  0  0  0  0  0  0  0  0  0
    3.7150   -1.5355    0.0000 C   0  0  0  0  0  0  0  0  0  0  0  0
    3.5435   -0.7286    0.0000 C   0  0  0  0  0  0  0  0  0  0  0  0
    4.5400   -1.5355    0.0000 N   0  0  0  0  0  0  0  0  0  0  0  0
    4.9525   -2.2500    0.0000 C   0  0  0  0  0  0  0  0  0  0  0  0
    4.9525   -0.8211    0.0000 C   0  0  0  0  0  0  0  0  0  0  0  0
    1.6525   -2.2500    0.0000 C   0  0  0  0  0  0  0  0  0  0  0  0
    1.2400   -2.9645    0.0000 C   0  0  0  0  0  0  0  0  0  0  0  0
    0.4150   -2.9645    0.0000 C   0  0  0  0  0  0  0  0  0  0  0  0
    1.2400   -1.5355    0.0000 O   0  0  0  0  0  0  0  0  0  0  0  0
    2.4775   -3.0750    0.0000 C   0  0  0  0  0  0  0  0  0  0  0  0
    1.7631   -3.4875    0.0000 C   0  0  0  0  0  0  0  0  0  0  0  0
    1.7631   -4.3125    0.0000 C   0  0  0  0  0  0  0  0  0  0  0  0
    2.4775   -4.7250    0.0000 C   0  0  0  0  0  0  0  0  0  0  0  0
    3.1920   -4.3125    0.0000 C   0  0  0  0  0  0  0  0  0  0  0  0
    3.1920   -3.4875    0.0000 C   0  0  0  0  0  0  0  0  0  0  0  0
    2.4775   -1.4250    0.0000 C   0  0  0  0  0  0  0  0  0  0  0  0
    3.1920   -1.0125    0.0000 C   0  0  0  0  0  0  0  0  0  0  0  0
    3.1920   -0.1875    0.0000 C   0  0  0  0  0  0  0  0  0  0  0  0
    2.4775    0.2250    0.0000 C   0  0  0  0  0  0  0  0  0  0  0  0
    1.7631   -0.1875    0.0000 C   0  0  0  0  0  0  0  0  0  0  0  0
    1.7631   -1.0125    0.0000 C   0  0  0  0  0  0  0  0  0  0  0  0
  1  2  1  0  0  0  0
  2  3  1  0  0  0  0
  3  4  1  0  0  0  0
  3  5  1  0  0  0  0
  5  6  1  0  0  0  0
  5  7  1  0  0  0  0
  1  8  1  0  0  0  0
  8  9  1  0  0  0  0
  9 10  1  0  0  0  0
  8 11  2  0  0  0  0
  1 12  1  0  0  0  0
 13 12  1  0  0  0  0
 14 13  2  0  0  0  0
 15 14  1  0  0  0  0
 16 15  2  0  0  0  0
 17 16  1  0  0  0  0
 12 17  2  0  0  0  0
  1 18  1  0  0  0  0
 19 18  1  0  0  0  0
 20 19  2  0  0  0  0
 21 20  1  0  0  0  0
 22 21  2  0  0  0  0
 23 22  1  0  0  0  0
 18 23  2  0  0  0  0
M  END
> <ChemID>
10409

> <CAS>
76-99-3

> <Original_SMILES>
CCC(=O)C(CC(C)N(C)C)(c1ccccc1)c1ccccc1

> <preferred_name>
Methadone

> <dsstox_substance_id>
DTXSID7023273

> <dsstox_compound_id>
DTXCID003273

> <Canonical_QSARr>
CCC(=O)C(CC(C)N(C)C)(C1C=CC=CC=1)C1C=CC=CC=1

> <InChI_Code_QSARr>
InChI=1S/C21H27NO/c1-5-20(23)21(16-17(2)22(3)4,18-12-8-6-9-13-18)19-14-10-7-11-15-19/h6-15,17H,5,16H2,1-4H3

> <InChI Key_QSARr>
USSIQXCVUWKGNF-UHFFFAOYSA-N

> <Salt_Solvent>


> <Salt_Solvent_ID>
0

> <Clint>
0.12710479836480765

> <Tr_1_Tst_0>
1

$$$$
Row225
  Mrv171c012261910192D          

 27 30  0  0  0  0            999 V2000
    1.9964   -2.1383    0.0000 C   0  0  0  0  0  0  0  0  0  0  0  0
    2.2767   -2.9142    0.0000 C   0  0  0  0  0  0  0  0  0  0  0  0
    1.4646   -2.7690    0.0000 C   0  0  0  0  0  0  0  0  0  0  0  0
    0.6525   -2.6237    0.0000 C   0  0  0  0  0  0  0  0  0  0  0  0
    0.3722   -1.8478    0.0000 C   0  0  0  0  0  0  0  0  0  0  0  0
   -0.4399   -1.7026    0.0000 O   0  0  0  0  0  0  0  0  0  0  0  0
    0.9040   -1.2171    0.0000 C   0  0  0  0  0  0  0  0  0  0  0  0
    1.7161   -1.3623    0.0000 C   0  0  0  0  0  0  0  0  0  0  0  0
    2.2480   -0.7316    0.0000 C   0  0  0  0  0  0  0  0  0  0  0  0
    1.9677    0.0443    0.0000 C   0  0  0  0  0  0  0  0  0  0  0  0
    3.0601   -0.8768    0.0000 C   0  0  0  0  0  0  0  0  0  0  0  0
    3.3404   -1.6528    0.0000 C   0  0  0  0  0  0  0  0  0  0  0  0
    4.1525   -1.7980    0.0000 C   0  0  0  0  0  0  0  0  0  0  0  0
    4.8038   -1.2916    0.0000 C   0  0  0  0  0  0  0  0  0  0  0  0
    5.4867   -1.7546    0.0000 C   0  0  0  0  0  0  0  0  0  0  0  0
    5.2574   -2.5471    0.0000 C   0  0  0  0  0  0  0  0  0  0  0  0
    5.1978   -3.3699    0.0000 O   0  0  0  0  0  0  0  0  0  0  0  0
    6.0695   -2.6923    0.0000 C   0  0  0  0  0  0  0  0  0  0  0  0
    6.6013   -2.0616    0.0000 C   0  0  0  0  0  0  0  0  0  0  0  0
    6.3210   -1.2857    0.0000 O   0  0  0  0  0  0  0  0  0  0  0  0
    6.3498   -3.4682    0.0000 O   0  0  0  0  0  0  0  0  0  0  0  0
    4.4328   -2.5739    0.0000 C   0  0  0  0  0  0  0  0  0  0  0  0
    4.7927   -3.3163    0.0000 C   0  0  0  0  0  0  0  0  0  0  0  0
    3.9010   -3.2046    0.0000 C   0  0  0  0  0  0  0  0  0  0  0  0
    3.0889   -3.0594    0.0000 C   0  0  0  0  0  0  0  0  0  0  0  0
    2.5570   -3.6901    0.0000 O   0  0  0  0  0  0  0  0  0  0  0  0
    2.8086   -2.2835    0.0000 C   0  0  0  0  0  0  0  0  0  0  0  0
  1  2  1  0  0  0  0
  3  1  1  0  0  0  0
  4  3  2  0  0  0  0
  5  4  1  0  0  0  0
  5  6  2  0  0  0  0
  7  5  1  0  0  0  0
  8  7  2  0  0  0  0
  8  1  1  0  0  0  0
  9  8  1  0  0  0  0
  9 10  1  0  0  0  0
 11  9  1  0  0  0  0
 12 11  1  0  0  0  0
 12 13  1  0  0  0  0
 14 13  1  0  0  0  0
 15 14  1  0  0  0  0
 16 15  1  0  0  0  0
 16 17  1  0  0  0  0
 16 18  1  0  0  0  0
 18 19  1  0  0  0  0
 19 20  1  0  0  0  0
 18 21  2  0  0  0  0
 22 16  1  0  0  0  0
 13 22  1  0  0  0  0
 22 23  1  0  0  0  0
 22 24  1  0  0  0  0
 24 25  1  0  0  0  0
 25 26  1  0  0  0  0
 25 27  1  0  0  0  0
  1 27  1  0  0  0  0
 27 12  1  0  0  0  0
M  END
> <ChemID>
10410

> <CAS>
83-43-2

> <Original_SMILES>
C[C@H]1C[C@@H]2[C@H]([C@@H](O)C[C@@]3(C)[C@H]2CC[C@]3(O)C(=O)CO)[C@@]2(C)C=CC(=O)C=C21

> <preferred_name>
Methylprednisolone

> <dsstox_substance_id>
DTXSID7023300

> <dsstox_compound_id>
DTXCID903300

> <Canonical_QSARr>
CC1CC2C(C(O)CC3(C)C2CCC3(O)C(=O)CO)C2(C)C=CC(=O)C=C21

> <InChI_Code_QSARr>
InChI=1S/C22H30O5/c1-12-8-14-15-5-7-22(27,18(26)11-23)21(15,3)10-17(25)19(14)20(2)6-4-13(24)9-16(12)20/h4,6,9,12,14-15,17,19,23,25,27H,5,7-8,10-11H2,1-3H3

> <InChI Key_QSARr>
VHRSUDSXCMQTMA-UHFFFAOYSA-N

> <Salt_Solvent>


> <Salt_Solvent_ID>
0

> <Clint>
0.9867717342662446

> <Tr_1_Tst_0>
1

$$$$
Row86
  Mrv171c012261910192D          

 16 16  0  0  0  0            999 V2000
    1.1840   -3.0234    0.0000 C   0  0  0  0  0  0  0  0  0  0  0  0
    1.1840   -3.8484    0.0000 N   0  0  0  0  0  0  0  0  0  0  0  0
    1.8985   -4.2609    0.0000 C   0  0  0  0  0  0  0  0  0  0  0  0
    1.8985   -5.0859    0.0000 O   0  0  0  0  0  0  0  0  0  0  0  0
    2.6129   -3.8484    0.0000 N   0  0  0  0  0  0  0  0  0  0  0  0
    2.6129   -3.0234    0.0000 C   0  0  0  0  0  0  0  0  0  0  0  0
    3.3274   -2.6109    0.0000 O   0  0  0  0  0  0  0  0  0  0  0  0
    1.8985   -2.6109    0.0000 C   0  0  0  0  0  0  0  0  0  0  0  0
    2.2858   -1.8825    0.0000 C   0  0  0  0  0  0  0  0  0  0  0  0
    1.8486   -1.1828    0.0000 C   0  0  0  0  0  0  0  0  0  0  0  0
    2.2359   -0.4544    0.0000 C   0  0  0  0  0  0  0  0  0  0  0  0
    1.7987    0.2452    0.0000 C   0  0  0  0  0  0  0  0  0  0  0  0
    3.1103   -1.8537    0.0000 C   0  0  0  0  0  0  0  0  0  0  0  0
    1.5112   -1.8825    0.0000 C   0  0  0  0  0  0  0  0  0  0  0  0
    0.6867   -1.8537    0.0000 C   0  0  0  0  0  0  0  0  0  0  0  0
    0.4695   -2.6109    0.0000 O   0  0  0  0  0  0  0  0  0  0  0  0
  2  1  1  0  0  0  0
  3  2  1  0  0  0  0
  3  4  1  0  0  0  0
  5  3  2  0  0  0  0
  6  5  1  0  0  0  0
  6  7  2  0  0  0  0
  8  6  1  0  0  0  0
  1  8  1  0  0  0  0
  8  9  1  0  0  0  0
  9 10  1  0  0  0  0
 10 11  1  0  0  0  0
 11 12  1  0  0  0  0
  9 13  1  0  0  0  0
  8 14  1  0  0  0  0
 14 15  1  0  0  0  0
  1 16  2  0  0  0  0
M  END
> <ChemID>
10411

> <CAS>
76-74-4

> <Original_SMILES>
CCC1(C(C)CCC)C(=O)NC(O)=NC1=O

> <preferred_name>
Pentobarbital

> <dsstox_substance_id>
DTXSID7023435

> <dsstox_compound_id>
DTXCID003435

> <Canonical_QSARr>
CCC1(C(C)CCC)C(=O)NC(O)=NC1=O

> <InChI_Code_QSARr>
InChI=1S/C11H18N2O3/c1-4-6-7(3)11(5-2)8(14)12-10(16)13-9(11)15/h7H,4-6H2,1-3H3,(H2,12,13,14,15,16)

> <InChI Key_QSARr>
WEXRUCMBJFQVBZ-UHFFFAOYSA-N

> <Salt_Solvent>


> <Salt_Solvent_ID>
0

> <Clint>
-0.1408617027054692

> <Tr_1_Tst_0>
1

$$$$
Row62
  Mrv171c012261910192D          

 26 29  0  0  0  0            999 V2000
    0.8557   -2.9171    0.0000 C   0  0  0  0  0  0  0  0  0  0  0  0
    1.6440   -2.6740    0.0000 C   0  0  0  0  0  0  0  0  0  0  0  0
    2.2488   -3.2351    0.0000 C   0  0  0  0  0  0  0  0  0  0  0  0
    2.9921   -2.8771    0.0000 N   0  0  0  0  0  0  0  0  0  0  0  0
    3.7354   -3.2351    0.0000 C   0  0  0  0  0  0  0  0  0  0  0  0
    4.3402   -2.6740    0.0000 N   0  0  0  0  0  0  0  0  0  0  0  0
    5.1285   -2.9171    0.0000 C   0  0  0  0  0  0  0  0  0  0  0  0
    5.3121   -3.7214    0.0000 C   0  0  0  0  0  0  0  0  0  0  0  0
    4.7073   -4.2826    0.0000 C   0  0  0  0  0  0  0  0  0  0  0  0
    3.9190   -4.0394    0.0000 C   0  0  0  0  0  0  0  0  0  0  0  0
    3.4046   -4.6844    0.0000 N   0  0  0  0  0  0  0  0  0  0  0  0
    2.5796   -4.6844    0.0000 C   0  0  0  0  0  0  0  0  0  0  0  0
    2.2216   -5.4277    0.0000 O   0  0  0  0  0  0  0  0  0  0  0  0
    2.0652   -4.0394    0.0000 C   0  0  0  0  0  0  0  0  0  0  0  0
    1.2769   -4.2826    0.0000 C   0  0  0  0  0  0  0  0  0  0  0  0
    0.6721   -3.7214    0.0000 C   0  0  0  0  0  0  0  0  0  0  0  0
    2.9921   -2.0521    0.0000 C   0  0  0  0  0  0  0  0  0  0  0  0
    3.7066   -1.6396    0.0000 C   0  0  0  0  0  0  0  0  0  0  0  0
    3.7066   -0.8146    0.0000 N   0  0  0  0  0  0  0  0  0  0  0  0
    4.4210   -0.4021    0.0000 C   0  0  0  0  0  0  0  0  0  0  0  0
    4.4210    0.4229    0.0000 C   0  0  0  0  0  0  0  0  0  0  0  0
    3.7066    0.8354    0.0000 N   0  0  0  0  0  0  0  0  0  0  0  0
    3.7066    1.6604    0.0000 C   0  0  0  0  0  0  0  0  0  0  0  0
    2.9921    0.4229    0.0000 C   0  0  0  0  0  0  0  0  0  0  0  0
    2.9921   -0.4021    0.0000 C   0  0  0  0  0  0  0  0  0  0  0  0
    2.2776   -1.6396    0.0000 O   0  0  0  0  0  0  0  0  0  0  0  0
  2  1  1  0  0  0  0
  3  2  2  0  0  0  0
  3  4  1  0  0  0  0
  4  5  1  0  0  0  0
  6  5  1  0  0  0  0
  7  6  2  0  0  0  0
  8  7  1  0  0  0  0
  9  8  2  0  0  0  0
 10  9  1  0  0  0  0
  5 10  2  0  0  0  0
 10 11  1  0  0  0  0
 11 12  1  0  0  0  0
 12 13  2  0  0  0  0
 12 14  1  0  0  0  0
 14  3  1  0  0  0  0
 15 14  2  0  0  0  0
 16 15  1  0  0  0  0
  1 16  2  0  0  0  0
  4 17  1  0  0  0  0
 17 18  1  0  0  0  0
 18 19  1  0  0  0  0
 20 19  1  0  0  0  0
 21 20  1  0  0  0  0
 22 21  1  0  0  0  0
 22 23  1  0  0  0  0
 24 22  1  0  0  0  0
 25 24  1  0  0  0  0
 19 25  1  0  0  0  0
 17 26  2  0  0  0  0
M  END
> <ChemID>
10412

> <CAS>
28797-61-7

> <Original_SMILES>
CN1CCN(CC(=O)N2c3[n]cccc3NC(=O)c3ccccc23)CC1

> <preferred_name>
Pirenzepine

> <dsstox_substance_id>
DTXSID7023487

> <dsstox_compound_id>
DTXCID303487

> <Canonical_QSARr>
CN1CCN(CC(=O)N2C3N=CC=CC=3NC(=O)C3=CC=CC=C23)CC1

> <InChI_Code_QSARr>
InChI=1S/C19H21N5O2/c1-22-9-11-23(12-10-22)13-17(25)24-16-7-3-2-5-14(16)19(26)21-15-6-4-8-20-18(15)24/h2-8H,9-13H2,1H3,(H,21,26)

> <InChI Key_QSARr>
RMHMFHUVIITRHF-UHFFFAOYSA-N

> <Salt_Solvent>


> <Salt_Solvent_ID>
0

> <Clint>
-6.443697499232711

> <Tr_1_Tst_0>
1

$$$$
Row441
  Mrv171c012261910192D          

 17 17  0  0  0  0            999 V2000
    0.6765   -2.8223    0.0000 C   0  0  0  0  0  0  0  0  0  0  0  0
    1.5015   -2.8223    0.0000 C   0  0  0  0  0  0  0  0  0  0  0  0
    1.9140   -2.1078    0.0000 C   0  0  0  0  0  0  0  0  0  0  0  0
    2.7390   -2.1078    0.0000 C   0  0  0  0  0  0  0  0  0  0  0  0
    3.1515   -1.3933    0.0000 N   0  0  0  0  0  0  0  0  0  0  0  0
    3.9765   -1.3933    0.0000 C   0  0  0  0  0  0  0  0  0  0  0  0
    4.3890   -0.6789    0.0000 C   0  0  0  0  0  0  0  0  0  0  0  0
    5.2140   -0.6789    0.0000 N   0  0  0  0  0  0  0  0  0  0  0  0
    5.6265    0.0356    0.0000 C   0  0  0  0  0  0  0  0  0  0  0  0
    6.4515    0.0356    0.0000 C   0  0  0  0  0  0  0  0  0  0  0  0
    5.6265   -1.3933    0.0000 C   0  0  0  0  0  0  0  0  0  0  0  0
    5.2140   -2.1078    0.0000 C   0  0  0  0  0  0  0  0  0  0  0  0
    3.1515   -2.8223    0.0000 O   0  0  0  0  0  0  0  0  0  0  0  0
    1.5015   -1.3933    0.0000 C   0  0  0  0  0  0  0  0  0  0  0  0
    0.6765   -1.3933    0.0000 C   0  0  0  0  0  0  0  0  0  0  0  0
    0.2640   -2.1078    0.0000 C   0  0  0  0  0  0  0  0  0  0  0  0
   -0.5610   -2.1078    0.0000 N   0  0  0  0  0  0  0  0  0  0  0  0
  2  1  1  0  0  0  0
  3  2  2  0  0  0  0
  3  4  1  0  0  0  0
  4  5  1  0  0  0  0
  5  6  1  0  0  0  0
  6  7  1  0  0  0  0
  7  8  1  0  0  0  0
  8  9  1  0  0  0  0
  9 10  1  0  0  0  0
  8 11  1  0  0  0  0
 11 12  1  0  0  0  0
  4 13  2  0  0  0  0
 14  3  1  0  0  0  0
 15 14  2  0  0  0  0
 16 15  1  0  0  0  0
  1 16  2  0  0  0  0
 16 17  1  0  0  0  0
M  END
> <ChemID>
10413

> <CAS>
51-06-9

> <Original_SMILES>
CCN(CCNC(=O)c1ccc(N)cc1)CC

> <preferred_name>
Procainamide

> <dsstox_substance_id>
DTXSID7023512

> <dsstox_compound_id>
DTXCID403512

> <Canonical_QSARr>
CCN(CCNC(=O)C1C=CC(N)=CC=1)CC

> <InChI_Code_QSARr>
InChI=1S/C13H21N3O/c1-3-16(4-2)10-9-15-13(17)11-5-7-12(14)8-6-11/h5-8H,3-4,9-10,14H2,1-2H3,(H,15,17)

> <InChI Key_QSARr>
REQCZEXYDRLIBE-UHFFFAOYSA-N

> <Salt_Solvent>


> <Salt_Solvent_ID>
0

> <Clint>
-0.1408617027054692

> <Tr_1_Tst_0>
0

$$$$
Row380
  Mrv171c012261910192D          

 14 13  0  0  0  0            999 V2000
    0.9633   -1.6600    0.0000 C   0  0  0  0  0  0  0  0  0  0  0  0
    0.5508   -2.3745    0.0000 S   0  0  0  0  0  0  0  0  0  0  0  0
   -0.2742   -2.3745    0.0000 C   0  0  0  0  0  0  0  0  0  0  0  0
   -0.6867   -1.6600    0.0000 C   0  0  0  0  0  0  0  0  0  0  0  0
    0.5508   -0.9455    0.0000 O   0  0  0  0  0  0  0  0  0  0  0  0
    1.7883   -1.6600    0.0000 N   0  0  0  0  0  0  0  0  0  0  0  0
    2.2008   -0.9455    0.0000 C   0  0  0  0  0  0  0  0  0  0  0  0
    1.7883   -0.2311    0.0000 C   0  0  0  0  0  0  0  0  0  0  0  0
    0.9633   -0.2311    0.0000 C   0  0  0  0  0  0  0  0  0  0  0  0
    2.2008    0.4834    0.0000 C   0  0  0  0  0  0  0  0  0  0  0  0
    2.2008   -2.3745    0.0000 C   0  0  0  0  0  0  0  0  0  0  0  0
    3.0258   -2.3745    0.0000 C   0  0  0  0  0  0  0  0  0  0  0  0
    3.4383   -1.6600    0.0000 C   0  0  0  0  0  0  0  0  0  0  0  0
    3.4383   -3.0890    0.0000 C   0  0  0  0  0  0  0  0  0  0  0  0
  1  2  1  0  0  0  0
  2  3  1  0  0  0  0
  3  4  1  0  0  0  0
  1  5  2  0  0  0  0
  1  6  1  0  0  0  0
  6  7  1  0  0  0  0
  7  8  1  0  0  0  0
  8  9  1  0  0  0  0
  8 10  1  0  0  0  0
  6 11  1  0  0  0  0
 11 12  1  0  0  0  0
 12 13  1  0  0  0  0
 12 14  1  0  0  0  0
M  END
> <ChemID>
10414

> <CAS>
2008-41-5

> <Original_SMILES>
CCSC(=O)N(CC(C)C)CC(C)C

> <preferred_name>
Butylate

> <dsstox_substance_id>
DTXSID7023936

> <dsstox_compound_id>
DTXCID403936

> <Canonical_QSARr>
CCSC(=O)N(CC(C)C)CC(C)C

> <InChI_Code_QSARr>
InChI=1S/C11H23NOS/c1-6-14-11(13)12(7-9(2)3)8-10(4)5/h9-10H,6-8H2,1-5H3

> <InChI Key_QSARr>
BMTAFVWTTFSTOG-UHFFFAOYSA-N

> <Salt_Solvent>


> <Salt_Solvent_ID>
0

> <Clint>
1.7202420182870568

> <Tr_1_Tst_0>
1

$$$$
Row1
  Mrv171c012261910192D          

 15 15  0  0  0  0            999 V2000
    3.4878   -2.5936    0.0000 C   0  0  0  0  0  0  0  0  0  0  0  0
    3.4878   -3.4186    0.0000 Cl  0  0  0  0  0  0  0  0  0  0  0  0
    4.2022   -2.1811    0.0000 C   0  0  0  0  0  0  0  0  0  0  0  0
    4.9167   -2.5936    0.0000 O   0  0  0  0  0  0  0  0  0  0  0  0
    5.6312   -2.1811    0.0000 C   0  0  0  0  0  0  0  0  0  0  0  0
    6.3457   -2.5936    0.0000 C   0  0  0  0  0  0  0  0  0  0  0  0
    7.0601   -2.1811    0.0000 C   0  0  0  0  0  0  0  0  0  0  0  0
    7.7746   -2.5936    0.0000 C   0  0  0  0  0  0  0  0  0  0  0  0
    8.4891   -2.1811    0.0000 O   0  0  0  0  0  0  0  0  0  0  0  0
    7.7746   -3.4186    0.0000 O   0  0  0  0  0  0  0  0  0  0  0  0
    4.2022   -1.3561    0.0000 C   0  0  0  0  0  0  0  0  0  0  0  0
    3.4878   -0.9436    0.0000 C   0  0  0  0  0  0  0  0  0  0  0  0
    2.7733   -1.3561    0.0000 C   0  0  0  0  0  0  0  0  0  0  0  0
    2.0588   -0.9436    0.0000 Cl  0  0  0  0  0  0  0  0  0  0  0  0
    2.7733   -2.1811    0.0000 C   0  0  0  0  0  0  0  0  0  0  0  0
  1  2  1  0  0  0  0
  3  1  1  0  0  0  0
  3  4  1  0  0  0  0
  4  5  1  0  0  0  0
  5  6  1  0  0  0  0
  6  7  1  0  0  0  0
  7  8  1  0  0  0  0
  8  9  2  0  0  0  0
  8 10  1  0  0  0  0
 11  3  2  0  0  0  0
 12 11  1  0  0  0  0
 13 12  2  0  0  0  0
 13 14  1  0  0  0  0
 15 13  1  0  0  0  0
  1 15  2  0  0  0  0
M  END
> <ChemID>
10415

> <CAS>
94-82-6

> <Original_SMILES>
OC(=O)CCCOc1ccc(Cl)cc1Cl

> <preferred_name>
2,4-Dichlorophenoxybutyric acid

> <dsstox_substance_id>
DTXSID7024035

> <dsstox_compound_id>
DTXCID304035

> <Canonical_QSARr>
OC(=O)CCCOC1=CC=C(Cl)C=C1Cl

> <InChI_Code_QSARr>
InChI=1S/C10H10Cl2O3/c11-7-3-4-9(8(12)6-7)15-5-1-2-10(13)14/h3-4,6H,1-2,5H2,(H,13,14)

> <InChI Key_QSARr>
YIVXMZJTEQBPQO-UHFFFAOYSA-N

> <Salt_Solvent>


> <Salt_Solvent_ID>
0

> <Clint>
-7.0

> <Tr_1_Tst_0>
1

$$$$
Row446
  Mrv171c012261910192D          

 31 32  0  0  0  0            999 V2000
    3.6640   -2.8180    0.0000 C   0  0  0  0  0  0  0  0  0  0  0  0
    4.3785   -3.2305    0.0000 O   0  0  0  0  0  0  0  0  0  0  0  0
    5.0930   -2.8180    0.0000 C   0  0  0  0  0  0  0  0  0  0  0  0
    5.0930   -1.9930    0.0000 C   0  0  0  0  0  0  0  0  0  0  0  0
    5.8074   -3.2305    0.0000 C   0  0  0  0  0  0  0  0  0  0  0  0
    5.8074   -4.0555    0.0000 O   0  0  0  0  0  0  0  0  0  0  0  0
    6.5219   -2.8180    0.0000 O   0  0  0  0  0  0  0  0  0  0  0  0
    7.2364   -3.2305    0.0000 C   0  0  0  0  0  0  0  0  0  0  0  0
    7.9508   -2.8180    0.0000 C   0  0  0  0  0  0  0  0  0  0  0  0
    2.9495   -3.2305    0.0000 C   0  0  0  0  0  0  0  0  0  0  0  0
    2.2351   -2.8180    0.0000 C   0  0  0  0  0  0  0  0  0  0  0  0
    1.5206   -3.2305    0.0000 C   0  0  0  0  0  0  0  0  0  0  0  0
    0.8061   -2.8180    0.0000 O   0  0  0  0  0  0  0  0  0  0  0  0
    0.0917   -3.2305    0.0000 C   0  0  0  0  0  0  0  0  0  0  0  0
   -0.6228   -2.8180    0.0000 C   0  0  0  0  0  0  0  0  0  0  0  0
   -1.3373   -3.2305    0.0000 C   0  0  0  0  0  0  0  0  0  0  0  0
   -1.3373   -4.0555    0.0000 C   0  0  0  0  0  0  0  0  0  0  0  0
   -2.0518   -4.4680    0.0000 C   0  0  0  0  0  0  0  0  0  0  0  0
   -2.7662   -4.8805    0.0000 F   0  0  0  0  0  0  0  0  0  0  0  0
   -2.4643   -3.7535    0.0000 F   0  0  0  0  0  0  0  0  0  0  0  0
   -1.6393   -5.1825    0.0000 F   0  0  0  0  0  0  0  0  0  0  0  0
   -0.6228   -4.4680    0.0000 C   0  0  0  0  0  0  0  0  0  0  0  0
    0.0917   -4.0555    0.0000 C   0  0  0  0  0  0  0  0  0  0  0  0
    0.8061   -4.4680    0.0000 Cl  0  0  0  0  0  0  0  0  0  0  0  0
    1.5206   -4.0555    0.0000 C   0  0  0  0  0  0  0  0  0  0  0  0
    2.2351   -4.4680    0.0000 C   0  0  0  0  0  0  0  0  0  0  0  0
    2.9495   -4.0555    0.0000 C   0  0  0  0  0  0  0  0  0  0  0  0
    3.6640   -4.4680    0.0000 N   0  3  0  0  0  0  0  0  0  0  0  0
    4.3785   -4.0555    0.0000 O   0  0  0  0  0  0  0  0  0  0  0  0
    3.6640   -5.2930    0.0000 O   0  5  0  0  0  0  0  0  0  0  0  0
    3.6640   -1.9930    0.0000 O   0  0  0  0  0  0  0  0  0  0  0  0
  1  2  1  0  0  0  0
  2  3  1  0  0  0  0
  3  4  1  0  0  0  0
  3  5  1  0  0  0  0
  5  6  2  0  0  0  0
  5  7  1  0  0  0  0
  7  8  1  0  0  0  0
  8  9  1  0  0  0  0
  1 10  1  0  0  0  0
 11 10  1  0  0  0  0
 12 11  2  0  0  0  0
 12 13  1  0  0  0  0
 13 14  1  0  0  0  0
 15 14  1  0  0  0  0
 16 15  2  0  0  0  0
 17 16  1  0  0  0  0
 17 18  1  0  0  0  0
 18 19  1  0  0  0  0
 18 20  1  0  0  0  0
 18 21  1  0  0  0  0
 22 17  2  0  0  0  0
 23 22  1  0  0  0  0
 14 23  2  0  0  0  0
 23 24  1  0  0  0  0
 25 12  1  0  0  0  0
 26 25  2  0  0  0  0
 27 26  1  0  0  0  0
 10 27  2  0  0  0  0
 27 28  1  0  0  0  0
 28 29  2  0  0  0  0
 28 30  1  0  0  0  0
  1 31  2  0  0  0  0
M  CHG  2  28   1  30  -1
M  END
> <ChemID>
10416

> <CAS>
77501-63-4

> <Original_SMILES>
CCOC(=O)C(C)OC(=O)c1cc(ccc1[N+]([O-])=O)Oc1ccc(cc1Cl)C(F)(F)F

> <preferred_name>
Lactofen

> <dsstox_substance_id>
DTXSID7024160

> <dsstox_compound_id>
DTXCID404160

> <Canonical_QSARr>
CCOC(=O)C(C)OC(=O)C1C=C(C=CC=1[N+]([O-])=O)OC1C=CC(=CC=1Cl)C(F)(F)F

> <InChI_Code_QSARr>
InChI=1S/C19H15ClF3NO7/c1-3-29-17(25)10(2)30-18(26)13-9-12(5-6-15(13)24(27)28)31-16-7-4-11(8-14(16)20)19(21,22)23/h4-10H,3H2,1-2H3

> <InChI Key_QSARr>
CONWAEURSVPLRM-UHFFFAOYSA-N

> <Salt_Solvent>


> <Salt_Solvent_ID>
0

> <Clint>
0.10720996964786836

> <Tr_1_Tst_0>
0

$$$$
Row232
  Mrv171c012261910192D          

 28 29  0  0  0  0            999 V2000
    2.4736   -4.5180    0.0000 C   0  0  0  0  0  0  0  0  0  0  0  0
    1.7591   -4.1055    0.0000 C   0  0  0  0  0  0  0  0  0  0  0  0
    1.7591   -3.2805    0.0000 O   0  0  0  0  0  0  0  0  0  0  0  0
    1.0447   -4.5180    0.0000 O   0  0  0  0  0  0  0  0  0  0  0  0
    0.3302   -4.1055    0.0000 C   0  0  0  0  0  0  0  0  0  0  0  0
    2.4736   -5.3430    0.0000 C   0  0  0  0  0  0  0  0  0  0  0  0
    3.1881   -5.7555    0.0000 C   0  0  0  0  0  0  0  0  0  0  0  0
    3.9025   -5.3430    0.0000 C   0  0  0  0  0  0  0  0  0  0  0  0
    3.9025   -4.5180    0.0000 C   0  0  0  0  0  0  0  0  0  0  0  0
    3.1881   -4.1055    0.0000 C   0  0  0  0  0  0  0  0  0  0  0  0
    3.1881   -3.2805    0.0000 C   0  0  0  0  0  0  0  0  0  0  0  0
    3.9025   -2.8680    0.0000 S   0  0  0  0  0  0  0  0  0  0  0  0
    4.3150   -3.5825    0.0000 O   0  0  0  0  0  0  0  0  0  0  0  0
    3.4900   -2.1535    0.0000 O   0  0  0  0  0  0  0  0  0  0  0  0
    4.6170   -2.4555    0.0000 N   0  0  0  0  0  0  0  0  0  0  0  0
    4.6170   -1.6305    0.0000 C   0  0  0  0  0  0  0  0  0  0  0  0
    3.9025   -1.2180    0.0000 O   0  0  0  0  0  0  0  0  0  0  0  0
    5.3315   -1.2180    0.0000 N   0  0  0  0  0  0  0  0  0  0  0  0
    5.3315   -0.3930    0.0000 C   0  0  0  0  0  0  0  0  0  0  0  0
    6.0460    0.0195    0.0000 N   0  0  0  0  0  0  0  0  0  0  0  0
    6.0460    0.8445    0.0000 C   0  0  0  0  0  0  0  0  0  0  0  0
    6.7604    1.2570    0.0000 O   0  0  0  0  0  0  0  0  0  0  0  0
    6.7604    2.0820    0.0000 C   0  0  0  0  0  0  0  0  0  0  0  0
    5.3315    1.2570    0.0000 C   0  0  0  0  0  0  0  0  0  0  0  0
    4.6170    0.8445    0.0000 C   0  0  0  0  0  0  0  0  0  0  0  0
    3.9025    1.2570    0.0000 O   0  0  0  0  0  0  0  0  0  0  0  0
    3.1881    0.8445    0.0000 C   0  0  0  0  0  0  0  0  0  0  0  0
    4.6170    0.0195    0.0000 N   0  0  0  0  0  0  0  0  0  0  0  0
  1  2  1  0  0  0  0
  2  3  2  0  0  0  0
  2  4  1  0  0  0  0
  4  5  1  0  0  0  0
  6  1  1  0  0  0  0
  7  6  2  0  0  0  0
  8  7  1  0  0  0  0
  9  8  2  0  0  0  0
 10  9  1  0  0  0  0
  1 10  2  0  0  0  0
 10 11  1  0  0  0  0
 11 12  1  0  0  0  0
 12 13  2  0  0  0  0
 12 14  2  0  0  0  0
 12 15  1  0  0  0  0
 15 16  1  0  0  0  0
 16 17  2  0  0  0  0
 16 18  1  0  0  0  0
 18 19  1  0  0  0  0
 20 19  2  0  0  0  0
 21 20  1  0  0  0  0
 21 22  1  0  0  0  0
 22 23  1  0  0  0  0
 24 21  2  0  0  0  0
 25 24  1  0  0  0  0
 25 26  1  0  0  0  0
 26 27  1  0  0  0  0
 28 25  2  0  0  0  0
 19 28  1  0  0  0  0
M  END
> <ChemID>
10417

> <CAS>
83055-99-6

> <Original_SMILES>
COC(=O)c1ccccc1CS(=O)(=O)NC(=O)Nc1[n]c(cc([n]1)OC)OC

> <preferred_name>
Bensulfuron-methyl

> <dsstox_substance_id>
DTXSID7024164

> <dsstox_compound_id>
DTXCID004164

> <Canonical_QSARr>
COC1=CC(=NC(NC(=O)NS(=O)(=O)CC2C=CC=CC=2C(=O)OC)=N1)OC

> <InChI_Code_QSARr>
InChI=1S/C16H18N4O7S/c1-25-12-8-13(26-2)18-15(17-12)19-16(22)20-28(23,24)9-10-6-4-5-7-11(10)14(21)27-3/h4-8H,9H2,1-3H3,(H2,17,18,19,20,22)

> <InChI Key_QSARr>
XMQFTWRPUQYINF-UHFFFAOYSA-N

> <Salt_Solvent>


> <Salt_Solvent_ID>
0

> <Clint>
1.0111473607757973

> <Tr_1_Tst_0>
1

$$$$
Row417
  Mrv171c012261910192D          

 24 25  0  0  0  0            999 V2000
    4.9877   -4.2498    0.0000 N   0  3  0  0  0  0  0  0  0  0  0  0
    4.2732   -4.6623    0.0000 O   0  0  0  0  0  0  0  0  0  0  0  0
    5.7021   -4.6623    0.0000 O   0  5  0  0  0  0  0  0  0  0  0  0
    4.9877   -3.4248    0.0000 C   0  0  0  0  0  0  0  0  0  0  0  0
    5.7021   -3.0123    0.0000 C   0  0  0  0  0  0  0  0  0  0  0  0
    5.7021   -2.1873    0.0000 C   0  0  0  0  0  0  0  0  0  0  0  0
    4.9877   -1.7748    0.0000 C   0  0  0  0  0  0  0  0  0  0  0  0
    4.9877   -0.9498    0.0000 O   0  0  0  0  0  0  0  0  0  0  0  0
    4.2732   -0.5373    0.0000 C   0  0  0  0  0  0  0  0  0  0  0  0
    4.2732    0.2877    0.0000 C   0  0  0  0  0  0  0  0  0  0  0  0
    3.5587    0.7002    0.0000 C   0  0  0  0  0  0  0  0  0  0  0  0
    2.8442    0.2877    0.0000 C   0  0  0  0  0  0  0  0  0  0  0  0
    2.1298    0.7002    0.0000 C   0  0  0  0  0  0  0  0  0  0  0  0
    1.4153    1.1127    0.0000 F   0  0  0  0  0  0  0  0  0  0  0  0
    2.5423    1.4147    0.0000 F   0  0  0  0  0  0  0  0  0  0  0  0
    1.7173   -0.0143    0.0000 F   0  0  0  0  0  0  0  0  0  0  0  0
    2.8442   -0.5373    0.0000 C   0  0  0  0  0  0  0  0  0  0  0  0
    3.5587   -0.9498    0.0000 C   0  0  0  0  0  0  0  0  0  0  0  0
    3.5587   -1.7748    0.0000 Cl  0  0  0  0  0  0  0  0  0  0  0  0
    4.2732   -2.1873    0.0000 C   0  0  0  0  0  0  0  0  0  0  0  0
    4.2732   -3.0123    0.0000 C   0  0  0  0  0  0  0  0  0  0  0  0
    3.5587   -3.4248    0.0000 O   0  0  0  0  0  0  0  0  0  0  0  0
    3.5587   -4.2498    0.0000 C   0  0  0  0  0  0  0  0  0  0  0  0
    2.8442   -4.6623    0.0000 C   0  0  0  0  0  0  0  0  0  0  0  0
  1  2  2  0  0  0  0
  1  3  1  0  0  0  0
  1  4  1  0  0  0  0
  5  4  2  0  0  0  0
  6  5  1  0  0  0  0
  7  6  2  0  0  0  0
  7  8  1  0  0  0  0
  8  9  1  0  0  0  0
 10  9  2  0  0  0  0
 11 10  1  0  0  0  0
 12 11  2  0  0  0  0
 12 13  1  0  0  0  0
 13 14  1  0  0  0  0
 13 15  1  0  0  0  0
 13 16  1  0  0  0  0
 17 12  1  0  0  0  0
 18 17  2  0  0  0  0
  9 18  1  0  0  0  0
 18 19  1  0  0  0  0
 20  7  1  0  0  0  0
 21 20  2  0  0  0  0
  4 21  1  0  0  0  0
 21 22  1  0  0  0  0
 22 23  1  0  0  0  0
 23 24  1  0  0  0  0
M  CHG  2   1   1   3  -1
M  END
> <ChemID>
10418

> <CAS>
42874-03-3

> <Original_SMILES>
CCOc1cc(ccc1[N+]([O-])=O)Oc1ccc(cc1Cl)C(F)(F)F

> <preferred_name>
Oxyfluorfen

> <dsstox_substance_id>
DTXSID7024241

> <dsstox_compound_id>
DTXCID404241

> <Canonical_QSARr>
CCOC1=CC(=CC=C1[N+]([O-])=O)OC1=CC=C(C=C1Cl)C(F)(F)F

> <InChI_Code_QSARr>
InChI=1S/C15H11ClF3NO4/c1-2-23-14-8-10(4-5-12(14)20(21)22)24-13-6-3-9(7-11(13)16)15(17,18)19/h3-8H,2H2,1H3

> <InChI Key_QSARr>
OQMBBFQZGJFLBU-UHFFFAOYSA-N

> <Salt_Solvent>


> <Salt_Solvent_ID>
0

> <Clint>
-7.0

> <Tr_1_Tst_0>
0

$$$$
Row204
  Mrv171c012261910192D          

 20 20  0  0  0  0            999 V2000
    2.8456   -1.6226    0.0000 C   0  0  0  0  0  0  0  0  0  0  0  0
    2.8456   -0.7976    0.0000 C   0  0  0  0  0  0  0  0  0  0  0  0
    2.1311   -0.3851    0.0000 C   0  0  0  0  0  0  0  0  0  0  0  0
    2.1311    0.4399    0.0000 C   0  0  0  0  0  0  0  0  0  0  0  0
    1.4167   -0.7976    0.0000 C   0  0  0  0  0  0  0  0  0  0  0  0
    0.7022   -0.3851    0.0000 C   0  0  0  0  0  0  0  0  0  0  0  0
    1.4167   -1.6226    0.0000 C   0  0  0  0  0  0  0  0  0  0  0  0
    0.7022   -2.0351    0.0000 N   0  3  0  0  0  0  0  0  0  0  0  0
    0.7022   -2.8601    0.0000 O   0  0  0  0  0  0  0  0  0  0  0  0
   -0.0123   -1.6226    0.0000 O   0  5  0  0  0  0  0  0  0  0  0  0
    2.1311   -2.0351    0.0000 C   0  0  0  0  0  0  0  0  0  0  0  0
    2.1311   -2.8601    0.0000 N   0  0  0  0  0  0  0  0  0  0  0  0
    2.8456   -3.2726    0.0000 C   0  0  0  0  0  0  0  0  0  0  0  0
    2.8456   -4.0976    0.0000 C   0  0  0  0  0  0  0  0  0  0  0  0
    2.1311   -4.5101    0.0000 C   0  0  0  0  0  0  0  0  0  0  0  0
    3.5601   -2.8601    0.0000 C   0  0  0  0  0  0  0  0  0  0  0  0
    4.2745   -3.2726    0.0000 C   0  0  0  0  0  0  0  0  0  0  0  0
    3.5601   -2.0351    0.0000 N   0  3  0  0  0  0  0  0  0  0  0  0
    4.0450   -2.7025    0.0000 O   0  0  0  0  0  0  0  0  0  0  0  0
    4.2745   -1.6226    0.0000 O   0  5  0  0  0  0  0  0  0  0  0  0
  2  1  2  0  0  0  0
  3  2  1  0  0  0  0
  3  4  1  0  0  0  0
  5  3  2  0  0  0  0
  5  6  1  0  0  0  0
  7  5  1  0  0  0  0
  7  8  1  0  0  0  0
  8  9  2  0  0  0  0
  8 10  1  0  0  0  0
 11  7  2  0  0  0  0
  1 11  1  0  0  0  0
 11 12  1  0  0  0  0
 12 13  1  0  0  0  0
 13 14  1  0  0  0  0
 14 15  1  0  0  0  0
 13 16  1  0  0  0  0
 16 17  1  0  0  0  0
  1 18  1  0  0  0  0
 18 19  2  0  0  0  0
 18 20  1  0  0  0  0
M  CHG  4   8   1  10  -1  18   1  20  -1
M  END
> <ChemID>
10419

> <CAS>
40487-42-1

> <Original_SMILES>
Cc1c(c(NC(CC)CC)c(cc1C)[N+]([O-])=O)[N+]([O-])=O

> <preferred_name>
Pendimethalin

> <dsstox_substance_id>
DTXSID7024245

> <dsstox_compound_id>
DTXCID004245

> <Canonical_QSARr>
CC1C(=C(NC(CC)CC)C(=CC=1C)[N+]([O-])=O)[N+]([O-])=O

> <InChI_Code_QSARr>
InChI=1S/C13H19N3O4/c1-5-10(6-2)14-12-11(15(17)18)7-8(3)9(4)13(12)16(19)20/h7,10,14H,5-6H2,1-4H3

> <InChI Key_QSARr>
CHIFOSRWCNZCFN-UHFFFAOYSA-N

> <Salt_Solvent>


> <Salt_Solvent_ID>
0

> <Clint>
0.8579352647194289

> <Tr_1_Tst_0>
1

$$$$
Row546
  Mrv171c012261910192D          

 23 25  0  0  0  0            999 V2000
    4.0810   -2.2593    0.0000 N   0  0  0  0  0  0  0  0  0  0  0  0
    3.4136   -1.7744    0.0000 C   0  0  0  0  0  0  0  0  0  0  0  0
    3.4136   -0.9494    0.0000 C   0  0  0  0  0  0  0  0  0  0  0  0
    2.7462   -2.2593    0.0000 C   0  0  0  0  0  0  0  0  0  0  0  0
    1.9615   -2.0044    0.0000 C   0  0  0  0  0  0  0  0  0  0  0  0
    1.7900   -1.1974    0.0000 C   0  0  0  0  0  0  0  0  0  0  0  0
    1.0054   -0.9425    0.0000 C   0  0  0  0  0  0  0  0  0  0  0  0
    0.3923   -1.4945    0.0000 C   0  0  0  0  0  0  0  0  0  0  0  0
   -0.3923   -1.2396    0.0000 Cl  0  0  0  0  0  0  0  0  0  0  0  0
    0.5638   -2.3015    0.0000 C   0  0  0  0  0  0  0  0  0  0  0  0
    1.3484   -2.5564    0.0000 C   0  0  0  0  0  0  0  0  0  0  0  0
    3.0011   -3.0440    0.0000 S   0  0  0  0  0  0  0  0  0  0  0  0
    3.8261   -3.0440    0.0000 C   0  0  0  0  0  0  0  0  0  0  0  0
    4.3110   -3.7114    0.0000 O   0  0  0  0  0  0  0  0  0  0  0  0
    4.8657   -2.0044    0.0000 C   0  0  0  0  0  0  0  0  0  0  0  0
    5.0372   -1.1974    0.0000 O   0  0  0  0  0  0  0  0  0  0  0  0
    5.4788   -2.5564    0.0000 N   0  0  0  0  0  0  0  0  0  0  0  0
    6.2634   -2.3015    0.0000 C   0  0  0  0  0  0  0  0  0  0  0  0
    6.8765   -2.8535    0.0000 C   0  0  0  0  0  0  0  0  0  0  0  0
    7.6611   -2.5986    0.0000 C   0  0  0  0  0  0  0  0  0  0  0  0
    7.8326   -1.7916    0.0000 C   0  0  0  0  0  0  0  0  0  0  0  0
    7.2195   -1.2396    0.0000 C   0  0  0  0  0  0  0  0  0  0  0  0
    6.4349   -1.4945    0.0000 C   0  0  0  0  0  0  0  0  0  0  0  0
  2  1  1  0  0  0  0
  2  3  1  0  0  0  0
  4  2  1  0  0  0  0
  4  5  1  0  0  0  0
  6  5  1  0  0  0  0
  7  6  2  0  0  0  0
  8  7  1  0  0  0  0
  8  9  1  0  0  0  0
 10  8  2  0  0  0  0
 11 10  1  0  0  0  0
  5 11  2  0  0  0  0
 12  4  1  0  0  0  0
 13 12  1  0  0  0  0
  1 13  1  0  0  0  0
 13 14  2  0  0  0  0
  1 15  1  0  0  0  0
 15 16  2  0  0  0  0
 15 17  1  0  0  0  0
 17 18  1  0  0  0  0
 19 18  1  0  0  0  0
 20 19  1  0  0  0  0
 21 20  1  0  0  0  0
 22 21  1  0  0  0  0
 23 22  1  0  0  0  0
 18 23  1  0  0  0  0
M  END
> <ChemID>
10420

> <CAS>
78587-05-0

> <Original_SMILES>
C[C@@H]1[C@H](SC(=O)N1C(=O)NC1CCCCC1)c1ccc(Cl)cc1

> <preferred_name>
Hexythiazox

> <dsstox_substance_id>
DTXSID7024299

> <dsstox_compound_id>
DTXCID10196605

> <Canonical_QSARr>
CC1C(SC(=O)N1C(=O)NC1CCCCC1)C1C=CC(Cl)=CC=1

> <InChI_Code_QSARr>
InChI=1S/C17H21ClN2O2S/c1-11-15(12-7-9-13(18)10-8-12)23-17(22)20(11)16(21)19-14-5-3-2-4-6-14/h7-11,14-15H,2-6H2,1H3,(H,19,21)

> <InChI Key_QSARr>
XGWIJUOSCAQSSV-UHFFFAOYSA-N

> <Salt_Solvent>


> <Salt_Solvent_ID>
0

> <Clint>
2.0431263979672254

> <Tr_1_Tst_0>
0

$$$$
Row221
  Mrv171c012261910192D          

 10 10  0  0  0  0            999 V2000
    3.0867   -0.6079    0.0000 Cl  0  0  0  0  0  0  0  0  0  0  0  0
    2.3722   -1.0204    0.0000 C   0  0  0  0  0  0  0  0  0  0  0  0
    1.6577   -0.6079    0.0000 C   0  0  0  0  0  0  0  0  0  0  0  0
    1.6577    0.2171    0.0000 Cl  0  0  0  0  0  0  0  0  0  0  0  0
    0.9433   -1.0204    0.0000 C   0  0  0  0  0  0  0  0  0  0  0  0
    0.9433   -1.8454    0.0000 C   0  0  0  0  0  0  0  0  0  0  0  0
    0.2288   -2.2579    0.0000 Cl  0  0  0  0  0  0  0  0  0  0  0  0
    1.6577   -2.2579    0.0000 C   0  0  0  0  0  0  0  0  0  0  0  0
    1.6577   -3.0829    0.0000 Cl  0  0  0  0  0  0  0  0  0  0  0  0
    2.3722   -1.8454    0.0000 C   0  0  0  0  0  0  0  0  0  0  0  0
  1  2  1  0  0  0  0
  3  2  2  0  0  0  0
  3  4  1  0  0  0  0
  5  3  1  0  0  0  0
  6  5  2  0  0  0  0
  6  7  1  0  0  0  0
  8  6  1  0  0  0  0
  8  9  1  0  0  0  0
 10  8  2  0  0  0  0
  2 10  1  0  0  0  0
M  END
> <ChemID>
10421

> <CAS>
95-94-3

> <Original_SMILES>
Clc1cc(Cl)c(Cl)cc1Cl

> <preferred_name>
1,2,4,5-Tetrachlorobenzene

> <dsstox_substance_id>
DTXSID7024320

> <dsstox_compound_id>
DTXCID604320

> <Canonical_QSARr>
ClC1C=C(Cl)C(Cl)=CC=1Cl

> <InChI_Code_QSARr>
InChI=1S/C6H2Cl4/c7-3-1-4(8)6(10)2-5(3)9/h1-2H

> <InChI Key_QSARr>
JHBKHLUZVFWLAG-UHFFFAOYSA-N

> <Salt_Solvent>


> <Salt_Solvent_ID>
0

> <Clint>
0.9465505105698551

> <Tr_1_Tst_0>
1

$$$$
Row332
  Mrv171c012261910192D          

 13 12  0  0  0  0            999 V2000
    1.2888   -1.3206    0.0000 C   0  0  0  0  0  0  0  0  0  0  0  0
    0.7487   -1.9443    0.0000 S   0  0  0  0  0  0  0  0  0  0  0  0
   -0.0615   -1.7884    0.0000 C   0  0  0  0  0  0  0  0  0  0  0  0
   -0.6016   -2.4120    0.0000 C   0  0  0  0  0  0  0  0  0  0  0  0
   -1.4117   -2.2561    0.0000 C   0  0  0  0  0  0  0  0  0  0  0  0
    1.0187   -0.5411    0.0000 O   0  0  0  0  0  0  0  0  0  0  0  0
    2.0989   -1.4766    0.0000 N   0  0  0  0  0  0  0  0  0  0  0  0
    2.6390   -0.8529    0.0000 C   0  0  0  0  0  0  0  0  0  0  0  0
    3.4491   -1.0088    0.0000 C   0  0  0  0  0  0  0  0  0  0  0  0
    3.9892   -0.3852    0.0000 C   0  0  0  0  0  0  0  0  0  0  0  0
    2.3689   -2.2561    0.0000 C   0  0  0  0  0  0  0  0  0  0  0  0
    3.1791   -2.4120    0.0000 C   0  0  0  0  0  0  0  0  0  0  0  0
    3.4491   -3.1916    0.0000 C   0  0  0  0  0  0  0  0  0  0  0  0
  1  2  1  0  0  0  0
  2  3  1  0  0  0  0
  3  4  1  0  0  0  0
  4  5  1  0  0  0  0
  1  6  2  0  0  0  0
  1  7  1  0  0  0  0
  7  8  1  0  0  0  0
  8  9  1  0  0  0  0
  9 10  1  0  0  0  0
  7 11  1  0  0  0  0
 11 12  1  0  0  0  0
 12 13  1  0  0  0  0
M  END
> <ChemID>
10422

> <CAS>
1929-77-7

> <Original_SMILES>
CCCSC(=O)N(CCC)CCC

> <preferred_name>
Vernolate

> <dsstox_substance_id>
DTXSID7024376

> <dsstox_compound_id>
DTXCID504376

> <Canonical_QSARr>
CCCSC(=O)N(CCC)CCC

> <InChI_Code_QSARr>
InChI=1S/C10H21NOS/c1-4-7-11(8-5-2)10(12)13-9-6-3/h4-9H2,1-3H3

> <InChI Key_QSARr>
OKUGPJPKMAEJOE-UHFFFAOYSA-N

> <Salt_Solvent>


> <Salt_Solvent_ID>
0

> <Clint>
1.3996737214810382

> <Tr_1_Tst_0>
1

$$$$
Row249
  Mrv171c012261910192D          

  9  9  0  0  0  0            999 V2000
    2.8587   -0.1833    0.0000 C   0  0  0  0  0  0  0  0  0  0  0  0
    2.1442   -0.5958    0.0000 N   0  0  0  0  0  0  0  0  0  0  0  0
    1.4298   -0.1833    0.0000 C   0  0  0  0  0  0  0  0  0  0  0  0
    1.4298    0.6417    0.0000 S   0  0  0  0  0  0  0  0  0  0  0  0
    0.7153   -0.5958    0.0000 S   0  0  0  0  0  0  0  0  0  0  0  0
    0.7153   -1.4208    0.0000 C   0  0  0  0  0  0  0  0  0  0  0  0
    1.4298   -1.8333    0.0000 N   0  0  0  0  0  0  0  0  0  0  0  0
    1.4298   -2.6583    0.0000 C   0  0  0  0  0  0  0  0  0  0  0  0
    2.1442   -1.4208    0.0000 C   0  0  0  0  0  0  0  0  0  0  0  0
  1  2  1  0  0  0  0
  3  2  1  0  0  0  0
  3  4  2  0  0  0  0
  5  3  1  0  0  0  0
  6  5  1  0  0  0  0
  7  6  1  0  0  0  0
  7  8  1  0  0  0  0
  9  7  1  0  0  0  0
  2  9  1  0  0  0  0
M  END
> <ChemID>
10423

> <CAS>
533-74-4

> <Original_SMILES>
CN1CSC(=S)N(C)C1

> <preferred_name>
Dazomet

> <dsstox_substance_id>
DTXSID7024902

> <dsstox_compound_id>
DTXCID004902

> <Canonical_QSARr>
CN1CSC(=S)N(C)C1

> <InChI_Code_QSARr>
InChI=1S/C5H10N2S2/c1-6-3-7(2)5(8)9-4-6/h3-4H2,1-2H3

> <InChI Key_QSARr>
QAYICIQNSGETAS-UHFFFAOYSA-N

> <Salt_Solvent>


> <Salt_Solvent_ID>
0

> <Clint>
1.0941215958405612

> <Tr_1_Tst_0>
1

$$$$
Row274
  Mrv171c012261910192D          

 14 15  0  0  0  0            999 V2000
    2.0413   -1.4157    0.0000 N   0  0  0  0  0  0  0  0  0  0  0  0
    2.0413   -0.5907    0.0000 C   0  0  0  0  0  0  0  0  0  0  0  0
    2.7557   -0.1782    0.0000 C   0  0  0  0  0  0  0  0  0  0  0  0
    2.7557    0.6468    0.0000 C   0  0  0  0  0  0  0  0  0  0  0  0
    2.0413    1.0593    0.0000 C   0  0  0  0  0  0  0  0  0  0  0  0
    2.0413    1.8843    0.0000 N   0  0  0  0  0  0  0  0  0  0  0  0
    1.3268    0.6468    0.0000 C   0  0  0  0  0  0  0  0  0  0  0  0
    1.3268   -0.1782    0.0000 C   0  0  0  0  0  0  0  0  0  0  0  0
    2.7557   -1.8282    0.0000 C   0  0  0  0  0  0  0  0  0  0  0  0
    2.7557   -2.6532    0.0000 C   0  0  0  0  0  0  0  0  0  0  0  0
    3.4702   -3.0657    0.0000 C   0  0  0  0  0  0  0  0  0  0  0  0
    4.1847   -2.6532    0.0000 C   0  0  0  0  0  0  0  0  0  0  0  0
    4.1847   -1.8282    0.0000 C   0  0  0  0  0  0  0  0  0  0  0  0
    3.4702   -1.4157    0.0000 C   0  0  0  0  0  0  0  0  0  0  0  0
  1  2  1  0  0  0  0
  3  2  1  0  0  0  0
  4  3  2  0  0  0  0
  5  4  1  0  0  0  0
  5  6  1  0  0  0  0
  7  5  2  0  0  0  0
  8  7  1  0  0  0  0
  2  8  2  0  0  0  0
  1  9  1  0  0  0  0
 10  9  1  0  0  0  0
 11 10  2  0  0  0  0
 12 11  1  0  0  0  0
 13 12  2  0  0  0  0
 14 13  1  0  0  0  0
  9 14  2  0  0  0  0
M  END
> <ChemID>
10424

> <CAS>
101-54-2

> <Original_SMILES>
Nc1ccc(cc1)Nc1ccccc1

> <preferred_name>
N-Phenyl-1,4-benzenediamine

> <dsstox_substance_id>
DTXSID7025895

> <dsstox_compound_id>
DTXCID805895

> <Canonical_QSARr>
NC1C=CC(=CC=1)NC1C=CC=CC=1

> <InChI_Code_QSARr>
InChI=1S/C12H12N2/c13-10-6-8-12(9-7-10)14-11-4-2-1-3-5-11/h1-9,14H,13H2

> <InChI Key_QSARr>
ATGUVEKSASEFFO-UHFFFAOYSA-N

> <Salt_Solvent>


> <Salt_Solvent_ID>
0

> <Clint>
1.1927346719031637

> <Tr_1_Tst_0>
1

$$$$
Row236
  Mrv171c012261910192D          

 15 15  0  0  0  0            999 V2000
    1.4289    2.4750    0.0000 C   0  0  0  0  0  0  0  0  0  0  0  0
    2.1434    2.0625    0.0000 C   0  0  0  0  0  0  0  0  0  0  0  0
    2.1434    1.2375    0.0000 C   0  0  0  0  0  0  0  0  0  0  0  0
    1.4289    0.8250    0.0000 C   0  0  0  0  0  0  0  0  0  0  0  0
    1.4289   -0.0000    0.0000 C   0  0  0  0  0  0  0  0  0  0  0  0
    2.1434   -0.4125    0.0000 C   0  0  0  0  0  0  0  0  0  0  0  0
    0.7145   -0.4125    0.0000 C   0  0  0  0  0  0  0  0  0  0  0  0
    0.0000   -0.0000    0.0000 C   0  0  0  0  0  0  0  0  0  0  0  0
    0.0000    0.8250    0.0000 C   0  0  0  0  0  0  0  0  0  0  0  0
    0.7145    1.2375    0.0000 C   0  0  0  0  0  0  0  0  0  0  0  0
    0.3272    1.9659    0.0000 C   0  0  0  0  0  0  0  0  0  0  0  0
    1.1018    1.9659    0.0000 C   0  0  0  0  0  0  0  0  0  0  0  0
    2.8579    2.4750    0.0000 C   0  0  0  0  0  0  0  0  0  0  0  0
    2.8579    3.3000    0.0000 C   0  0  0  0  0  0  0  0  0  0  0  0
    3.5724    2.0625    0.0000 O   0  0  0  0  0  0  0  0  0  0  0  0
  1  2  1  0  0  0  0
  2  3  2  0  0  0  0
  3  4  1  4  0  0  0
  4  5  1  0  0  0  0
  5  6  1  0  0  0  0
  5  7  2  0  0  0  0
  7  8  1  0  0  0  0
  8  9  1  0  0  0  0
  9 10  1  0  0  0  0
  4 10  1  0  0  0  0
 10 11  1  0  0  0  0
 10 12  1  0  0  0  0
  2 13  1  0  0  0  0
 13 14  1  0  0  0  0
 13 15  2  0  0  0  0
M  END
> <ChemID>
10425

> <CAS>
127-51-5

> <Original_SMILES>
CC(=CC1C(C)=CCCC1(C)C)C(C)=O

> <preferred_name>
alpha-Isomethylionone

> <dsstox_substance_id>
DTXSID7027047

> <dsstox_compound_id>
DTXCID00809691

> <Canonical_QSARr>
CC(=CC1C(C)=CCCC1(C)C)C(C)=O

> <InChI_Code_QSARr>
InChI=1S/C14H22O/c1-10-7-6-8-14(4,5)13(10)9-11(2)12(3)15/h7,9,13H,6,8H2,1-5H3

> <InChI Key_QSARr>
JRJBVWJSTHECJK-UHFFFAOYSA-N

> <Salt_Solvent>


> <Salt_Solvent_ID>
0

> <Clint>
1.0334237554869496

> <Tr_1_Tst_0>
1

$$$$
Row383
  Mrv171c012261910192D          

 36 40  0  0  0  0            999 V2000
    8.4264   -1.3428    0.0000 C   0  0  0  0  0  0  0  0  0  0  0  0
    9.1408   -1.7553    0.0000 C   0  0  0  0  0  0  0  0  0  0  0  0
    9.1408   -2.5803    0.0000 N   0  0  0  0  0  0  0  0  0  0  0  0
    8.4734   -3.0652    0.0000 C   0  0  0  0  0  0  0  0  0  0  0  0
    8.7283   -3.8498    0.0000 C   0  0  0  0  0  0  0  0  0  0  0  0
    9.5533   -3.8498    0.0000 N   0  0  0  0  0  0  0  0  0  0  0  0
    9.8083   -3.0652    0.0000 C   0  0  0  0  0  0  0  0  0  0  0  0
    7.8133   -0.7907    0.0000 O   0  0  0  0  0  0  0  0  0  0  0  0
    7.0988   -1.2032    0.0000 C   0  0  0  0  0  0  0  0  0  0  0  0
    7.2703   -2.0102    0.0000 C   0  0  0  0  0  0  0  0  0  0  0  0
    6.7183   -2.6233    0.0000 C   0  0  0  0  0  0  0  0  0  0  0  0
    5.9113   -2.4518    0.0000 O   0  0  0  0  0  0  0  0  0  0  0  0
    5.3593   -3.0649    0.0000 C   0  0  0  0  0  0  0  0  0  0  0  0
    4.5523   -2.8934    0.0000 C   0  0  0  0  0  0  0  0  0  0  0  0
    4.0003   -3.5064    0.0000 C   0  0  0  0  0  0  0  0  0  0  0  0
    4.2552   -4.2911    0.0000 C   0  0  0  0  0  0  0  0  0  0  0  0
    3.7032   -4.9042    0.0000 N   0  0  0  0  0  0  0  0  0  0  0  0
    2.8962   -4.7326    0.0000 C   0  0  0  0  0  0  0  0  0  0  0  0
    2.3442   -5.3457    0.0000 C   0  0  0  0  0  0  0  0  0  0  0  0
    2.5991   -6.1304    0.0000 N   0  0  0  0  0  0  0  0  0  0  0  0
    2.0471   -6.7434    0.0000 C   0  0  0  0  0  0  0  0  0  0  0  0
    2.3020   -7.5281    0.0000 C   0  0  0  0  0  0  0  0  0  0  0  0
    1.2401   -6.5719    0.0000 O   0  0  0  0  0  0  0  0  0  0  0  0
    3.4061   -6.3019    0.0000 C   0  0  0  0  0  0  0  0  0  0  0  0
    3.9581   -5.6888    0.0000 C   0  0  0  0  0  0  0  0  0  0  0  0
    5.0622   -4.4626    0.0000 C   0  0  0  0  0  0  0  0  0  0  0  0
    5.6142   -3.8495    0.0000 C   0  0  0  0  0  0  0  0  0  0  0  0
    8.0908   -2.0965    0.0000 O   0  0  0  0  0  0  0  0  0  0  0  0
    8.9113   -0.6753    0.0000 C   0  0  0  0  0  0  0  0  0  0  0  0
    9.7318   -0.7616    0.0000 C   0  0  0  0  0  0  0  0  0  0  0  0
   10.2167   -0.0941    0.0000 C   0  0  0  0  0  0  0  0  0  0  0  0
    9.8811    0.6595    0.0000 C   0  0  0  0  0  0  0  0  0  0  0  0
   10.3661    1.3270    0.0000 Cl  0  0  0  0  0  0  0  0  0  0  0  0
    9.0607    0.7458    0.0000 C   0  0  0  0  0  0  0  0  0  0  0  0
    8.5757    0.0783    0.0000 C   0  0  0  0  0  0  0  0  0  0  0  0
    7.7553    0.1646    0.0000 Cl  0  0  0  0  0  0  0  0  0  0  0  0
  1  2  1  0  0  0  0
  2  3  1  0  0  0  0
  4  3  1  0  0  0  0
  5  4  2  0  0  0  0
  6  5  1  0  0  0  0
  7  6  2  0  0  0  0
  3  7  1  0  0  0  0
  8  1  1  0  0  0  0
  9  8  1  0  0  0  0
 10  9  1  0  0  0  0
 10 11  1  0  0  0  0
 11 12  1  0  0  0  0
 12 13  1  0  0  0  0
 14 13  1  0  0  0  0
 15 14  2  0  0  0  0
 16 15  1  0  0  0  0
 16 17  1  0  0  0  0
 18 17  1  0  0  0  0
 19 18  1  0  0  0  0
 20 19  1  0  0  0  0
 20 21  1  0  0  0  0
 21 22  1  0  0  0  0
 21 23  2  0  0  0  0
 24 20  1  0  0  0  0
 25 24  1  0  0  0  0
 17 25  1  0  0  0  0
 26 16  2  0  0  0  0
 27 26  1  0  0  0  0
 13 27  2  0  0  0  0
 28 10  1  0  0  0  0
  1 28  1  0  0  0  0
  1 29  1  0  0  0  0
 30 29  2  0  0  0  0
 31 30  1  0  0  0  0
 32 31  2  0  0  0  0
 32 33  1  0  0  0  0
 34 32  1  0  0  0  0
 35 34  2  0  0  0  0
 29 35  1  0  0  0  0
 35 36  1  0  0  0  0
M  END
> <ChemID>
10426

> <CAS>
65277-42-1

> <Original_SMILES>
CC(=O)N1CCN(CC1)c1ccc(cc1)OC[C@H]1CO[C@@](C[n]2c[n]cc2)(O1)c1ccc(Cl)cc1Cl

> <preferred_name>
Ketoconazole

> <dsstox_substance_id>
DTXSID7029879

> <dsstox_compound_id>
DTXCID209879

> <Canonical_QSARr>
CC(=O)N1CCN(CC1)C1C=CC(=CC=1)OCC1COC(CN2C=NC=C2)(O1)C1=CC=C(Cl)C=C1Cl

> <InChI_Code_QSARr>
InChI=1S/C26H28Cl2N4O4/c1-19(33)31-10-12-32(13-11-31)21-3-5-22(6-4-21)34-15-23-16-35-26(36-23,17-30-9-8-29-18-30)24-7-2-20(27)14-25(24)28/h2-9,14,18,23H,10-13,15-17H2,1H3

> <InChI Key_QSARr>
XMAYWYJOQHXEEK-UHFFFAOYSA-N

> <Salt_Solvent>


> <Salt_Solvent_ID>
0

> <Clint>
1.7403626894942439

> <Tr_1_Tst_0>
1

$$$$
Row346
  Mrv171c012261910192D          

 19 19  0  0  0  0            999 V2000
    3.2584   -2.6885    0.0000 C   0  0  0  0  0  0  0  0  0  0  0  0
    3.2584   -1.8635    0.0000 C   0  0  0  0  0  0  0  0  0  0  0  0
    2.5440   -1.4510    0.0000 C   0  0  0  0  0  0  0  0  0  0  0  0
    2.5440   -0.6260    0.0000 N   0  0  0  0  0  0  0  0  0  0  0  0
    1.8295   -0.2135    0.0000 C   0  0  0  0  0  0  0  0  0  0  0  0
    1.8295    0.6115    0.0000 C   0  0  0  0  0  0  0  0  0  0  0  0
    1.1150    1.0240    0.0000 C   0  0  0  0  0  0  0  0  0  0  0  0
    2.5440    1.0240    0.0000 C   0  0  0  0  0  0  0  0  0  0  0  0
    1.1150   -0.6260    0.0000 O   0  0  0  0  0  0  0  0  0  0  0  0
    1.8295   -1.8635    0.0000 C   0  0  0  0  0  0  0  0  0  0  0  0
    1.8295   -2.6885    0.0000 C   0  0  0  0  0  0  0  0  0  0  0  0
    2.5440   -3.1010    0.0000 C   0  0  0  0  0  0  0  0  0  0  0  0
    2.5440   -3.9260    0.0000 N   0  3  0  0  0  0  0  0  0  0  0  0
    3.2584   -4.3385    0.0000 O   0  0  0  0  0  0  0  0  0  0  0  0
    1.8295   -4.3385    0.0000 O   0  5  0  0  0  0  0  0  0  0  0  0
    3.9729   -3.1010    0.0000 C   0  0  0  0  0  0  0  0  0  0  0  0
    4.6874   -3.5135    0.0000 F   0  0  0  0  0  0  0  0  0  0  0  0
    3.5604   -3.8155    0.0000 F   0  0  0  0  0  0  0  0  0  0  0  0
    4.3854   -2.3866    0.0000 F   0  0  0  0  0  0  0  0  0  0  0  0
  2  1  1  0  0  0  0
  3  2  2  0  0  0  0
  3  4  1  0  0  0  0
  4  5  1  0  0  0  0
  5  6  1  0  0  0  0
  6  7  1  0  0  0  0
  6  8  1  0  0  0  0
  5  9  2  0  0  0  0
 10  3  1  0  0  0  0
 11 10  2  0  0  0  0
 12 11  1  0  0  0  0
  1 12  2  0  0  0  0
 12 13  1  0  0  0  0
 13 14  2  0  0  0  0
 13 15  1  0  0  0  0
  1 16  1  0  0  0  0
 16 17  1  0  0  0  0
 16 18  1  0  0  0  0
 16 19  1  0  0  0  0
M  CHG  2  13   1  15  -1
M  END
> <ChemID>
10427

> <CAS>
13311-84-7

> <Original_SMILES>
CC(C)C(=O)Nc1cc(c(cc1)[N+]([O-])=O)C(F)(F)F

> <preferred_name>
Flutamide

> <dsstox_substance_id>
DTXSID7032004

> <dsstox_compound_id>
DTXCID9011121

> <Canonical_QSARr>
CC(C)C(=O)NC1=CC(=C(C=C1)[N+]([O-])=O)C(F)(F)F

> <InChI_Code_QSARr>
InChI=1S/C11H11F3N2O3/c1-6(2)10(17)15-7-3-4-9(16(18)19)8(5-7)11(12,13)14/h3-6H,1-2H3,(H,15,17)

> <InChI Key_QSARr>
MKXKFYHWDHIYRV-UHFFFAOYSA-N

> <Salt_Solvent>


> <Salt_Solvent_ID>
0

> <Clint>
1.4825877695267673

> <Tr_1_Tst_0>
1

$$$$
Row323
  Mrv171c012261910192D          

 22 23  0  0  0  0            999 V2000
    7.8355   -1.9483    0.0000 C   0  0  0  0  0  0  0  0  0  0  0  0
    7.1210   -1.5358    0.0000 N   0  0  0  0  0  0  0  0  0  0  0  0
    6.4065   -1.9483    0.0000 C   0  0  0  0  0  0  0  0  0  0  0  0
    5.6920   -1.5358    0.0000 C   0  0  0  0  0  0  0  0  0  0  0  0
    4.9776   -1.9483    0.0000 O   0  0  0  0  0  0  0  0  0  0  0  0
    4.2631   -1.5358    0.0000 C   0  0  0  0  0  0  0  0  0  0  0  0
    4.2631   -0.7108    0.0000 C   0  0  0  0  0  0  0  0  0  0  0  0
    3.5486   -0.2983    0.0000 C   0  0  0  0  0  0  0  0  0  0  0  0
    2.8342   -0.7108    0.0000 C   0  0  0  0  0  0  0  0  0  0  0  0
    2.1197   -0.2983    0.0000 O   0  0  0  0  0  0  0  0  0  0  0  0
    1.4052   -0.7108    0.0000 C   0  0  0  0  0  0  0  0  0  0  0  0
    0.6907   -0.2983    0.0000 C   0  0  0  0  0  0  0  0  0  0  0  0
   -0.0237   -0.7108    0.0000 C   0  0  0  0  0  0  0  0  0  0  0  0
   -0.0237   -1.5358    0.0000 C   0  0  0  0  0  0  0  0  0  0  0  0
    0.6907   -1.9483    0.0000 C   0  0  0  0  0  0  0  0  0  0  0  0
    1.4052   -1.5358    0.0000 C   0  0  0  0  0  0  0  0  0  0  0  0
    2.8342   -1.5358    0.0000 C   0  0  0  0  0  0  0  0  0  0  0  0
    3.5486   -1.9483    0.0000 C   0  0  0  0  0  0  0  0  0  0  0  0
    8.5499   -1.5358    0.0000 O   0  0  0  0  0  0  0  0  0  0  0  0
    9.2644   -1.9483    0.0000 C   0  0  0  0  0  0  0  0  0  0  0  0
    9.9789   -1.5358    0.0000 C   0  0  0  0  0  0  0  0  0  0  0  0
    7.8355   -2.7733    0.0000 O   0  0  0  0  0  0  0  0  0  0  0  0
  1  2  1  0  0  0  0
  2  3  1  0  0  0  0
  3  4  1  0  0  0  0
  4  5  1  0  0  0  0
  5  6  1  0  0  0  0
  7  6  1  0  0  0  0
  8  7  2  0  0  0  0
  9  8  1  0  0  0  0
  9 10  1  0  0  0  0
 10 11  1  0  0  0  0
 12 11  1  0  0  0  0
 13 12  2  0  0  0  0
 14 13  1  0  0  0  0
 15 14  2  0  0  0  0
 16 15  1  0  0  0  0
 11 16  2  0  0  0  0
 17  9  2  0  0  0  0
 18 17  1  0  0  0  0
  6 18  2  0  0  0  0
  1 19  1  0  0  0  0
 19 20  1  0  0  0  0
 20 21  1  0  0  0  0
  1 22  2  0  0  0  0
M  END
> <ChemID>
10428

> <CAS>
72490-01-8

> <Original_SMILES>
CCOC(=O)NCCOc1ccc(cc1)Oc1ccccc1

> <preferred_name>
Fenoxycarb

> <dsstox_substance_id>
DTXSID7032393

> <dsstox_compound_id>
DTXCID5012393

> <Canonical_QSARr>
CCOC(=O)NCCOC1C=CC(=CC=1)OC1C=CC=CC=1

> <InChI_Code_QSARr>
InChI=1S/C17H19NO4/c1-2-20-17(19)18-12-13-21-14-8-10-16(11-9-14)22-15-6-4-3-5-7-15/h3-11H,2,12-13H2,1H3,(H,18,19)

> <InChI Key_QSARr>
HJUFTIJOISQSKQ-UHFFFAOYSA-N

> <Salt_Solvent>


> <Salt_Solvent_ID>
0

> <Clint>
1.3636119798921442

> <Tr_1_Tst_0>
1

$$$$
Row438
  Mrv171c012261910192D          

 23 24  0  0  0  0            999 V2000
    3.3300   -3.8695    0.0000 C   0  0  0  0  0  0  0  0  0  0  0  0
    2.6155   -4.2820    0.0000 O   0  0  0  0  0  0  0  0  0  0  0  0
    4.0445   -4.2820    0.0000 C   0  0  0  0  0  0  0  0  0  0  0  0
    4.7589   -3.8695    0.0000 C   0  0  0  0  0  0  0  0  0  0  0  0
    4.7589   -3.0445    0.0000 C   0  0  0  0  0  0  0  0  0  0  0  0
    4.0445   -2.6320    0.0000 C   0  0  0  0  0  0  0  0  0  0  0  0
    4.0445   -1.8070    0.0000 O   0  0  0  0  0  0  0  0  0  0  0  0
    3.3300   -3.0445    0.0000 C   0  0  0  0  0  0  0  0  0  0  0  0
    2.6155   -2.6320    0.0000 C   0  0  0  0  0  0  0  0  0  0  0  0
    2.6155   -1.8070    0.0000 C   0  0  0  0  0  0  0  0  0  0  0  0
    3.3300   -1.3945    0.0000 C   0  0  0  0  0  0  0  0  0  0  0  0
    3.3300   -0.5695    0.0000 C   0  0  0  0  0  0  0  0  0  0  0  0
    2.6155   -0.1570    0.0000 C   0  0  0  0  0  0  0  0  0  0  0  0
    2.6155    0.6680    0.0000 S   0  0  0  0  0  0  0  0  0  0  0  0
    2.6155    1.4930    0.0000 C   0  0  0  0  0  0  0  0  0  0  0  0
    3.4405    0.6680    0.0000 O   0  0  0  0  0  0  0  0  0  0  0  0
    1.7905    0.6680    0.0000 O   0  0  0  0  0  0  0  0  0  0  0  0
    1.9011   -0.5695    0.0000 C   0  0  0  0  0  0  0  0  0  0  0  0
    1.9011   -1.3945    0.0000 C   0  0  0  0  0  0  0  0  0  0  0  0
    1.1866   -1.8070    0.0000 N   0  3  0  0  0  0  0  0  0  0  0  0
    1.1866   -2.6320    0.0000 O   0  0  0  0  0  0  0  0  0  0  0  0
    0.4721   -1.3945    0.0000 O   0  5  0  0  0  0  0  0  0  0  0  0
    1.9011   -3.0445    0.0000 O   0  0  0  0  0  0  0  0  0  0  0  0
  1  2  2  0  0  0  0
  3  1  1  0  0  0  0
  4  3  1  0  0  0  0
  5  4  1  0  0  0  0
  6  5  1  0  0  0  0
  6  7  2  0  0  0  0
  8  6  1  0  0  0  0
  1  8  1  0  0  0  0
  8  9  1  0  0  0  0
  9 10  1  0  0  0  0
 11 10  1  0  0  0  0
 12 11  2  0  0  0  0
 13 12  1  0  0  0  0
 13 14  1  0  0  0  0
 14 15  1  0  0  0  0
 14 16  2  0  0  0  0
 14 17  2  0  0  0  0
 18 13  2  0  0  0  0
 19 18  1  0  0  0  0
 10 19  2  0  0  0  0
 19 20  1  0  0  0  0
 20 21  2  0  0  0  0
 20 22  1  0  0  0  0
  9 23  2  0  0  0  0
M  CHG  2  20   1  22  -1
M  END
> <ChemID>
10429

> <CAS>
104206-82-8

> <Original_SMILES>
CS(=O)(=O)c1cc(c(cc1)C(=O)C1C(=O)CCCC1=O)[N+]([O-])=O

> <preferred_name>
Mesotrione

> <dsstox_substance_id>
DTXSID7032424

> <dsstox_compound_id>
DTXCID5012424

> <Canonical_QSARr>
CS(=O)(=O)C1=CC(=C(C=C1)C(=O)C1C(=O)CCCC1=O)[N+]([O-])=O

> <InChI_Code_QSARr>
InChI=1S/C14H13NO7S/c1-23(21,22)8-5-6-9(10(7-8)15(19)20)14(18)13-11(16)3-2-4-12(13)17/h5-7,13H,2-4H2,1H3

> <InChI Key_QSARr>
KPUREKXXPHOJQT-UHFFFAOYSA-N

> <Salt_Solvent>


> <Salt_Solvent_ID>
0

> <Clint>
-0.4559319556497244

> <Tr_1_Tst_0>
0

$$$$
Row280
  Mrv171c012261910192D          

 17 16  0  0  0  0            999 V2000
    1.2375   -0.7145    0.0000 C   0  0  0  0  0  0  0  0  0  0  0  0
    0.8250    0.0000    0.0000 C   0  0  0  0  0  0  0  0  0  0  0  0
    0.0000    0.0000    0.0000 C   0  0  0  0  0  0  0  0  0  0  0  0
   -0.4125   -0.7145    0.0000 C   0  0  0  0  0  0  0  0  0  0  0  0
    0.0000   -1.4289    0.0000 O   0  0  0  0  0  0  0  0  0  0  0  0
   -1.2375   -0.7145    0.0000 O   0  0  0  0  0  0  0  0  0  0  0  0
   -1.6500   -1.4289    0.0000 C   0  0  0  0  0  0  0  0  0  0  0  0
   -2.4750   -1.4289    0.0000 C   0  0  0  0  0  0  0  0  0  0  0  0
   -1.2375   -2.1434    0.0000 C   0  0  0  0  0  0  0  0  0  0  0  0
    1.2375    0.7145    0.0000 O   0  0  0  0  0  0  0  0  0  0  0  0
    0.8250    1.4289    0.0000 P   0  0  0  0  0  0  0  0  0  0  0  0
    1.5395    1.8414    0.0000 S   0  0  0  0  0  0  0  0  0  0  0  0
    0.4125    2.1434    0.0000 N   0  0  0  0  0  0  0  0  0  0  0  0
    0.8250    2.8579    0.0000 C   0  0  0  0  0  0  0  0  0  0  0  0
    0.4125    3.5724    0.0000 C   0  0  0  0  0  0  0  0  0  0  0  0
    0.1105    1.0164    0.0000 O   0  0  0  0  0  0  0  0  0  0  0  0
   -0.6039    1.4289    0.0000 C   0  0  0  0  0  0  0  0  0  0  0  0
  1  2  1  0  0  0  0
  2  3  2  0  0  0  0
  3  4  1  4  0  0  0
  4  5  2  0  0  0  0
  4  6  1  0  0  0  0
  6  7  1  0  0  0  0
  7  8  1  0  0  0  0
  7  9  1  0  0  0  0
  2 10  1  0  0  0  0
 10 11  1  0  0  0  0
 11 12  2  0  0  0  0
 11 13  1  0  0  0  0
 13 14  1  0  0  0  0
 14 15  1  0  0  0  0
 11 16  1  0  0  0  0
 16 17  1  0  0  0  0
M  END
> <ChemID>
10430

> <CAS>
31218-83-4

> <Original_SMILES>
C/C(=C\C(=O)OC(C)C)/OP(=S)(NCC)OC

> <preferred_name>
Propetamphos

> <dsstox_substance_id>
DTXSID7032470

> <dsstox_compound_id>
DTXCID5012470

> <Canonical_QSARr>
CC(=CC(=O)OC(C)C)OP(=S)(NCC)OC

> <InChI_Code_QSARr>
InChI=1S/C10H20NO4PS/c1-6-11-16(17,13-5)15-9(4)7-10(12)14-8(2)3/h7-8H,6H2,1-5H3,(H,11,17)

> <InChI Key_QSARr>
BZNDWPRGXNILMS-UHFFFAOYSA-N

> <Salt_Solvent>


> <Salt_Solvent_ID>
0

> <Clint>
1.2105860249051563

> <Tr_1_Tst_0>
1

$$$$
Row522
  Mrv171c012261910192D          

 29 30  0  0  0  0            999 V2000
    3.8839   -2.9955    0.0000 N   0  0  0  0  0  0  0  0  0  0  0  0
    3.1694   -2.5830    0.0000 C   0  0  0  0  0  0  0  0  0  0  0  0
    3.1694   -1.7580    0.0000 N   0  0  0  0  0  0  0  0  0  0  0  0
    3.8839   -1.3455    0.0000 C   0  0  0  0  0  0  0  0  0  0  0  0
    4.5983   -1.7580    0.0000 C   0  0  0  0  0  0  0  0  0  0  0  0
    4.5983   -2.5830    0.0000 N   0  3  0  0  0  0  0  0  0  0  0  0
    5.3128   -2.9955    0.0000 O   0  0  0  0  0  0  0  0  0  0  0  0
    4.2628   -3.3367    0.0000 O   0  5  0  0  0  0  0  0  0  0  0  0
    5.3128   -1.3455    0.0000 C   0  0  0  0  0  0  0  0  0  0  0  0
    5.3128   -0.5205    0.0000 C   0  0  0  0  0  0  0  0  0  0  0  0
    6.0273   -0.1080    0.0000 C   0  0  0  0  0  0  0  0  0  0  0  0
    6.7417    0.3045    0.0000 F   0  0  0  0  0  0  0  0  0  0  0  0
    5.6148    0.6064    0.0000 F   0  0  0  0  0  0  0  0  0  0  0  0
    6.4398   -0.8225    0.0000 F   0  0  0  0  0  0  0  0  0  0  0  0
    4.5983   -0.1080    0.0000 C   0  0  0  0  0  0  0  0  0  0  0  0
    4.5983    0.7170    0.0000 Cl  0  0  0  0  0  0  0  0  0  0  0  0
    3.8839   -0.5205    0.0000 C   0  0  0  0  0  0  0  0  0  0  0  0
    3.1694   -0.1080    0.0000 N   0  3  0  0  0  0  0  0  0  0  0  0
    2.4549   -0.5205    0.0000 O   0  0  0  0  0  0  0  0  0  0  0  0
    3.1694    0.7170    0.0000 O   0  5  0  0  0  0  0  0  0  0  0  0
    2.4549   -2.9955    0.0000 C   0  0  0  0  0  0  0  0  0  0  0  0
    1.7404   -2.5830    0.0000 Cl  0  0  0  0  0  0  0  0  0  0  0  0
    2.4549   -3.8205    0.0000 C   0  0  0  0  0  0  0  0  0  0  0  0
    3.1694   -4.2330    0.0000 C   0  0  0  0  0  0  0  0  0  0  0  0
    3.1694   -5.0580    0.0000 C   0  0  0  0  0  0  0  0  0  0  0  0
    3.1694   -5.8830    0.0000 F   0  0  0  0  0  0  0  0  0  0  0  0
    2.3444   -5.0580    0.0000 F   0  0  0  0  0  0  0  0  0  0  0  0
    3.9944   -5.0580    0.0000 F   0  0  0  0  0  0  0  0  0  0  0  0
    3.8839   -3.8205    0.0000 C   0  0  0  0  0  0  0  0  0  0  0  0
  2  1  1  0  0  0  0
  2  3  1  0  0  0  0
  3  4  1  0  0  0  0
  5  4  1  0  0  0  0
  5  6  1  0  0  0  0
  6  7  2  0  0  0  0
  6  8  1  0  0  0  0
  9  5  2  0  0  0  0
 10  9  1  0  0  0  0
 10 11  1  0  0  0  0
 11 12  1  0  0  0  0
 11 13  1  0  0  0  0
 11 14  1  0  0  0  0
 15 10  2  0  0  0  0
 15 16  1  0  0  0  0
 17 15  1  0  0  0  0
  4 17  2  0  0  0  0
 17 18  1  0  0  0  0
 18 19  2  0  0  0  0
 18 20  1  0  0  0  0
 21  2  2  0  0  0  0
 21 22  1  0  0  0  0
 23 21  1  0  0  0  0
 24 23  2  0  0  0  0
 24 25  1  0  0  0  0
 25 26  1  0  0  0  0
 25 27  1  0  0  0  0
 25 28  1  0  0  0  0
 29 24  1  0  0  0  0
  1 29  2  0  0  0  0
M  CHG  4   6   1   8  -1  18   1  20  -1
M  END
> <ChemID>
10431

> <CAS>
79622-59-6

> <Original_SMILES>
[O-][N+](=O)c1cc(c(Cl)c(c1Nc1[n]cc(cc1Cl)C(F)(F)F)[N+]([O-])=O)C(F)(F)F

> <preferred_name>
Fluazinam

> <dsstox_substance_id>
DTXSID7032551

> <dsstox_compound_id>
DTXCID5012551

> <Canonical_QSARr>
[O-][N+](=O)C1=CC(=C(Cl)C(=C1NC1N=CC(=CC=1Cl)C(F)(F)F)[N+]([O-])=O)C(F)(F)F

> <InChI_Code_QSARr>
InChI=1S/C13H4Cl2F6N4O4/c14-6-1-4(12(16,17)18)3-22-11(6)23-9-7(24(26)27)2-5(13(19,20)21)8(15)10(9)25(28)29/h1-3H,(H,22,23)

> <InChI Key_QSARr>
UZCGKGPEKUCDTF-UHFFFAOYSA-N

> <Salt_Solvent>


> <Salt_Solvent_ID>
0

> <Clint>
1.3937506403480804

> <Tr_1_Tst_0>
0

$$$$
Row415
  Mrv171c012261910192D          

 28 29  0  0  0  0            999 V2000
    4.4211   -1.0214    0.0000 C   0  0  0  0  0  0  0  0  0  0  0  0
    3.7066   -1.4339    0.0000 C   0  0  0  0  0  0  0  0  0  0  0  0
    3.7066   -2.2589    0.0000 N   0  0  0  0  0  0  0  0  0  0  0  0
    4.4211   -2.6714    0.0000 C   0  0  0  0  0  0  0  0  0  0  0  0
    5.1356   -2.2589    0.0000 C   0  0  0  0  0  0  0  0  0  0  0  0
    2.9922   -2.6714    0.0000 C   0  0  0  0  0  0  0  0  0  0  0  0
    2.2777   -2.2589    0.0000 C   0  0  0  0  0  0  0  0  0  0  0  0
    2.2777   -1.4339    0.0000 N   0  3  0  0  0  0  0  0  0  0  0  0
    1.5632   -1.0214    0.0000 O   0  0  0  0  0  0  0  0  0  0  0  0
    2.9922   -1.0214    0.0000 O   0  5  0  0  0  0  0  0  0  0  0  0
    1.5632   -2.6714    0.0000 C   0  0  0  0  0  0  0  0  0  0  0  0
    1.5632   -3.4964    0.0000 C   0  0  0  0  0  0  0  0  0  0  0  0
    0.8488   -3.9089    0.0000 C   0  0  0  0  0  0  0  0  0  0  0  0
    0.1343   -4.3214    0.0000 F   0  0  0  0  0  0  0  0  0  0  0  0
    1.2613   -4.6234    0.0000 F   0  0  0  0  0  0  0  0  0  0  0  0
    0.4363   -3.1945    0.0000 F   0  0  0  0  0  0  0  0  0  0  0  0
    2.2777   -3.9089    0.0000 C   0  0  0  0  0  0  0  0  0  0  0  0
    2.9922   -3.4964    0.0000 C   0  0  0  0  0  0  0  0  0  0  0  0
    3.7066   -3.9089    0.0000 N   0  3  0  0  0  0  0  0  0  0  0  0
    4.4211   -3.4964    0.0000 O   0  0  0  0  0  0  0  0  0  0  0  0
    3.7066   -4.7339    0.0000 O   0  5  0  0  0  0  0  0  0  0  0  0
    4.4211   -0.1964    0.0000 C   0  0  0  0  0  0  0  0  0  0  0  0
    3.7066    0.2161    0.0000 Cl  0  0  0  0  0  0  0  0  0  0  0  0
    5.1356    0.2161    0.0000 C   0  0  0  0  0  0  0  0  0  0  0  0
    5.8501   -0.1964    0.0000 C   0  0  0  0  0  0  0  0  0  0  0  0
    5.8501   -1.0214    0.0000 C   0  0  0  0  0  0  0  0  0  0  0  0
    5.1356   -1.4339    0.0000 C   0  0  0  0  0  0  0  0  0  0  0  0
    5.6205   -2.1014    0.0000 F   0  0  0  0  0  0  0  0  0  0  0  0
  1  2  1  0  0  0  0
  2  3  1  0  0  0  0
  3  4  1  0  0  0  0
  4  5  1  0  0  0  0
  3  6  1  0  0  0  0
  7  6  1  0  0  0  0
  7  8  1  0  0  0  0
  8  9  2  0  0  0  0
  8 10  1  0  0  0  0
 11  7  2  0  0  0  0
 12 11  1  0  0  0  0
 12 13  1  0  0  0  0
 13 14  1  0  0  0  0
 13 15  1  0  0  0  0
 13 16  1  0  0  0  0
 17 12  2  0  0  0  0
 18 17  1  0  0  0  0
  6 18  2  0  0  0  0
 18 19  1  0  0  0  0
 19 20  2  0  0  0  0
 19 21  1  0  0  0  0
 22  1  2  0  0  0  0
 22 23  1  0  0  0  0
 24 22  1  0  0  0  0
 25 24  2  0  0  0  0
 26 25  1  0  0  0  0
 27 26  2  0  0  0  0
  1 27  1  0  0  0  0
 27 28  1  0  0  0  0
M  CHG  4   8   1  10  -1  19   1  21  -1
M  END
> <ChemID>
10432

> <CAS>
62924-70-3

> <Original_SMILES>
CCN(Cc1c(F)cccc1Cl)c1c(cc(cc1[N+]([O-])=O)C(F)(F)F)[N+]([O-])=O

> <preferred_name>
Flumetralin

> <dsstox_substance_id>
DTXSID7032553

> <dsstox_compound_id>
DTXCID5012553

> <Canonical_QSARr>
CCN(CC1C(F)=CC=CC=1Cl)C1C(=CC(=CC=1[N+]([O-])=O)C(F)(F)F)[N+]([O-])=O

> <InChI_Code_QSARr>
InChI=1S/C16H12ClF4N3O4/c1-2-22(8-10-11(17)4-3-5-12(10)18)15-13(23(25)26)6-9(16(19,20)21)7-14(15)24(27)28/h3-7H,2,8H2,1H3

> <InChI Key_QSARr>
PWNAWOCHVWERAR-UHFFFAOYSA-N

> <Salt_Solvent>


> <Salt_Solvent_ID>
0

> <Clint>
-7.0

> <Tr_1_Tst_0>
0

$$$$
Row218
  Mrv171c012261910192D          

 26 29  0  0  0  0            999 V2000
    3.5037   -4.9918    0.0000 F   0  0  0  0  0  0  0  0  0  0  0  0
    3.0912   -4.2773    0.0000 C   0  0  0  0  0  0  0  0  0  0  0  0
    2.2662   -4.2773    0.0000 C   0  0  0  0  0  0  0  0  0  0  0  0
    1.8537   -3.5629    0.0000 C   0  0  0  0  0  0  0  0  0  0  0  0
    1.0287   -3.5629    0.0000 O   0  0  0  0  0  0  0  0  0  0  0  0
    0.6162   -2.8484    0.0000 C   0  0  0  0  0  0  0  0  0  0  0  0
    1.0287   -2.1339    0.0000 C   0  0  0  0  0  0  0  0  0  0  0  0
    1.8537   -2.1339    0.0000 N   0  0  0  0  0  0  0  0  0  0  0  0
    2.2662   -1.4195    0.0000 C   0  0  0  0  0  0  0  0  0  0  0  0
    1.8537   -0.7050    0.0000 C   0  0  0  0  0  0  0  0  0  0  0  0
    1.4412    0.0095    0.0000 C   0  0  0  0  0  0  0  0  0  0  0  0
    2.2662   -2.8484    0.0000 C   0  0  0  0  0  0  0  0  0  0  0  0
    3.0912   -2.8484    0.0000 C   0  0  0  0  0  0  0  0  0  0  0  0
    3.5037   -3.5629    0.0000 C   0  0  0  0  0  0  0  0  0  0  0  0
    4.3287   -3.5629    0.0000 N   0  0  0  0  0  0  0  0  0  0  0  0
    4.8136   -2.8954    0.0000 C   0  0  0  0  0  0  0  0  0  0  0  0
    4.5587   -2.1108    0.0000 O   0  0  0  0  0  0  0  0  0  0  0  0
    5.5982   -3.1504    0.0000 C   0  0  0  0  0  0  0  0  0  0  0  0
    6.3127   -2.7379    0.0000 C   0  0  0  0  0  0  0  0  0  0  0  0
    7.0272   -3.1504    0.0000 C   0  0  0  0  0  0  0  0  0  0  0  0
    7.0272   -3.9754    0.0000 C   0  0  0  0  0  0  0  0  0  0  0  0
    6.3127   -4.3879    0.0000 C   0  0  0  0  0  0  0  0  0  0  0  0
    5.5982   -3.9754    0.0000 C   0  0  0  0  0  0  0  0  0  0  0  0
    4.8136   -4.2303    0.0000 C   0  0  0  0  0  0  0  0  0  0  0  0
    4.5587   -5.0149    0.0000 O   0  0  0  0  0  0  0  0  0  0  0  0
    0.6162   -1.4195    0.0000 O   0  0  0  0  0  0  0  0  0  0  0  0
  1  2  1  0  0  0  0
  3  2  2  0  0  0  0
  4  3  1  0  0  0  0
  4  5  1  0  0  0  0
  5  6  1  0  0  0  0
  6  7  1  0  0  0  0
  7  8  1  0  0  0  0
  8  9  1  0  0  0  0
  9 10  1  0  0  0  0
 10 11  3  0  0  0  0
  8 12  1  0  0  0  0
 12  4  2  0  0  0  0
 13 12  1  0  0  0  0
 14 13  2  0  0  0  0
  2 14  1  0  0  0  0
 14 15  1  0  0  0  0
 16 15  1  0  0  0  0
 16 17  2  0  0  0  0
 18 16  1  0  0  0  0
 18 19  1  0  0  0  0
 19 20  1  0  0  0  0
 20 21  1  0  0  0  0
 21 22  1  0  0  0  0
 22 23  1  0  0  0  0
 23 18  2  0  0  0  0
 24 23  1  0  0  0  0
 15 24  1  0  0  0  0
 24 25  2  0  0  0  0
  7 26  2  0  0  0  0
M  END
> <ChemID>
10433

> <CAS>
103361-09-7

> <Original_SMILES>
C#CCN1c2cc(c(F)cc2OCC1=O)N1C(=O)C2CCCCC=2C1=O

> <preferred_name>
Flumioxazin

> <dsstox_substance_id>
DTXSID7032555

> <dsstox_compound_id>
DTXCID5012555

> <Canonical_QSARr>
C#CCN1C2C=C(C(F)=CC=2OCC1=O)N1C(=O)C2CCCCC=2C1=O

> <InChI_Code_QSARr>
InChI=1S/C19H15FN2O4/c1-2-7-21-15-9-14(13(20)8-16(15)26-10-17(21)23)22-18(24)11-5-3-4-6-12(11)19(22)25/h1,8-9H,3-7,10H2

> <InChI Key_QSARr>
FOUWCSDKDDHKQP-UHFFFAOYSA-N

> <Salt_Solvent>


> <Salt_Solvent_ID>
0

> <Clint>
0.9211660506377387

> <Tr_1_Tst_0>
1

$$$$
Row539
  Mrv171c012261910192D          

 27 29  0  0  0  0            999 V2000
    6.4862   -2.9101    0.0000 C   0  0  0  0  0  0  0  0  0  0  0  0
    5.7718   -3.3226    0.0000 O   0  0  0  0  0  0  0  0  0  0  0  0
    5.7718   -4.1476    0.0000 N   0  0  0  0  0  0  0  0  0  0  0  0
    6.4862   -4.5601    0.0000 C   0  0  0  0  0  0  0  0  0  0  0  0
    7.2007   -4.1476    0.0000 O   0  0  0  0  0  0  0  0  0  0  0  0
    7.9152   -4.5601    0.0000 C   0  0  0  0  0  0  0  0  0  0  0  0
    6.4862   -5.3851    0.0000 O   0  0  0  0  0  0  0  0  0  0  0  0
    5.0573   -4.5601    0.0000 C   0  0  0  0  0  0  0  0  0  0  0  0
    4.3428   -4.1476    0.0000 C   0  0  0  0  0  0  0  0  0  0  0  0
    4.3428   -3.3226    0.0000 C   0  0  0  0  0  0  0  0  0  0  0  0
    3.6284   -2.9101    0.0000 O   0  0  0  0  0  0  0  0  0  0  0  0
    3.6284   -2.0851    0.0000 C   0  0  0  0  0  0  0  0  0  0  0  0
    4.2958   -1.6002    0.0000 C   0  0  0  0  0  0  0  0  0  0  0  0
    4.0409   -0.8155    0.0000 C   0  0  0  0  0  0  0  0  0  0  0  0
    3.2159   -0.8155    0.0000 N   0  0  0  0  0  0  0  0  0  0  0  0
    2.7309   -0.1481    0.0000 C   0  0  0  0  0  0  0  0  0  0  0  0
    3.0665    0.6056    0.0000 C   0  0  0  0  0  0  0  0  0  0  0  0
    2.5816    1.2730    0.0000 C   0  0  0  0  0  0  0  0  0  0  0  0
    1.7611    1.1868    0.0000 C   0  0  0  0  0  0  0  0  0  0  0  0
    1.2762    1.8542    0.0000 Cl  0  0  0  0  0  0  0  0  0  0  0  0
    1.4255    0.4331    0.0000 C   0  0  0  0  0  0  0  0  0  0  0  0
    1.9105   -0.2343    0.0000 C   0  0  0  0  0  0  0  0  0  0  0  0
    2.9609   -1.6002    0.0000 N   0  0  0  0  0  0  0  0  0  0  0  0
    3.6284   -4.5601    0.0000 C   0  0  0  0  0  0  0  0  0  0  0  0
    3.6284   -5.3851    0.0000 C   0  0  0  0  0  0  0  0  0  0  0  0
    4.3428   -5.7976    0.0000 C   0  0  0  0  0  0  0  0  0  0  0  0
    5.0573   -5.3851    0.0000 C   0  0  0  0  0  0  0  0  0  0  0  0
  1  2  1  0  0  0  0
  2  3  1  0  0  0  0
  3  4  1  0  0  0  0
  4  5  1  0  0  0  0
  5  6  1  0  0  0  0
  4  7  2  0  0  0  0
  3  8  1  0  0  0  0
  9  8  2  0  0  0  0
  9 10  1  0  0  0  0
 10 11  1  0  0  0  0
 11 12  1  0  0  0  0
 13 12  1  0  0  0  0
 14 13  2  0  0  0  0
 15 14  1  0  0  0  0
 15 16  1  0  0  0  0
 17 16  2  0  0  0  0
 18 17  1  0  0  0  0
 19 18  2  0  0  0  0
 19 20  1  0  0  0  0
 21 19  1  0  0  0  0
 22 21  2  0  0  0  0
 16 22  1  0  0  0  0
 23 15  1  0  0  0  0
 12 23  2  0  0  0  0
 24  9  1  0  0  0  0
 25 24  2  0  0  0  0
 26 25  1  0  0  0  0
 27 26  2  0  0  0  0
  8 27  1  0  0  0  0
M  END
> <ChemID>
10434

> <CAS>
175013-18-0

> <Original_SMILES>
CON(C(=O)OC)c1ccccc1COc1cc[n]([n]1)-c1ccc(Cl)cc1

> <preferred_name>
Pyraclostrobin

> <dsstox_substance_id>
DTXSID7032638

> <dsstox_compound_id>
DTXCID5012638

> <Canonical_QSARr>
CON(C(=O)OC)C1C=CC=CC=1COC1C=CN(N=1)C1C=CC(Cl)=CC=1

> <InChI_Code_QSARr>
InChI=1S/C19H18ClN3O4/c1-25-19(24)23(26-2)17-6-4-3-5-14(17)13-27-18-11-12-22(21-18)16-9-7-15(20)8-10-16/h3-12H,13H2,1-2H3

> <InChI Key_QSARr>
HZRSNVGNWUDEFX-UHFFFAOYSA-N

> <Salt_Solvent>


> <Salt_Solvent_ID>
0

> <Clint>
1.7318304202881623

> <Tr_1_Tst_0>
0

$$$$
Row464
  Mrv171c012261910192D          

 23 24  0  0  0  0            999 V2000
   -0.7145   -0.4125    0.0000 C   0  0  0  0  0  0  0  0  0  0  0  0
    0.0000    0.0000    0.0000 C   0  0  0  0  0  0  0  0  0  0  0  0
    0.7145   -0.4125    0.0000 C   0  0  0  0  0  0  0  0  0  0  0  0
    1.4289   -0.0000    0.0000 N   0  0  0  0  0  0  0  0  0  0  0  0
    1.4289    0.8250    0.0000 O   0  0  0  0  0  0  0  0  0  0  0  0
    2.1434    1.2375    0.0000 C   0  0  0  0  0  0  0  0  0  0  0  0
    2.1434    2.0625    0.0000 C   0  0  0  0  0  0  0  0  0  0  0  0
    2.8579    2.4750    0.0000 C   0  0  0  0  0  0  0  0  0  0  0  0
    2.8579    3.3000    0.0000 Cl  0  0  0  0  0  0  0  0  0  0  0  0
    0.7145   -1.2375    0.0000 C   0  0  0  0  0  0  0  0  0  0  0  0
    1.4289   -1.6500    0.0000 C   0  0  0  0  0  0  0  0  0  0  0  0
    2.1434   -1.2375    0.0000 O   0  0  0  0  0  0  0  0  0  0  0  0
    1.4289   -2.4750    0.0000 C   0  0  0  0  0  0  0  0  0  0  0  0
    0.7145   -2.8875    0.0000 C   0  0  0  0  0  0  0  0  0  0  0  0
    0.0000   -2.4750    0.0000 C   0  0  0  0  0  0  0  0  0  0  0  0
    0.0000   -1.6500    0.0000 C   0  0  0  0  0  0  0  0  0  0  0  0
   -0.7145   -1.2375    0.0000 O   0  0  0  0  0  0  0  0  0  0  0  0
    0.7145   -3.7125    0.0000 C   0  0  0  0  0  0  0  0  0  0  0  0
    1.4289   -4.1250    0.0000 C   0  0  0  0  0  0  0  0  0  0  0  0
    1.4289   -4.9500    0.0000 C   0  0  0  0  0  0  0  0  0  0  0  0
    0.7145   -5.3625    0.0000 O   0  0  0  0  0  0  0  0  0  0  0  0
   -0.0000   -4.9500    0.0000 C   0  0  0  0  0  0  0  0  0  0  0  0
    0.0000   -4.1250    0.0000 C   0  0  0  0  0  0  0  0  0  0  0  0
  1  2  1  0  0  0  0
  2  3  1  0  0  0  0
  3  4  2  0  0  0  0
  4  5  1  4  0  0  0
  5  6  1  0  0  0  0
  6  7  1  0  0  0  0
  7  8  2  0  0  0  0
  8  9  1  4  0  0  0
  3 10  1  0  0  0  0
 10 11  1  0  0  0  0
 11 12  2  0  0  0  0
 11 13  1  0  0  0  0
 13 14  1  0  0  0  0
 14 15  1  0  0  0  0
 15 16  1  0  0  0  0
 10 16  1  0  0  0  0
 16 17  2  0  0  0  0
 14 18  1  0  0  0  0
 18 19  1  0  0  0  0
 19 20  1  0  0  0  0
 20 21  1  0  0  0  0
 21 22  1  0  0  0  0
 22 23  1  0  0  0  0
 18 23  1  0  0  0  0
M  END
> <ChemID>
10435

> <CAS>
149979-41-9

> <Original_SMILES>
CCC(=NOC/C=C/Cl)C1=C(O)CC(CC1=O)C1CCOCC1

> <preferred_name>
Tepraloxydim

> <dsstox_substance_id>
DTXSID7034252

> <dsstox_compound_id>
DTXCID50196609

> <Canonical_QSARr>
CCC(=NOCC=CCl)C1C(=O)CC(CC1=O)C1CCOCC1

> <InChI_Code_QSARr>
InChI=1S/C17H24ClNO4/c1-2-14(19-23-7-3-6-18)17-15(20)10-13(11-16(17)21)12-4-8-22-9-5-12/h3,6,12-13,17H,2,4-5,7-11H2,1H3

> <InChI Key_QSARr>
LHTJZXMWYGUVJS-UHFFFAOYSA-N

> <Salt_Solvent>


> <Salt_Solvent_ID>
0

> <Clint>
0.5250448070368452

> <Tr_1_Tst_0>
0

$$$$
Row307
  Mrv171c012261910192D          

 27 29  0  0  0  0            999 V2000
   -1.4289    0.0000    0.0000 C   0  0  0  0  0  0  0  0  0  0  0  0
   -0.7145   -0.4125    0.0000 O   0  0  0  0  0  0  0  0  0  0  0  0
   -0.7145   -1.2375    0.0000 C   0  0  0  0  0  0  0  0  0  0  0  0
    0.0000   -1.6500    0.0000 C   0  0  0  0  0  0  0  0  0  0  0  0
    0.0000   -2.4750    0.0000 C   0  0  0  0  0  0  0  0  0  0  0  0
   -0.7145   -2.8875    0.0000 C   0  0  0  0  0  0  0  0  0  0  0  0
   -1.4289   -2.4750    0.0000 C   0  0  0  0  0  0  0  0  0  0  0  0
   -1.4289   -1.6500    0.0000 C   0  0  0  0  0  0  0  0  0  0  0  0
   -2.1434   -1.2375    0.0000 O   0  0  0  0  0  0  0  0  0  0  0  0
   -2.1434   -0.4125    0.0000 C   0  0  0  0  0  0  0  0  0  0  0  0
    0.7145   -2.8875    0.0000 C   0  0  0  0  0  0  0  0  0  0  0  0
    0.7145   -3.7125    0.0000 C   0  0  0  0  0  0  0  0  0  0  0  0
    1.4289   -4.1250    0.0000 C   0  0  0  0  0  0  0  0  0  0  0  0
    2.1434   -3.7125    0.0000 O   0  0  0  0  0  0  0  0  0  0  0  0
    1.4289   -4.9500    0.0000 N   0  0  0  0  0  0  0  0  0  0  0  0
    2.1434   -5.3625    0.0000 C   0  0  0  0  0  0  0  0  0  0  0  0
    2.1434   -6.1875    0.0000 C   0  0  0  0  0  0  0  0  0  0  0  0
    1.4289   -6.6000    0.0000 O   0  0  0  0  0  0  0  0  0  0  0  0
    0.7145   -6.1875    0.0000 C   0  0  0  0  0  0  0  0  0  0  0  0
    0.7145   -5.3625    0.0000 C   0  0  0  0  0  0  0  0  0  0  0  0
    1.4289   -2.4750    0.0000 C   0  0  0  0  0  0  0  0  0  0  0  0
    1.4289   -1.6500    0.0000 C   0  0  0  0  0  0  0  0  0  0  0  0
    2.1434   -1.2375    0.0000 C   0  0  0  0  0  0  0  0  0  0  0  0
    2.8579   -1.6500    0.0000 C   0  0  0  0  0  0  0  0  0  0  0  0
    3.5724   -1.2375    0.0000 Cl  0  0  0  0  0  0  0  0  0  0  0  0
    2.8579   -2.4750    0.0000 C   0  0  0  0  0  0  0  0  0  0  0  0
    2.1434   -2.8875    0.0000 C   0  0  0  0  0  0  0  0  0  0  0  0
  1  2  1  0  0  0  0
  2  3  1  0  0  0  0
  3  4  1  0  0  0  0
  4  5  2  0  0  0  0
  5  6  1  0  0  0  0
  6  7  2  0  0  0  0
  7  8  1  0  0  0  0
  3  8  2  0  0  0  0
  8  9  1  0  0  0  0
  9 10  1  0  0  0  0
  5 11  1  0  0  0  0
 11 12  2  0  0  0  0
 12 13  1  4  0  0  0
 13 14  2  0  0  0  0
 13 15  1  0  0  0  0
 15 16  1  0  0  0  0
 16 17  1  0  0  0  0
 17 18  1  0  0  0  0
 18 19  1  0  0  0  0
 19 20  1  0  0  0  0
 15 20  1  0  0  0  0
 11 21  1  0  0  0  0
 21 22  1  0  0  0  0
 22 23  2  0  0  0  0
 23 24  1  0  0  0  0
 24 25  1  0  0  0  0
 24 26  2  0  0  0  0
 26 27  1  0  0  0  0
 21 27  2  0  0  0  0
M  END
> <ChemID>
10436

> <CAS>
110488-70-5

> <Original_SMILES>
COc1ccc(cc1OC)C(=CC(=O)N1CCOCC1)c1ccc(Cl)cc1

> <preferred_name>
Dimethomorph

> <dsstox_substance_id>
DTXSID7034545

> <dsstox_compound_id>
DTXCID5014545

> <Canonical_QSARr>
COC1C=C(C=CC=1OC)C(=CC(=O)N1CCOCC1)C1C=CC(Cl)=CC=1

> <InChI_Code_QSARr>
InChI=1S/C21H22ClNO4/c1-25-19-8-5-16(13-20(19)26-2)18(15-3-6-17(22)7-4-15)14-21(24)23-9-11-27-12-10-23/h3-8,13-14H,9-12H2,1-2H3

> <InChI Key_QSARr>
QNBTYORWCCMPQP-UHFFFAOYSA-N

> <Salt_Solvent>


> <Salt_Solvent_ID>
0

> <Clint>
1.3074960379132128

> <Tr_1_Tst_0>
1

$$$$
Row303
  Mrv171c012261910192D          

 18 18  0  0  0  0            999 V2000
    3.3105   -1.7734    0.0000 C   0  0  0  0  0  0  0  0  0  0  0  0
    3.7954   -2.4409    0.0000 O   0  0  0  0  0  0  0  0  0  0  0  0
    3.4599   -3.1945    0.0000 P   0  0  0  0  0  0  0  0  0  0  0  0
    3.1243   -3.9482    0.0000 O   0  0  0  0  0  0  0  0  0  0  0  0
    3.6092   -4.6156    0.0000 C   0  0  0  0  0  0  0  0  0  0  0  0
    3.2737   -5.3693    0.0000 C   0  0  0  0  0  0  0  0  0  0  0  0
    4.2136   -3.5301    0.0000 O   0  0  0  0  0  0  0  0  0  0  0  0
    4.2998   -4.3506    0.0000 C   0  0  0  0  0  0  0  0  0  0  0  0
    5.0535   -4.6861    0.0000 C   0  0  0  0  0  0  0  0  0  0  0  0
    2.7062   -2.8590    0.0000 S   0  0  0  0  0  0  0  0  0  0  0  0
    3.5654   -0.9888    0.0000 N   0  0  0  0  0  0  0  0  0  0  0  0
    2.8980   -0.5039    0.0000 N   0  0  0  0  0  0  0  0  0  0  0  0
    2.8980    0.3211    0.0000 C   0  0  0  0  0  0  0  0  0  0  0  0
    2.1835    0.7336    0.0000 C   0  0  0  0  0  0  0  0  0  0  0  0
    3.6125    0.7336    0.0000 C   0  0  0  0  0  0  0  0  0  0  0  0
    2.2306   -0.9888    0.0000 C   0  0  0  0  0  0  0  0  0  0  0  0
    1.4460   -0.7339    0.0000 Cl  0  0  0  0  0  0  0  0  0  0  0  0
    2.4855   -1.7734    0.0000 N   0  0  0  0  0  0  0  0  0  0  0  0
  1  2  1  0  0  0  0
  2  3  1  0  0  0  0
  3  4  1  0  0  0  0
  4  5  1  0  0  0  0
  5  6  1  0  0  0  0
  3  7  1  0  0  0  0
  7  8  1  0  0  0  0
  8  9  1  0  0  0  0
  3 10  2  0  0  0  0
 11  1  2  0  0  0  0
 12 11  1  0  0  0  0
 12 13  1  0  0  0  0
 13 14  1  0  0  0  0
 13 15  1  0  0  0  0
 16 12  1  0  0  0  0
 16 17  1  0  0  0  0
 18 16  2  0  0  0  0
  1 18  1  0  0  0  0
M  END
> <ChemID>
10437

> <CAS>
42509-80-8

> <Original_SMILES>
CC(C)[n]1[n]c([n]c1Cl)OP(=S)(OCC)OCC

> <preferred_name>
Isazofos

> <dsstox_substance_id>
DTXSID7034676

> <dsstox_compound_id>
DTXCID5014676

> <Canonical_QSARr>
CC(C)N1N=C(N=C1Cl)OP(=S)(OCC)OCC

> <InChI_Code_QSARr>
InChI=1S/C9H17ClN3O3PS/c1-5-14-17(18,15-6-2)16-9-11-8(10)13(12-9)7(3)4/h7H,5-6H2,1-4H3

> <InChI Key_QSARr>
XRHGWAGWAHHFLF-UHFFFAOYSA-N

> <Salt_Solvent>


> <Salt_Solvent_ID>
0

> <Clint>
1.2907022432878543

> <Tr_1_Tst_0>
1

$$$$
Row9
  Mrv171c012261910192D          

 31 32  0  0  0  0            999 V2000
    3.7329   -3.6705    0.0000 C   0  0  0  0  0  0  0  0  0  0  0  0
    3.0184   -4.0830    0.0000 N   0  0  0  0  0  0  0  0  0  0  0  0
    2.3040   -3.6705    0.0000 S   0  0  0  0  0  0  0  0  0  0  0  0
    1.5895   -3.2580    0.0000 C   0  0  0  0  0  0  0  0  0  0  0  0
    1.5895   -2.4330    0.0000 C   0  0  0  0  0  0  0  0  0  0  0  0
    0.8750   -2.0205    0.0000 C   0  0  0  0  0  0  0  0  0  0  0  0
    0.8750   -1.1955    0.0000 N   0  0  0  0  0  0  0  0  0  0  0  0
    1.5895   -0.7830    0.0000 C   0  0  0  0  0  0  0  0  0  0  0  0
    2.3040   -1.1955    0.0000 O   0  0  0  0  0  0  0  0  0  0  0  0
    0.1606   -2.4330    0.0000 C   0  0  0  0  0  0  0  0  0  0  0  0
    0.1606   -3.2580    0.0000 C   0  0  0  0  0  0  0  0  0  0  0  0
    0.8750   -3.6705    0.0000 C   0  0  0  0  0  0  0  0  0  0  0  0
    0.8750   -4.4955    0.0000 C   0  0  0  0  0  0  0  0  0  0  0  0
    0.1606   -4.9080    0.0000 N   0  0  0  0  0  0  0  0  0  0  0  0
    0.1606   -5.7330    0.0000 C   0  0  0  0  0  0  0  0  0  0  0  0
   -0.5539   -4.4955    0.0000 C   0  0  0  0  0  0  0  0  0  0  0  0
    1.5895   -4.9080    0.0000 O   0  0  0  0  0  0  0  0  0  0  0  0
    1.8915   -4.3850    0.0000 O   0  0  0  0  0  0  0  0  0  0  0  0
    2.7165   -2.9561    0.0000 O   0  0  0  0  0  0  0  0  0  0  0  0
    4.4474   -4.0830    0.0000 N   0  0  0  0  0  0  0  0  0  0  0  0
    5.1619   -3.6705    0.0000 C   0  0  0  0  0  0  0  0  0  0  0  0
    5.8763   -4.0830    0.0000 N   0  0  0  0  0  0  0  0  0  0  0  0
    6.5908   -3.6705    0.0000 C   0  0  0  0  0  0  0  0  0  0  0  0
    7.3053   -4.0830    0.0000 O   0  0  0  0  0  0  0  0  0  0  0  0
    8.0197   -3.6705    0.0000 C   0  0  0  0  0  0  0  0  0  0  0  0
    6.5908   -2.8455    0.0000 C   0  0  0  0  0  0  0  0  0  0  0  0
    5.8763   -2.4330    0.0000 C   0  0  0  0  0  0  0  0  0  0  0  0
    5.8763   -1.6080    0.0000 O   0  0  0  0  0  0  0  0  0  0  0  0
    5.1619   -1.1955    0.0000 C   0  0  0  0  0  0  0  0  0  0  0  0
    5.1619   -2.8455    0.0000 N   0  0  0  0  0  0  0  0  0  0  0  0
    3.7329   -2.8455    0.0000 O   0  0  0  0  0  0  0  0  0  0  0  0
  1  2  1  0  0  0  0
  2  3  1  0  0  0  0
  3  4  1  0  0  0  0
  5  4  1  0  0  0  0
  6  5  2  0  0  0  0
  6  7  1  0  0  0  0
  7  8  1  0  0  0  0
  8  9  2  0  0  0  0
 10  6  1  0  0  0  0
 11 10  2  0  0  0  0
 12 11  1  0  0  0  0
  4 12  2  0  0  0  0
 12 13  1  0  0  0  0
 13 14  1  0  0  0  0
 14 15  1  0  0  0  0
 14 16  1  0  0  0  0
 13 17  2  0  0  0  0
  3 18  2  0  0  0  0
  3 19  2  0  0  0  0
  1 20  1  0  0  0  0
 20 21  1  0  0  0  0
 22 21  1  0  0  0  0
 23 22  2  0  0  0  0
 23 24  1  0  0  0  0
 24 25  1  0  0  0  0
 26 23  1  0  0  0  0
 27 26  2  0  0  0  0
 27 28  1  0  0  0  0
 28 29  1  0  0  0  0
 30 27  1  0  0  0  0
 21 30  2  0  0  0  0
  1 31  2  0  0  0  0
M  END
> <ChemID>
10438

> <CAS>
173159-57-4

> <Original_SMILES>
CN(C)C(=O)c1ccc(cc1S(=O)(=O)NC(=O)Nc1[n]c(cc([n]1)OC)OC)NC=O

> <preferred_name>
Foramsulfuron

> <dsstox_substance_id>
DTXSID7034753

> <dsstox_compound_id>
DTXCID5014753

> <Canonical_QSARr>
CN(C)C(=O)C1C=CC(=CC=1S(=O)(=O)NC(=O)NC1N=C(C=C(N=1)OC)OC)NC=O

> <InChI_Code_QSARr>
InChI=1S/C17H20N6O7S/c1-23(2)15(25)11-6-5-10(18-9-24)7-12(11)31(27,28)22-17(26)21-16-19-13(29-3)8-14(20-16)30-4/h5-9H,1-4H3,(H,18,24)(H2,19,20,21,22,26)

> <InChI Key_QSARr>
PXDNXJSDGQBLKS-UHFFFAOYSA-N

> <Salt_Solvent>


> <Salt_Solvent_ID>
0

> <Clint>
-7.0

> <Tr_1_Tst_0>
1

$$$$
Row458
  Mrv171c012261910192D          

 16 17  0  0  0  0            999 V2000
    3.4656    0.3509    0.0000 N   0  0  0  0  0  0  0  0  0  0  0  0
    2.7512   -0.0616    0.0000 C   0  0  0  0  0  0  0  0  0  0  0  0
    2.0367   -0.4741    0.0000 N   0  0  0  0  0  0  0  0  0  0  0  0
    2.0367   -1.2991    0.0000 C   0  0  0  0  0  0  0  0  0  0  0  0
    2.7041   -1.7840    0.0000 S   0  0  0  0  0  0  0  0  0  0  0  0
    2.4492   -2.5687    0.0000 C   0  0  0  0  0  0  0  0  0  0  0  0
    1.6242   -2.5687    0.0000 C   0  0  0  0  0  0  0  0  0  0  0  0
    1.3693   -1.7840    0.0000 N   0  0  0  0  0  0  0  0  0  0  0  0
    0.5846   -1.5291    0.0000 C   0  0  0  0  0  0  0  0  0  0  0  0
    0.4131   -0.7221    0.0000 C   0  0  0  0  0  0  0  0  0  0  0  0
   -0.3715   -0.4672    0.0000 C   0  0  0  0  0  0  0  0  0  0  0  0
   -0.5430    0.3398    0.0000 N   0  0  0  0  0  0  0  0  0  0  0  0
    0.0701    0.8918    0.0000 C   0  0  0  0  0  0  0  0  0  0  0  0
   -0.1015    1.6988    0.0000 Cl  0  0  0  0  0  0  0  0  0  0  0  0
    0.8547    0.6369    0.0000 C   0  0  0  0  0  0  0  0  0  0  0  0
    1.0262   -0.1701    0.0000 C   0  0  0  0  0  0  0  0  0  0  0  0
  1  2  3  0  0  0  0
  3  2  1  4  0  0  0
  3  4  2  0  0  0  0
  4  5  1  0  0  0  0
  5  6  1  0  0  0  0
  6  7  1  0  0  0  0
  7  8  1  0  0  0  0
  4  8  1  0  0  0  0
  8  9  1  0  0  0  0
  9 10  1  0  0  0  0
 10 11  1  0  0  0  0
 11 12  2  0  0  0  0
 12 13  1  0  0  0  0
 13 14  1  0  0  0  0
 13 15  2  0  0  0  0
 15 16  1  0  0  0  0
 10 16  2  0  0  0  0
M  END
> <ChemID>
10439

> <CAS>
111988-49-9

> <Original_SMILES>
N#C/N=C1\SCCN\1Cc1ccc(Cl)[n]c1

> <preferred_name>
Thiacloprid

> <dsstox_substance_id>
DTXSID7034961

> <dsstox_compound_id>
DTXCID5014961

> <Canonical_QSARr>
N#CN=C1SCCN1CC1C=NC(Cl)=CC=1

> <InChI_Code_QSARr>
InChI=1S/C10H9ClN4S/c11-9-2-1-8(5-13-9)6-15-3-4-16-10(15)14-7-12/h1-2,5H,3-4,6H2

> <InChI Key_QSARr>
HOKKPVIRMVDYPB-UHFFFAOYSA-N

> <Salt_Solvent>


> <Salt_Solvent_ID>
0

> <Clint>
0.4099331233312945

> <Tr_1_Tst_0>
0

$$$$
Row245
  Mrv171c012261910192D          

 21 22  0  0  0  0            999 V2000
    4.2446   -2.5643    0.0000 O   0  0  0  0  0  0  0  0  0  0  0  0
    4.2446   -1.7393    0.0000 C   0  0  0  0  0  0  0  0  0  0  0  0
    3.5302   -1.3268    0.0000 N   0  0  0  0  0  0  0  0  0  0  0  0
    2.8157   -1.7393    0.0000 C   0  0  0  0  0  0  0  0  0  0  0  0
    2.1012   -1.3268    0.0000 C   0  0  0  0  0  0  0  0  0  0  0  0
    2.1012   -0.5018    0.0000 Cl  0  0  0  0  0  0  0  0  0  0  0  0
    1.3867   -1.7393    0.0000 C   0  0  0  0  0  0  0  0  0  0  0  0
    1.3867   -2.5643    0.0000 C   0  0  0  0  0  0  0  0  0  0  0  0
    0.6723   -2.9768    0.0000 N   0  3  0  0  0  0  0  0  0  0  0  0
    0.6723   -3.8018    0.0000 O   0  5  0  0  0  0  0  0  0  0  0  0
   -0.0422   -2.5643    0.0000 O   0  0  0  0  0  0  0  0  0  0  0  0
    2.1012   -2.9768    0.0000 C   0  0  0  0  0  0  0  0  0  0  0  0
    2.8157   -2.5643    0.0000 C   0  0  0  0  0  0  0  0  0  0  0  0
    4.9591   -1.3268    0.0000 C   0  0  0  0  0  0  0  0  0  0  0  0
    5.6736   -1.7393    0.0000 C   0  0  0  0  0  0  0  0  0  0  0  0
    6.3880   -1.3268    0.0000 C   0  0  0  0  0  0  0  0  0  0  0  0
    7.1025   -1.7393    0.0000 Cl  0  0  0  0  0  0  0  0  0  0  0  0
    6.3880   -0.5018    0.0000 C   0  0  0  0  0  0  0  0  0  0  0  0
    5.6736   -0.0893    0.0000 C   0  0  0  0  0  0  0  0  0  0  0  0
    4.9591   -0.5018    0.0000 C   0  0  0  0  0  0  0  0  0  0  0  0
    4.2446   -0.0893    0.0000 O   0  0  0  0  0  0  0  0  0  0  0  0
  1  2  2  0  0  0  0
  2  3  1  0  0  0  0
  3  4  1  0  0  0  0
  5  4  1  0  0  0  0
  5  6  1  0  0  0  0
  7  5  2  0  0  0  0
  8  7  1  0  0  0  0
  8  9  1  0  0  0  0
  9 10  1  0  0  0  0
  9 11  2  0  0  0  0
 12  8  2  0  0  0  0
 13 12  1  0  0  0  0
  4 13  2  0  0  0  0
  2 14  1  0  0  0  0
 15 14  1  0  0  0  0
 16 15  2  0  0  0  0
 16 17  1  0  0  0  0
 18 16  1  0  0  0  0
 19 18  2  0  0  0  0
 20 19  1  0  0  0  0
 14 20  2  0  0  0  0
 20 21  1  0  0  0  0
M  CHG  2   9   1  10  -1
M  END
> <ChemID>
10440

> <CAS>
50-65-7

> <Original_SMILES>
[O-][N+](=O)c1cc(Cl)c(cc1)NC(=O)c1cc(Cl)ccc1O

> <preferred_name>
Niclosamide

> <dsstox_substance_id>
DTXSID7040362

> <dsstox_compound_id>
DTXCID5020362

> <Canonical_QSARr>
[O-][N+](=O)C1C=C(Cl)C(=CC=1)NC(=O)C1C=C(Cl)C=CC=1O

> <InChI_Code_QSARr>
InChI=1S/C13H8Cl2N2O4/c14-7-1-4-12(18)9(5-7)13(19)16-11-3-2-8(17(20)21)6-10(11)15/h1-6,18H,(H,16,19)

> <InChI Key_QSARr>
RJMUSRYZPJIFPJ-UHFFFAOYSA-N

> <Salt_Solvent>


> <Salt_Solvent_ID>
0

> <Clint>
1.0791812460476247

> <Tr_1_Tst_0>
1

$$$$
Row202
  Mrv171c012261910192D          

 13 13  0  0  0  0            999 V2000
    3.3532   -0.7663    0.0000 O   0  0  0  0  0  0  0  0  0  0  0  0
    2.6387   -1.1788    0.0000 C   0  0  0  0  0  0  0  0  0  0  0  0
    1.9242   -0.7663    0.0000 C   0  0  0  0  0  0  0  0  0  0  0  0
    1.9242    0.0587    0.0000 C   0  0  0  0  0  0  0  0  0  0  0  0
    1.9242    0.8837    0.0000 C   0  0  0  0  0  0  0  0  0  0  0  0
    1.0992    0.0587    0.0000 C   0  0  0  0  0  0  0  0  0  0  0  0
    2.7492    0.0587    0.0000 C   0  0  0  0  0  0  0  0  0  0  0  0
    1.2098   -1.1788    0.0000 C   0  0  0  0  0  0  0  0  0  0  0  0
    1.2098   -2.0038    0.0000 C   0  0  0  0  0  0  0  0  0  0  0  0
    0.4953   -2.4163    0.0000 O   0  0  0  0  0  0  0  0  0  0  0  0
    0.4953   -3.2413    0.0000 C   0  0  0  0  0  0  0  0  0  0  0  0
    1.9242   -2.4163    0.0000 C   0  0  0  0  0  0  0  0  0  0  0  0
    2.6387   -2.0038    0.0000 C   0  0  0  0  0  0  0  0  0  0  0  0
  1  2  1  0  0  0  0
  3  2  1  0  0  0  0
  3  4  1  0  0  0  0
  4  5  1  0  0  0  0
  4  6  1  0  0  0  0
  4  7  1  0  0  0  0
  8  3  2  0  0  0  0
  9  8  1  0  0  0  0
  9 10  1  0  0  0  0
 10 11  1  0  0  0  0
 12  9  2  0  0  0  0
 13 12  1  0  0  0  0
  2 13  2  0  0  0  0
M  END
> <ChemID>
10441

> <CAS>
121-00-6

> <Original_SMILES>
COc1cc(c(O)cc1)C(C)(C)C

> <preferred_name>
2-tert-Butyl-4-methoxyphenol

> <dsstox_substance_id>
DTXSID7040788

> <dsstox_compound_id>
DTXCID90215

> <Canonical_QSARr>
COC1C=C(C(O)=CC=1)C(C)(C)C

> <InChI_Code_QSARr>
InChI=1S/C11H16O2/c1-11(2,3)9-7-8(13-4)5-6-10(9)12/h5-7,12H,1-4H3

> <InChI Key_QSARr>
MRBKEAMVRSLQPH-UHFFFAOYSA-N

> <Salt_Solvent>


> <Salt_Solvent_ID>
0

> <Clint>
0.8488047010518036

> <Tr_1_Tst_0>
1

$$$$
Row536
  Mrv171c012261910192D          

 25 27  0  0  0  0            999 V2000
    3.8646   -4.7207    0.0000 N   0  0  0  0  0  0  0  0  0  0  0  0
    4.5791   -5.1332    0.0000 C   0  0  0  0  0  0  0  0  0  0  0  0
    5.2935   -4.7207    0.0000 C   0  0  0  0  0  0  0  0  0  0  0  0
    6.0080   -5.1332    0.0000 N   0  0  0  0  0  0  0  0  0  0  0  0
    6.7225   -4.7207    0.0000 C   0  0  0  0  0  0  0  0  0  0  0  0
    6.7225   -3.8957    0.0000 C   0  0  0  0  0  0  0  0  0  0  0  0
    7.4369   -5.1332    0.0000 C   0  0  0  0  0  0  0  0  0  0  0  0
    8.1514   -4.7207    0.0000 C   0  0  0  0  0  0  0  0  0  0  0  0
    6.0080   -5.9582    0.0000 C   0  0  0  0  0  0  0  0  0  0  0  0
    5.2935   -3.8957    0.0000 O   0  0  0  0  0  0  0  0  0  0  0  0
    4.5791   -5.9582    0.0000 C   0  0  0  0  0  0  0  0  0  0  0  0
    3.8646   -6.3707    0.0000 C   0  0  0  0  0  0  0  0  0  0  0  0
    3.8646   -7.1957    0.0000 C   0  0  0  0  0  0  0  0  0  0  0  0
    3.1501   -7.6082    0.0000 C   0  0  0  0  0  0  0  0  0  0  0  0
    2.4356   -7.1957    0.0000 C   0  0  0  0  0  0  0  0  0  0  0  0
    2.4356   -6.3707    0.0000 C   0  0  0  0  0  0  0  0  0  0  0  0
    3.1501   -5.9582    0.0000 C   0  0  0  0  0  0  0  0  0  0  0  0
    3.1501   -5.1332    0.0000 C   0  0  0  0  0  0  0  0  0  0  0  0
    2.4356   -4.7207    0.0000 C   0  0  0  0  0  0  0  0  0  0  0  0
    2.4356   -3.8957    0.0000 C   0  0  0  0  0  0  0  0  0  0  0  0
    3.1501   -3.4832    0.0000 Cl  0  0  0  0  0  0  0  0  0  0  0  0
    1.7212   -3.4832    0.0000 C   0  0  0  0  0  0  0  0  0  0  0  0
    1.0067   -3.8957    0.0000 C   0  0  0  0  0  0  0  0  0  0  0  0
    1.0067   -4.7207    0.0000 C   0  0  0  0  0  0  0  0  0  0  0  0
    1.7212   -5.1332    0.0000 C   0  0  0  0  0  0  0  0  0  0  0  0
  2  1  1  0  0  0  0
  2  3  1  0  0  0  0
  3  4  1  0  0  0  0
  4  5  1  0  0  0  0
  5  6  1  0  0  0  0
  5  7  1  0  0  0  0
  7  8  1  0  0  0  0
  4  9  1  0  0  0  0
  3 10  2  0  0  0  0
 11  2  2  0  0  0  0
 12 11  1  0  0  0  0
 12 13  1  0  0  0  0
 13 14  2  0  0  0  0
 14 15  1  0  0  0  0
 15 16  2  0  0  0  0
 16 17  1  0  0  0  0
 17 12  2  0  0  0  0
 18 17  1  0  0  0  0
  1 18  2  0  0  0  0
 18 19  1  0  0  0  0
 20 19  1  0  0  0  0
 20 21  1  0  0  0  0
 22 20  2  0  0  0  0
 23 22  1  0  0  0  0
 24 23  2  0  0  0  0
 25 24  1  0  0  0  0
 19 25  2  0  0  0  0
M  END
> <ChemID>
10442

> <CAS>
85532-75-8

> <Original_SMILES>
CCC(C)N(C)C(=O)c1cc2ccccc2c([n]1)-c1ccccc1Cl

> <preferred_name>
PK 11195

> <dsstox_substance_id>
DTXSID7041097

> <dsstox_compound_id>
DTXCID5021097

> <Canonical_QSARr>
CCC(C)N(C)C(=O)C1=CC2C=CC=CC=2C(=N1)C1=CC=CC=C1Cl

> <InChI_Code_QSARr>
InChI=1S/C21H21ClN2O/c1-4-14(2)24(3)21(25)19-13-15-9-5-6-10-16(15)20(23-19)17-11-7-8-12-18(17)22/h5-14H,4H2,1-3H3

> <InChI Key_QSARr>
RAVIZVQZGXBOQO-UHFFFAOYSA-N

> <Salt_Solvent>


> <Salt_Solvent_ID>
0

> <Clint>
1.6244883625134487

> <Tr_1_Tst_0>
0

$$$$
Row314
  Mrv171c012261910192D          

 16 17  0  0  0  0            999 V2000
    2.8085   -1.3157    0.0000 C   0  0  0  0  0  0  0  0  0  0  0  0
    2.0941   -1.7282    0.0000 N   0  0  0  0  0  0  0  0  0  0  0  0
    2.0941   -2.5532    0.0000 C   0  0  0  0  0  0  0  0  0  0  0  0
    1.3796   -2.9657    0.0000 C   0  0  0  0  0  0  0  0  0  0  0  0
    1.3796   -3.7907    0.0000 C   0  0  0  0  0  0  0  0  0  0  0  0
    2.0941   -4.2032    0.0000 C   0  0  0  0  0  0  0  0  0  0  0  0
    2.8085   -3.7907    0.0000 C   0  0  0  0  0  0  0  0  0  0  0  0
    2.8085   -2.9657    0.0000 C   0  0  0  0  0  0  0  0  0  0  0  0
    2.8085   -0.4907    0.0000 C   0  0  0  0  0  0  0  0  0  0  0  0
    3.5230   -0.0782    0.0000 C   0  0  0  0  0  0  0  0  0  0  0  0
    3.5230    0.7468    0.0000 C   0  0  0  0  0  0  0  0  0  0  0  0
    2.8085    1.1593    0.0000 C   0  0  0  0  0  0  0  0  0  0  0  0
    2.0941    0.7468    0.0000 C   0  0  0  0  0  0  0  0  0  0  0  0
    2.0941   -0.0782    0.0000 C   0  0  0  0  0  0  0  0  0  0  0  0
    1.3796   -0.4907    0.0000 I   0  0  0  0  0  0  0  0  0  0  0  0
    3.5230   -1.7282    0.0000 O   0  0  0  0  0  0  0  0  0  0  0  0
  1  2  1  0  0  0  0
  2  3  1  0  0  0  0
  4  3  1  0  0  0  0
  5  4  2  0  0  0  0
  6  5  1  0  0  0  0
  7  6  2  0  0  0  0
  8  7  1  0  0  0  0
  3  8  2  0  0  0  0
  1  9  1  0  0  0  0
 10  9  1  0  0  0  0
 11 10  2  0  0  0  0
 12 11  1  0  0  0  0
 13 12  2  0  0  0  0
 14 13  1  0  0  0  0
  9 14  2  0  0  0  0
 14 15  1  0  0  0  0
  1 16  2  0  0  0  0
M  END
> <ChemID>
10443

> <CAS>
15310-01-7

> <Original_SMILES>
O=C(Nc1ccccc1)c1ccccc1I

> <preferred_name>
Benodanil

> <dsstox_substance_id>
DTXSID7041623

> <dsstox_compound_id>
DTXCID5021623

> <Canonical_QSARr>
O=C(NC1C=CC=CC=1)C1C=CC=CC=1I

> <InChI_Code_QSARr>
InChI=1S/C13H10INO/c14-12-9-5-4-8-11(12)13(16)15-10-6-2-1-3-7-10/h1-9H,(H,15,16)

> <InChI Key_QSARr>
LJOZMWRYMKECFF-UHFFFAOYSA-N

> <Salt_Solvent>


> <Salt_Solvent_ID>
0

> <Clint>
1.3304137733491908

> <Tr_1_Tst_0>
1

$$$$
Row89
  Mrv171c012261910192D          

 21 24  0  0  0  0            999 V2000
    2.6835   -1.4843    0.0000 C   0  0  0  0  0  0  0  0  0  0  0  0
    2.6835   -0.6593    0.0000 C   0  0  0  0  0  0  0  0  0  0  0  0
    1.9690   -0.2468    0.0000 C   0  0  0  0  0  0  0  0  0  0  0  0
    1.9690    0.5782    0.0000 C   0  0  0  0  0  0  0  0  0  0  0  0
    1.2546    0.9907    0.0000 N   0  0  0  0  0  0  0  0  0  0  0  0
    1.2546    1.8157    0.0000 C   0  0  0  0  0  0  0  0  0  0  0  0
    2.5460   -2.0343    0.0000 C   0  0  0  0  0  0  0  0  0  0  0  0
    2.5460   -2.5843    0.0000 C   0  0  0  0  0  0  0  0  0  0  0  0
    2.6835   -3.1343    0.0000 C   0  0  0  0  0  0  0  0  0  0  0  0
    3.3980   -2.7218    0.0000 C   0  0  0  0  0  0  0  0  0  0  0  0
    4.1125   -3.1343    0.0000 C   0  0  0  0  0  0  0  0  0  0  0  0
    4.8269   -2.7218    0.0000 C   0  0  0  0  0  0  0  0  0  0  0  0
    4.8269   -1.8968    0.0000 C   0  0  0  0  0  0  0  0  0  0  0  0
    4.1125   -1.4843    0.0000 C   0  0  0  0  0  0  0  0  0  0  0  0
    3.3980   -1.8968    0.0000 C   0  0  0  0  0  0  0  0  0  0  0  0
    1.9690   -2.7218    0.0000 C   0  0  0  0  0  0  0  0  0  0  0  0
    1.2546   -3.1343    0.0000 C   0  0  0  0  0  0  0  0  0  0  0  0
    0.5401   -2.7218    0.0000 C   0  0  0  0  0  0  0  0  0  0  0  0
    0.5401   -1.8968    0.0000 C   0  0  0  0  0  0  0  0  0  0  0  0
    1.2546   -1.4843    0.0000 C   0  0  0  0  0  0  0  0  0  0  0  0
    1.9690   -1.8968    0.0000 C   0  0  0  0  0  0  0  0  0  0  0  0
  1  2  1  0  0  0  0
  2  3  1  0  0  0  0
  3  4  1  0  0  0  0
  4  5  1  0  0  0  0
  5  6  1  0  0  0  0
  7  1  1  0  0  0  0
  8  7  1  0  0  0  0
  9  8  1  0  0  0  0
  9 10  1  0  0  0  0
 11 10  1  0  0  0  0
 12 11  2  0  0  0  0
 13 12  1  0  0  0  0
 14 13  2  0  0  0  0
 15 14  1  0  0  0  0
 10 15  2  0  0  0  0
 15  1  1  0  0  0  0
 16  9  1  0  0  0  0
 16 17  1  0  0  0  0
 17 18  2  0  0  0  0
 18 19  1  0  0  0  0
 19 20  2  0  0  0  0
 20 21  1  0  0  0  0
  1 21  1  0  0  0  0
 21 16  2  0  0  0  0
M  END
> <ChemID>
10444

> <CAS>
10262-69-8

> <Original_SMILES>
CNCCCC12CCC(c3ccccc13)c1ccccc21

> <preferred_name>
Maprotiline

> <dsstox_substance_id>
DTXSID7045029

> <dsstox_compound_id>
DTXCID5025029

> <Canonical_QSARr>
CNCCCC12CCC(C3C=CC=CC1=3)C1C=CC=CC2=1

> <InChI_Code_QSARr>
InChI=1S/C20H23N/c1-21-14-6-12-20-13-11-15(16-7-2-4-9-18(16)20)17-8-3-5-10-19(17)20/h2-5,7-10,15,21H,6,11-14H2,1H3

> <InChI Key_QSARr>
QSLMDECMDJKHMQ-UHFFFAOYSA-N

> <Salt_Solvent>


> <Salt_Solvent_ID>
0

> <Clint>
-0.1408617027054692

> <Tr_1_Tst_0>
1

$$$$
Row67
  Mrv171c012261910192D          

 23 25  0  0  0  0            999 V2000
    3.7824    0.3727    0.0000 C   0  0  0  0  0  0  0  0  0  0  0  0
    3.2304   -0.2403    0.0000 N   0  0  0  0  0  0  0  0  0  0  0  0
    3.4853   -1.0250    0.0000 C   0  0  0  0  0  0  0  0  0  0  0  0
    2.9333   -1.6381    0.0000 C   0  0  0  0  0  0  0  0  0  0  0  0
    3.1882   -2.4227    0.0000 C   0  0  0  0  0  0  0  0  0  0  0  0
    3.9728   -2.6776    0.0000 N   0  0  0  0  0  0  0  0  0  0  0  0
    4.6873   -2.2651    0.0000 C   0  0  0  0  0  0  0  0  0  0  0  0
    5.4018   -2.6776    0.0000 C   0  0  0  0  0  0  0  0  0  0  0  0
    6.1162   -2.2651    0.0000 C   0  0  0  0  0  0  0  0  0  0  0  0
    5.4018   -3.5026    0.0000 C   0  0  0  0  0  0  0  0  0  0  0  0
    4.6873   -3.9151    0.0000 C   0  0  0  0  0  0  0  0  0  0  0  0
    3.9728   -3.5026    0.0000 C   0  0  0  0  0  0  0  0  0  0  0  0
    3.1882   -3.7576    0.0000 N   0  0  0  0  0  0  0  0  0  0  0  0
    2.7033   -3.0901    0.0000 C   0  0  0  0  0  0  0  0  0  0  0  0
    1.8783   -3.0901    0.0000 C   0  0  0  0  0  0  0  0  0  0  0  0
    1.4658   -2.3757    0.0000 C   0  0  0  0  0  0  0  0  0  0  0  0
    0.6408   -2.3757    0.0000 C   0  0  0  0  0  0  0  0  0  0  0  0
    0.2283   -3.0901    0.0000 C   0  0  0  0  0  0  0  0  0  0  0  0
   -0.5967   -3.0901    0.0000 C   0  0  0  0  0  0  0  0  0  0  0  0
    0.6408   -3.8046    0.0000 C   0  0  0  0  0  0  0  0  0  0  0  0
    1.4658   -3.8046    0.0000 C   0  0  0  0  0  0  0  0  0  0  0  0
    4.2923   -1.1965    0.0000 O   0  0  0  0  0  0  0  0  0  0  0  0
    2.4234   -0.0688    0.0000 C   0  0  0  0  0  0  0  0  0  0  0  0
  1  2  1  0  0  0  0
  2  3  1  0  0  0  0
  3  4  1  0  0  0  0
  4  5  1  0  0  0  0
  6  5  1  0  0  0  0
  6  7  1  0  0  0  0
  7  8  2  0  0  0  0
  8  9  1  0  0  0  0
  8 10  1  0  0  0  0
 10 11  2  0  0  0  0
 11 12  1  0  0  0  0
 12  6  1  0  0  0  0
 13 12  2  0  0  0  0
 14 13  1  0  0  0  0
  5 14  2  0  0  0  0
 14 15  1  0  0  0  0
 16 15  1  0  0  0  0
 17 16  2  0  0  0  0
 18 17  1  0  0  0  0
 18 19  1  0  0  0  0
 20 18  2  0  0  0  0
 21 20  1  0  0  0  0
 15 21  2  0  0  0  0
  3 22  2  0  0  0  0
  2 23  1  0  0  0  0
M  END
> <ChemID>
10445

> <CAS>
82626-48-0

> <Original_SMILES>
CN(C)C(=O)Cc1c([n]c2ccc(C)c[n]21)-c1ccc(C)cc1

> <preferred_name>
Zolpidem

> <dsstox_substance_id>
DTXSID7045946

> <dsstox_compound_id>
DTXCID5025946

> <Canonical_QSARr>
CN(C)C(=O)CC1=C(N=C2C=CC(C)=CN21)C1C=CC(C)=CC=1

> <InChI_Code_QSARr>
InChI=1S/C19H21N3O/c1-13-5-8-15(9-6-13)19-16(11-18(23)21(3)4)22-12-14(2)7-10-17(22)20-19/h5-10,12H,11H2,1-4H3

> <InChI Key_QSARr>
ZAFYATHCZYHLPB-UHFFFAOYSA-N

> <Salt_Solvent>


> <Salt_Solvent_ID>
0

> <Clint>
-4.88941028970075

> <Tr_1_Tst_0>
1

$$$$
Row131
  Mrv171c012261910192D          

 39 42  0  0  0  0            999 V2000
    0.7176   -6.0346    0.0000 C   0  0  0  0  0  0  0  0  0  0  0  0
    1.4320   -5.6221    0.0000 O   0  0  0  0  0  0  0  0  0  0  0  0
    2.1465   -6.0346    0.0000 C   0  0  0  0  0  0  0  0  0  0  0  0
    2.8610   -5.6221    0.0000 C   0  0  0  0  0  0  0  0  0  0  0  0
    2.8610   -4.7971    0.0000 O   0  0  0  0  0  0  0  0  0  0  0  0
    3.5754   -4.3846    0.0000 C   0  0  0  0  0  0  0  0  0  0  0  0
    4.2899   -4.7971    0.0000 C   0  0  0  0  0  0  0  0  0  0  0  0
    4.2899   -5.6221    0.0000 O   0  0  0  0  0  0  0  0  0  0  0  0
    5.0044   -6.0346    0.0000 C   0  0  0  0  0  0  0  0  0  0  0  0
    5.7189   -5.6221    0.0000 C   0  0  0  0  0  0  0  0  0  0  0  0
    6.4333   -6.0346    0.0000 O   0  0  0  0  0  0  0  0  0  0  0  0
    5.0044   -4.3846    0.0000 N   0  0  0  0  0  0  0  0  0  0  0  0
    5.0044   -3.5596    0.0000 C   0  0  0  0  0  0  0  0  0  0  0  0
    5.7189   -3.1471    0.0000 C   0  0  0  0  0  0  0  0  0  0  0  0
    6.4333   -3.5596    0.0000 N   0  0  0  0  0  0  0  0  0  0  0  0
    7.1478   -3.1471    0.0000 C   0  0  0  0  0  0  0  0  0  0  0  0
    7.1478   -2.3221    0.0000 C   0  0  0  0  0  0  0  0  0  0  0  0
    6.4333   -1.9096    0.0000 C   0  0  0  0  0  0  0  0  0  0  0  0
    5.7189   -2.3221    0.0000 N   0  0  0  0  0  0  0  0  0  0  0  0
    4.2899   -3.1471    0.0000 N   0  0  0  0  0  0  0  0  0  0  0  0
    3.5754   -3.5596    0.0000 C   0  0  0  0  0  0  0  0  0  0  0  0
    2.8610   -3.1471    0.0000 N   0  0  0  0  0  0  0  0  0  0  0  0
    2.1465   -3.5596    0.0000 S   0  0  0  0  0  0  0  0  0  0  0  0
    1.4320   -3.9721    0.0000 C   0  0  0  0  0  0  0  0  0  0  0  0
    0.7176   -3.5596    0.0000 C   0  0  0  0  0  0  0  0  0  0  0  0
    0.0031   -3.9721    0.0000 C   0  0  0  0  0  0  0  0  0  0  0  0
    0.0031   -4.7971    0.0000 C   0  0  0  0  0  0  0  0  0  0  0  0
   -0.7114   -5.2096    0.0000 C   0  0  0  0  0  0  0  0  0  0  0  0
   -1.4259   -5.6221    0.0000 C   0  0  0  0  0  0  0  0  0  0  0  0
   -1.1239   -4.4951    0.0000 C   0  0  0  0  0  0  0  0  0  0  0  0
   -0.2989   -5.9240    0.0000 C   0  0  0  0  0  0  0  0  0  0  0  0
    0.7176   -5.2096    0.0000 C   0  0  0  0  0  0  0  0  0  0  0  0
    1.4320   -4.7971    0.0000 C   0  0  0  0  0  0  0  0  0  0  0  0
    1.7340   -2.8451    0.0000 O   0  0  0  0  0  0  0  0  0  0  0  0
    2.5590   -4.2740    0.0000 O   0  0  0  0  0  0  0  0  0  0  0  0
    3.5754   -6.0346    0.0000 C   0  0  0  0  0  0  0  0  0  0  0  0
    3.5754   -6.8596    0.0000 C   0  0  0  0  0  0  0  0  0  0  0  0
    2.8610   -7.2721    0.0000 C   0  0  0  0  0  0  0  0  0  0  0  0
    2.1465   -6.8596    0.0000 C   0  0  0  0  0  0  0  0  0  0  0  0
  1  2  1  0  0  0  0
  2  3  1  0  0  0  0
  4  3  1  0  0  0  0
  4  5  1  0  0  0  0
  5  6  1  0  0  0  0
  7  6  1  0  0  0  0
  7  8  1  0  0  0  0
  8  9  1  0  0  0  0
  9 10  1  0  0  0  0
 10 11  1  0  0  0  0
 12  7  2  0  0  0  0
 13 12  1  0  0  0  0
 13 14  1  0  0  0  0
 15 14  1  0  0  0  0
 16 15  2  0  0  0  0
 17 16  1  0  0  0  0
 18 17  2  0  0  0  0
 19 18  1  0  0  0  0
 14 19  2  0  0  0  0
 20 13  2  0  0  0  0
 21 20  1  0  0  0  0
  6 21  2  0  0  0  0
 21 22  1  0  0  0  0
 22 23  1  0  0  0  0
 23 24  1  0  0  0  0
 25 24  1  0  0  0  0
 26 25  2  0  0  0  0
 27 26  1  0  0  0  0
 27 28  1  0  0  0  0
 28 29  1  0  0  0  0
 28 30  1  0  0  0  0
 28 31  1  0  0  0  0
 32 27  2  0  0  0  0
 33 32  1  0  0  0  0
 24 33  2  0  0  0  0
 23 34  2  0  0  0  0
 23 35  2  0  0  0  0
 36  4  2  0  0  0  0
 37 36  1  0  0  0  0
 38 37  2  0  0  0  0
 39 38  1  0  0  0  0
  3 39  2  0  0  0  0
M  END
> <ChemID>
10446

> <CAS>
147536-97-8

> <Original_SMILES>
COc1ccccc1Oc1c(NS(=O)(=O)c2ccc(cc2)C(C)(C)C)[n]c([n]c1OCCO)-c1[n]ccc[n]1

> <preferred_name>
Bosentan

> <dsstox_substance_id>
DTXSID7046627

> <dsstox_compound_id>
DTXCID5026627

> <Canonical_QSARr>
COC1=CC=CC=C1OC1C(=NC(=NC=1NS(=O)(=O)C1=CC=C(C=C1)C(C)(C)C)C1=NC=CC=N1)OCCO

> <InChI_Code_QSARr>
InChI=1S/C27H29N5O6S/c1-27(2,3)18-10-12-19(13-11-18)39(34,35)32-23-22(38-21-9-6-5-8-20(21)36-4)26(37-17-16-33)31-25(30-23)24-28-14-7-15-29-24/h5-15,33H,16-17H2,1-4H3,(H,30,31,32)

> <InChI Key_QSARr>
GJPICJJJRGTNOD-UHFFFAOYSA-N

> <Salt_Solvent>


> <Salt_Solvent_ID>
0

> <Clint>
0.380211241711606

> <Tr_1_Tst_0>
1

$$$$
Row70
  Mrv171c012261910192D          

 23 25  0  0  0  0            999 V2000
    1.9533   -2.3132    0.0000 N   0  0  0  0  0  0  0  0  0  0  0  0
    1.1328   -2.3995    0.0000 C   0  0  0  0  0  0  0  0  0  0  0  0
    0.6479   -1.7320    0.0000 C   0  0  0  0  0  0  0  0  0  0  0  0
    0.9834   -0.9783    0.0000 C   0  0  0  0  0  0  0  0  0  0  0  0
    0.4985   -0.3109    0.0000 C   0  0  0  0  0  0  0  0  0  0  0  0
   -0.3220   -0.3971    0.0000 C   0  0  0  0  0  0  0  0  0  0  0  0
   -0.6575   -1.1508    0.0000 C   0  0  0  0  0  0  0  0  0  0  0  0
   -0.1726   -1.8183    0.0000 C   0  0  0  0  0  0  0  0  0  0  0  0
    2.3658   -1.5987    0.0000 C   0  0  0  0  0  0  0  0  0  0  0  0
    2.1108   -0.8141    0.0000 C   0  0  0  0  0  0  0  0  0  0  0  0
    2.6629   -0.2010    0.0000 C   0  0  0  0  0  0  0  0  0  0  0  0
    3.4698   -0.3726    0.0000 C   0  0  0  0  0  0  0  0  0  0  0  0
    3.7248   -1.1572    0.0000 C   0  0  0  0  0  0  0  0  0  0  0  0
    3.1727   -1.7703    0.0000 C   0  0  0  0  0  0  0  0  0  0  0  0
    3.2590   -2.5908    0.0000 C   0  0  0  0  0  0  0  0  0  0  0  0
    3.9734   -3.0033    0.0000 O   0  0  0  0  0  0  0  0  0  0  0  0
    4.6879   -2.5908    0.0000 C   0  0  0  0  0  0  0  0  0  0  0  0
    5.4024   -3.0033    0.0000 C   0  0  0  0  0  0  0  0  0  0  0  0
    6.1169   -2.5908    0.0000 C   0  0  0  0  0  0  0  0  0  0  0  0
    6.8313   -3.0033    0.0000 N   0  0  0  0  0  0  0  0  0  0  0  0
    7.5458   -2.5908    0.0000 C   0  0  0  0  0  0  0  0  0  0  0  0
    6.8313   -3.8283    0.0000 C   0  0  0  0  0  0  0  0  0  0  0  0
    2.5053   -2.9263    0.0000 N   0  0  0  0  0  0  0  0  0  0  0  0
  1  2  1  0  0  0  0
  2  3  1  0  0  0  0
  4  3  2  0  0  0  0
  5  4  1  0  0  0  0
  6  5  2  0  0  0  0
  7  6  1  0  0  0  0
  8  7  2  0  0  0  0
  3  8  1  0  0  0  0
  9  1  1  0  0  0  0
  9 10  1  0  0  0  0
 10 11  2  0  0  0  0
 11 12  1  0  0  0  0
 12 13  2  0  0  0  0
 13 14  1  0  0  0  0
 14  9  2  0  0  0  0
 15 14  1  0  0  0  0
 15 16  1  0  0  0  0
 16 17  1  0  0  0  0
 17 18  1  0  0  0  0
 18 19  1  0  0  0  0
 19 20  1  0  0  0  0
 20 21  1  0  0  0  0
 20 22  1  0  0  0  0
 23 15  2  0  0  0  0
  1 23  1  0  0  0  0
M  END
> <ChemID>
10447

> <CAS>
642-72-8

> <Original_SMILES>
CN(C)CCCOc1[n][n](Cc2ccccc2)c2ccccc21

> <preferred_name>
Benzydamine

> <dsstox_substance_id>
DTXSID7047859

> <dsstox_compound_id>
DTXCID7027835

> <Canonical_QSARr>
CN(C)CCCOC1=NN(CC2C=CC=CC=2)C2C=CC=CC=21

> <InChI_Code_QSARr>
InChI=1S/C19H23N3O/c1-21(2)13-8-14-23-19-17-11-6-7-12-18(17)22(20-19)15-16-9-4-3-5-10-16/h3-7,9-12H,8,13-15H2,1-2H3

> <InChI Key_QSARr>
CNBGNNVCVSKAQZ-UHFFFAOYSA-N

> <Salt_Solvent>


> <Salt_Solvent_ID>
0

> <Clint>
-4.131355561605174

> <Tr_1_Tst_0>
1

$$$$
Row41
  Mrv171c012261910192D          

 18 21  0  0  0  0            999 V2000
   -0.3589    0.4477    0.0000 C   0  0  0  0  0  0  0  0  0  0  0  0
    0.4683    0.8300    0.0000 C   0  0  0  0  0  0  0  0  0  0  0  0
    0.6746    0.0050    0.0000 C   0  0  0  0  0  0  0  0  0  0  0  0
    0.0262    0.8109    0.0000 Cl  0  0  0  0  0  0  0  0  0  0  0  0
    0.0153   -0.8830    0.0000 Cl  0  0  0  0  0  0  0  0  0  0  0  0
    0.4683   -0.8200    0.0000 C   0  0  0  0  0  0  0  0  0  0  0  0
    0.6568   -1.6979    0.0000 Cl  0  0  0  0  0  0  0  0  0  0  0  0
    1.1828   -0.4075    0.0000 C   0  0  0  0  0  0  0  0  0  0  0  0
    1.1828    0.4175    0.0000 C   0  0  0  0  0  0  0  0  0  0  0  0
    1.9390    0.8445    0.0000 Cl  0  0  0  0  0  0  0  0  0  0  0  0
    1.9455   -0.8253    0.0000 Cl  0  0  0  0  0  0  0  0  0  0  0  0
   -0.2462   -0.4075    0.0000 C   0  0  0  0  0  0  0  0  0  0  0  0
   -0.9606   -0.8200    0.0000 C   0  0  0  0  0  0  0  0  0  0  0  0
   -1.1669    0.0050    0.0000 C   0  0  0  0  0  0  0  0  0  0  0  0
   -0.9606    0.8300    0.0000 C   0  0  0  0  0  0  0  0  0  0  0  0
   -1.6751    0.4175    0.0000 C   0  0  0  0  0  0  0  0  0  0  0  0
   -1.6751   -0.4075    0.0000 C   0  0  0  0  0  0  0  0  0  0  0  0
    0.5213    1.7138    0.0000 Cl  0  0  0  0  0  0  0  0  0  0  0  0
  2  1  1  0  0  0  0
  2  3  1  0  0  0  0
  3  4  1  0  0  0  0
  3  5  1  0  0  0  0
  3  6  1  0  0  0  0
  6  7  1  0  0  0  0
  6  8  1  0  0  0  0
  8  9  2  0  0  0  0
  9  2  1  0  0  0  0
  9 10  1  0  0  0  0
  8 11  1  0  0  0  0
 12  6  1  0  0  0  0
 12  1  1  0  0  0  0
 13 12  1  0  0  0  0
 13 14  1  0  0  0  0
 14 15  1  0  0  0  0
  1 15  1  0  0  0  0
 15 16  1  0  0  0  0
 16 17  2  0  0  0  0
 17 13  1  0  0  0  0
  2 18  1  0  0  0  0
M  END
> <ChemID>
10448

> <CAS>
309-00-2

> <Original_SMILES>
ClC1(Cl)[C@@]2(Cl)[C@@H]3[C@@H]4C[C@@H](C=C4)[C@@H]3[C@]1(Cl)C(Cl)=C2Cl

> <preferred_name>
Aldrin

> <dsstox_substance_id>
DTXSID8020040

> <dsstox_compound_id>
DTXCID10819882

> <Canonical_QSARr>
ClC1(Cl)C2(Cl)C3C4CC(C=C4)C3C1(Cl)C(Cl)=C2Cl

> <InChI_Code_QSARr>
InChI=1S/C12H8Cl6/c13-8-9(14)11(16)7-5-2-1-4(3-5)6(7)10(8,15)12(11,17)18/h1-2,4-7H,3H2

> <InChI Key_QSARr>
QBYJBZPUGVGKQQ-UHFFFAOYSA-N

> <Salt_Solvent>


> <Salt_Solvent_ID>
0

> <Clint>
-7.0

> <Tr_1_Tst_0>
1

$$$$
Row39
  Mrv171c012261910192D          

 19 20  0  0  0  0            999 V2000
    2.9185   -3.4567    0.0000 N   0  0  0  0  0  0  0  0  0  0  0  0
    2.4336   -2.7893    0.0000 C   0  0  0  0  0  0  0  0  0  0  0  0
    2.6885   -2.0047    0.0000 C   0  0  0  0  0  0  0  0  0  0  0  0
    2.0211   -1.5198    0.0000 C   0  0  0  0  0  0  0  0  0  0  0  0
    2.0211   -0.6948    0.0000 N   0  0  0  0  0  0  0  0  0  0  0  0
    1.3066   -0.2823    0.0000 N   0  3  0  0  0  0  0  0  0  0  0  0
    0.5922    0.1302    0.0000 N   0  5  0  0  0  0  0  0  0  0  0  0
    1.3537   -2.0047    0.0000 C   0  0  0  0  0  0  0  0  0  0  0  0
    0.5691   -1.7497    0.0000 C   0  0  0  0  0  0  0  0  0  0  0  0
   -0.0440   -2.3018    0.0000 O   0  0  0  0  0  0  0  0  0  0  0  0
    1.6086   -2.7893    0.0000 O   0  0  0  0  0  0  0  0  0  0  0  0
    2.5830   -4.2104    0.0000 C   0  0  0  0  0  0  0  0  0  0  0  0
    3.0679   -4.8779    0.0000 C   0  0  0  0  0  0  0  0  0  0  0  0
    2.7323   -5.6315    0.0000 C   0  0  0  0  0  0  0  0  0  0  0  0
    3.8884   -4.7916    0.0000 C   0  0  0  0  0  0  0  0  0  0  0  0
    4.3733   -5.4591    0.0000 O   0  0  0  0  0  0  0  0  0  0  0  0
    4.2239   -4.0379    0.0000 N   0  0  0  0  0  0  0  0  0  0  0  0
    3.7390   -3.3705    0.0000 C   0  0  0  0  0  0  0  0  0  0  0  0
    4.0746   -2.6168    0.0000 O   0  0  0  0  0  0  0  0  0  0  0  0
  1  2  1  0  0  0  0
  3  2  1  0  0  0  0
  4  3  1  0  0  0  0
  4  5  1  0  0  0  0
  5  6  2  0  0  0  0
  6  7  2  0  0  0  0
  8  4  1  0  0  0  0
  8  9  1  0  0  0  0
  9 10  1  0  0  0  0
 11  8  1  0  0  0  0
  2 11  1  0  0  0  0
 12  1  1  0  0  0  0
 13 12  2  0  0  0  0
 13 14  1  0  0  0  0
 15 13  1  0  0  0  0
 15 16  2  0  0  0  0
 17 15  1  0  0  0  0
 18 17  1  0  0  0  0
  1 18  1  0  0  0  0
 18 19  2  0  0  0  0
M  CHG  2   6   1   7  -1
M  END
> <ChemID>
10449

> <CAS>
30516-87-1

> <Original_SMILES>
CC1=CN([C@H]2C[C@H](N=[N+]=[N-])[C@@H](CO)O2)C(=O)NC1=O

> <preferred_name>
3'-Azido-3'-deoxythymidine

> <dsstox_substance_id>
DTXSID8020127

> <dsstox_compound_id>
DTXCID60127

> <Canonical_QSARr>
CC1=CN(C2CC(N=[N+]=[N-])C(CO)O2)C(=O)NC1=O

> <InChI_Code_QSARr>
InChI=1S/C10H13N5O4/c1-5-3-15(10(18)12-9(5)17)8-2-6(13-14-11)7(4-16)19-8/h3,6-8,16H,2,4H2,1H3,(H,12,17,18)

> <InChI Key_QSARr>
HBOMLICNUCNMMY-UHFFFAOYSA-N

> <Salt_Solvent>


> <Salt_Solvent_ID>
0

> <Clint>
-7.0

> <Tr_1_Tst_0>
1

$$$$
Row455
  Mrv171c012261910192D          

 19 21  0  0  0  0            999 V2000
    3.3516   -2.7636    0.0000 O   0  0  0  0  0  0  0  0  0  0  0  0
    2.5670   -3.0185    0.0000 C   0  0  0  0  0  0  0  0  0  0  0  0
    2.3120   -3.8031    0.0000 N   0  0  0  0  0  0  0  0  0  0  0  0
    1.4870   -3.8031    0.0000 C   0  0  0  0  0  0  0  0  0  0  0  0
    1.0021   -4.4706    0.0000 O   0  0  0  0  0  0  0  0  0  0  0  0
    1.2321   -3.0185    0.0000 N   0  0  0  0  0  0  0  0  0  0  0  0
    1.8995   -2.5336    0.0000 C   0  0  0  0  0  0  0  0  0  0  0  0
    1.2922   -1.9752    0.0000 C   0  0  0  0  0  0  0  0  0  0  0  0
    1.4722   -1.1700    0.0000 C   0  0  0  0  0  0  0  0  0  0  0  0
    0.8649   -0.6116    0.0000 C   0  0  0  0  0  0  0  0  0  0  0  0
    0.0777   -0.8583    0.0000 C   0  0  0  0  0  0  0  0  0  0  0  0
   -0.1023   -1.6634    0.0000 C   0  0  0  0  0  0  0  0  0  0  0  0
    0.5050   -2.2219    0.0000 C   0  0  0  0  0  0  0  0  0  0  0  0
    2.3045   -1.8148    0.0000 C   0  0  0  0  0  0  0  0  0  0  0  0
    3.1295   -1.8062    0.0000 C   0  0  0  0  0  0  0  0  0  0  0  0
    3.5345   -1.0874    0.0000 C   0  0  0  0  0  0  0  0  0  0  0  0
    3.1145   -0.3773    0.0000 C   0  0  0  0  0  0  0  0  0  0  0  0
    2.2896   -0.3860    0.0000 C   0  0  0  0  0  0  0  0  0  0  0  0
    1.8846   -1.1047    0.0000 C   0  0  0  0  0  0  0  0  0  0  0  0
  1  2  2  0  0  0  0
  3  2  1  0  0  0  0
  4  3  1  0  0  0  0
  4  5  2  0  0  0  0
  6  4  1  0  0  0  0
  7  6  1  0  0  0  0
  2  7  1  0  0  0  0
  7  8  1  0  0  0  0
  9  8  1  0  0  0  0
 10  9  2  0  0  0  0
 11 10  1  0  0  0  0
 12 11  2  0  0  0  0
 13 12  1  0  0  0  0
  8 13  2  0  0  0  0
  7 14  1  0  0  0  0
 15 14  1  0  0  0  0
 16 15  2  0  0  0  0
 17 16  1  0  0  0  0
 18 17  2  0  0  0  0
 19 18  1  0  0  0  0
 14 19  2  0  0  0  0
M  END
> <ChemID>
10450

> <CAS>
57-41-0

> <Original_SMILES>
O=C1NC(=O)C(N1)(c1ccccc1)c1ccccc1

> <preferred_name>
5,5-Diphenylhydantoin

> <dsstox_substance_id>
DTXSID8020541

> <dsstox_compound_id>
DTXCID60541

> <Canonical_QSARr>
O=C1NC(=O)C(N1)(C1C=CC=CC=1)C1C=CC=CC=1

> <InChI_Code_QSARr>
InChI=1S/C15H12N2O2/c18-13-15(17-14(19)16-13,11-7-3-1-4-8-11)12-9-5-2-6-10-12/h1-10H,(H2,16,17,18,19)

> <InChI Key_QSARr>
CXOFVDLJLONNDW-UHFFFAOYSA-N

> <Salt_Solvent>


> <Salt_Solvent_ID>
0

> <Clint>
0.36735592102601894

> <Tr_1_Tst_0>
0

$$$$
Row395
  Mrv171c012261910192D          

 16 16  0  0  0  0            999 V2000
    3.9709   -2.3001    0.0000 S   0  0  0  0  0  0  0  0  0  0  0  0
    4.3834   -3.0146    0.0000 P   0  0  0  0  0  0  0  0  0  0  0  0
    3.6690   -3.4271    0.0000 O   0  0  0  0  0  0  0  0  0  0  0  0
    3.6690   -4.2521    0.0000 C   0  0  0  0  0  0  0  0  0  0  0  0
    4.7959   -3.7291    0.0000 O   0  0  0  0  0  0  0  0  0  0  0  0
    4.3834   -4.4436    0.0000 C   0  0  0  0  0  0  0  0  0  0  0  0
    5.0979   -2.6021    0.0000 O   0  0  0  0  0  0  0  0  0  0  0  0
    5.0979   -1.7771    0.0000 C   0  0  0  0  0  0  0  0  0  0  0  0
    5.8124   -1.3646    0.0000 C   0  0  0  0  0  0  0  0  0  0  0  0
    5.8124   -0.5396    0.0000 C   0  0  0  0  0  0  0  0  0  0  0  0
    5.0979   -0.1271    0.0000 C   0  0  0  0  0  0  0  0  0  0  0  0
    5.0979    0.6979    0.0000 S   0  0  0  0  0  0  0  0  0  0  0  0
    4.3834    1.1104    0.0000 C   0  0  0  0  0  0  0  0  0  0  0  0
    4.3834   -0.5396    0.0000 C   0  0  0  0  0  0  0  0  0  0  0  0
    3.6690   -0.1271    0.0000 C   0  0  0  0  0  0  0  0  0  0  0  0
    4.3834   -1.3646    0.0000 C   0  0  0  0  0  0  0  0  0  0  0  0
  1  2  2  0  0  0  0
  2  3  1  0  0  0  0
  3  4  1  0  0  0  0
  2  5  1  0  0  0  0
  5  6  1  0  0  0  0
  2  7  1  0  0  0  0
  7  8  1  0  0  0  0
  9  8  1  0  0  0  0
 10  9  2  0  0  0  0
 11 10  1  0  0  0  0
 11 12  1  0  0  0  0
 12 13  1  0  0  0  0
 14 11  2  0  0  0  0
 14 15  1  0  0  0  0
 16 14  1  0  0  0  0
  8 16  2  0  0  0  0
M  END
> <ChemID>
10451

> <CAS>
55-38-9

> <Original_SMILES>
Cc1cc(ccc1SC)OP(=S)(OC)OC

> <preferred_name>
Fenthion

> <dsstox_substance_id>
DTXSID8020620

> <dsstox_compound_id>
DTXCID00620

> <Canonical_QSARr>
CC1C=C(C=CC=1SC)OP(=S)(OC)OC

> <InChI_Code_QSARr>
InChI=1S/C10H15O3PS2/c1-8-7-9(5-6-10(8)16-4)13-14(15,11-2)12-3/h5-7H,1-4H3

> <InChI Key_QSARr>
PNVJTZOFSHSLTO-UHFFFAOYSA-N

> <Salt_Solvent>


> <Salt_Solvent_ID>
0

> <Clint>
1.940516484932567

> <Tr_1_Tst_0>
1

$$$$
Row231
  Mrv171c012261910192D          

 16 16  0  0  0  0            999 V2000
    3.0827   -3.1200    0.0000 O   0  0  0  0  0  0  0  0  0  0  0  0
    3.7972   -2.7075    0.0000 C   0  0  0  0  0  0  0  0  0  0  0  0
    4.5117   -3.1200    0.0000 N   0  0  0  0  0  0  0  0  0  0  0  0
    4.5117   -3.9450    0.0000 C   0  0  0  0  0  0  0  0  0  0  0  0
    5.2262   -2.7075    0.0000 C   0  0  0  0  0  0  0  0  0  0  0  0
    3.7972   -1.8825    0.0000 N   0  0  0  0  0  0  0  0  0  0  0  0
    3.0827   -1.4700    0.0000 C   0  0  0  0  0  0  0  0  0  0  0  0
    3.0827   -0.6450    0.0000 C   0  0  0  0  0  0  0  0  0  0  0  0
    2.3683   -0.2325    0.0000 C   0  0  0  0  0  0  0  0  0  0  0  0
    2.3683    0.5925    0.0000 C   0  0  0  0  0  0  0  0  0  0  0  0
    2.3683    1.4175    0.0000 F   0  0  0  0  0  0  0  0  0  0  0  0
    3.1933    0.5925    0.0000 F   0  0  0  0  0  0  0  0  0  0  0  0
    1.5433    0.5925    0.0000 F   0  0  0  0  0  0  0  0  0  0  0  0
    1.6538   -0.6450    0.0000 C   0  0  0  0  0  0  0  0  0  0  0  0
    1.6538   -1.4700    0.0000 C   0  0  0  0  0  0  0  0  0  0  0  0
    2.3683   -1.8825    0.0000 C   0  0  0  0  0  0  0  0  0  0  0  0
  1  2  2  0  0  0  0
  2  3  1  0  0  0  0
  3  4  1  0  0  0  0
  3  5  1  0  0  0  0
  2  6  1  0  0  0  0
  6  7  1  0  0  0  0
  8  7  1  0  0  0  0
  9  8  2  0  0  0  0
  9 10  1  0  0  0  0
 10 11  1  0  0  0  0
 10 12  1  0  0  0  0
 10 13  1  0  0  0  0
 14  9  1  0  0  0  0
 15 14  2  0  0  0  0
 16 15  1  0  0  0  0
  7 16  2  0  0  0  0
M  END
> <ChemID>
10452

> <CAS>
2164-17-2

> <Original_SMILES>
CN(C)C(=O)Nc1cc(ccc1)C(F)(F)F

> <preferred_name>
Fluometuron

> <dsstox_substance_id>
DTXSID8020628

> <dsstox_compound_id>
DTXCID40628

> <Canonical_QSARr>
CN(C)C(=O)NC1C=C(C=CC=1)C(F)(F)F

> <InChI_Code_QSARr>
InChI=1S/C10H11F3N2O/c1-15(2)9(16)14-8-5-3-4-7(6-8)10(11,12)13/h3-6H,1-2H3,(H,14,16)

> <InChI Key_QSARr>
RZILCCPWPBTYDO-UHFFFAOYSA-N

> <Salt_Solvent>


> <Salt_Solvent_ID>
0

> <Clint>
1.0025979807199086

> <Tr_1_Tst_0>
1

$$$$
Row99
  Mrv171c012261910192D          

 10 10  0  0  0  0            999 V2000
    0.7801   -0.0880    0.0000 O   0  0  0  0  0  0  0  0  0  0  0  0
    1.4946   -0.5005    0.0000 C   0  0  0  0  0  0  0  0  0  0  0  0
    2.2091   -0.0880    0.0000 N   0  0  0  0  0  0  0  0  0  0  0  0
    2.2091    0.7370    0.0000 N   0  0  0  0  0  0  0  0  0  0  0  0
    1.4946   -1.3255    0.0000 C   0  0  0  0  0  0  0  0  0  0  0  0
    0.7801   -1.7380    0.0000 C   0  0  0  0  0  0  0  0  0  0  0  0
    0.7801   -2.5630    0.0000 C   0  0  0  0  0  0  0  0  0  0  0  0
    1.4946   -2.9755    0.0000 N   0  0  0  0  0  0  0  0  0  0  0  0
    2.2091   -2.5630    0.0000 C   0  0  0  0  0  0  0  0  0  0  0  0
    2.2091   -1.7380    0.0000 C   0  0  0  0  0  0  0  0  0  0  0  0
  1  2  2  0  0  0  0
  2  3  1  0  0  0  0
  3  4  1  0  0  0  0
  2  5  1  0  0  0  0
  6  5  1  0  0  0  0
  7  6  2  0  0  0  0
  8  7  1  0  0  0  0
  9  8  2  0  0  0  0
 10  9  1  0  0  0  0
  5 10  2  0  0  0  0
M  END
> <ChemID>
10453

> <CAS>
54-85-3

> <Original_SMILES>
NNC(=O)c1cc[n]cc1

> <preferred_name>
Isoniazid

> <dsstox_substance_id>
DTXSID8020755

> <dsstox_compound_id>
DTXCID20755

> <Canonical_QSARr>
NNC(=O)C1C=CN=CC=1

> <InChI_Code_QSARr>
InChI=1S/C6H7N3O/c7-9-6(10)5-1-3-8-4-2-5/h1-4H,7H2,(H,9,10)

> <InChI Key_QSARr>
QRXWMOHMRWLFEY-UHFFFAOYSA-N

> <Salt_Solvent>


> <Salt_Solvent_ID>
0

> <Clint>
0.04532297878665747

> <Tr_1_Tst_0>
1

$$$$
Row490
  Mrv171c012261910192D          

 10 11  0  0  0  0            999 V2000
    0.7153   -1.6500    0.0000 C   0  0  0  0  0  0  0  0  0  0  0  0
    0.0008   -1.2375    0.0000 C   0  0  0  0  0  0  0  0  0  0  0  0
    0.0008   -0.4125    0.0000 C   0  0  0  0  0  0  0  0  0  0  0  0
    0.7153    0.0000    0.0000 C   0  0  0  0  0  0  0  0  0  0  0  0
    1.4297   -0.4125    0.0000 C   0  0  0  0  0  0  0  0  0  0  0  0
    2.1442    0.0000    0.0000 C   0  0  0  0  0  0  0  0  0  0  0  0
    2.8587   -0.4125    0.0000 C   0  0  0  0  0  0  0  0  0  0  0  0
    2.8587   -1.2375    0.0000 C   0  0  0  0  0  0  0  0  0  0  0  0
    2.1442   -1.6500    0.0000 C   0  0  0  0  0  0  0  0  0  0  0  0
    1.4297   -1.2375    0.0000 C   0  0  0  0  0  0  0  0  0  0  0  0
  2  1  1  0  0  0  0
  3  2  2  0  0  0  0
  4  3  1  0  0  0  0
  5  4  2  0  0  0  0
  5  6  1  0  0  0  0
  6  7  2  0  0  0  0
  7  8  1  0  0  0  0
  8  9  2  0  0  0  0
  9 10  1  0  0  0  0
  1 10  2  0  0  0  0
 10  5  1  0  0  0  0
M  END
> <ChemID>
10454

> <CAS>
91-20-3

> <Original_SMILES>
c1cccc2ccccc21

> <preferred_name>
Naphthalene

> <dsstox_substance_id>
DTXSID8020913

> <dsstox_compound_id>
DTXCID00913

> <Canonical_QSARr>
C1=CC=CC2=CC=CC=C21

> <InChI_Code_QSARr>
InChI=1S/C10H8/c1-2-6-10-8-4-3-7-9(10)5-1/h1-8H

> <InChI Key_QSARr>
UFWIBTONFRDIAS-UHFFFAOYSA-N

> <Salt_Solvent>


> <Salt_Solvent_ID>
0

> <Clint>
1.0167827124868405

> <Tr_1_Tst_0>
0

$$$$
Row120
  Mrv171c012261910192D          

 21 23  0  0  0  0            999 V2000
    2.6033   -5.0806    0.0000 C   0  0  0  0  0  0  0  0  0  0  0  0
    2.7869   -4.2763    0.0000 N   0  0  0  0  0  0  0  0  0  0  0  0
    3.5912   -4.0927    0.0000 C   0  0  0  0  0  0  0  0  0  0  0  0
    4.1055   -4.7377    0.0000 O   0  0  0  0  0  0  0  0  0  0  0  0
    3.9491   -3.3494    0.0000 C   0  0  0  0  0  0  0  0  0  0  0  0
    4.7741   -3.3494    0.0000 O   0  0  0  0  0  0  0  0  0  0  0  0
    3.5912   -2.6061    0.0000 N   0  0  0  0  0  0  0  0  0  0  0  0
    2.7869   -2.4225    0.0000 C   0  0  0  0  0  0  0  0  0  0  0  0
    2.6033   -1.6182    0.0000 C   0  0  0  0  0  0  0  0  0  0  0  0
    3.2080   -1.0571    0.0000 C   0  0  0  0  0  0  0  0  0  0  0  0
    3.0245   -0.2528    0.0000 C   0  0  0  0  0  0  0  0  0  0  0  0
    2.2361   -0.0096    0.0000 C   0  0  0  0  0  0  0  0  0  0  0  0
    1.6313   -0.5707    0.0000 C   0  0  0  0  0  0  0  0  0  0  0  0
    1.8149   -1.3751    0.0000 C   0  0  0  0  0  0  0  0  0  0  0  0
    2.1418   -2.9369    0.0000 C   0  0  0  0  0  0  0  0  0  0  0  0
    1.4274   -2.5244    0.0000 C   0  0  0  0  0  0  0  0  0  0  0  0
    0.7129   -2.9369    0.0000 C   0  0  0  0  0  0  0  0  0  0  0  0
   -0.0016   -2.5244    0.0000 Cl  0  0  0  0  0  0  0  0  0  0  0  0
    0.7129   -3.7619    0.0000 C   0  0  0  0  0  0  0  0  0  0  0  0
    1.4274   -4.1744    0.0000 C   0  0  0  0  0  0  0  0  0  0  0  0
    2.1418   -3.7619    0.0000 C   0  0  0  0  0  0  0  0  0  0  0  0
  1  2  1  0  0  0  0
  3  2  1  0  0  0  0
  3  4  2  0  0  0  0
  5  3  1  0  0  0  0
  5  6  1  0  0  0  0
  7  5  1  0  0  0  0
  8  7  2  0  0  0  0
  8  9  1  0  0  0  0
 10  9  1  0  0  0  0
 11 10  2  0  0  0  0
 12 11  1  0  0  0  0
 13 12  2  0  0  0  0
 14 13  1  0  0  0  0
  9 14  2  0  0  0  0
 15  8  1  0  0  0  0
 15 16  2  0  0  0  0
 16 17  1  0  0  0  0
 17 18  1  0  0  0  0
 17 19  2  0  0  0  0
 19 20  1  0  0  0  0
 20 21  2  0  0  0  0
  2 21  1  0  0  0  0
 21 15  1  0  0  0  0
M  END
> <ChemID>
10455

> <CAS>
846-50-4

> <Original_SMILES>
CN1C(=O)C(O)N=C(c2cc(Cl)ccc12)c1ccccc1

> <preferred_name>
Temazepam

> <dsstox_substance_id>
DTXSID8021309

> <dsstox_compound_id>
DTXCID301309

> <Canonical_QSARr>
CN1C(=O)C(O)N=C(C2=CC(Cl)=CC=C12)C1C=CC=CC=1

> <InChI_Code_QSARr>
InChI=1S/C16H13ClN2O2/c1-19-13-8-7-11(17)9-12(13)14(18-15(20)16(19)21)10-5-3-2-4-6-10/h2-9,15,20H,1H3

> <InChI Key_QSARr>
SEQDDYPDSLOBDC-UHFFFAOYSA-N

> <Salt_Solvent>


> <Salt_Solvent_ID>
0

> <Clint>
0.30102999566398114

> <Tr_1_Tst_0>
1

$$$$
Row109
  Mrv171c012261910192D          

 18 18  0  0  0  0            999 V2000
    3.0366   -1.7065    0.0000 O   0  0  0  0  0  0  0  0  0  0  0  0
    2.6241   -0.9920    0.0000 S   0  0  0  0  0  0  0  0  0  0  0  0
    3.3386   -0.5795    0.0000 N   0  0  0  0  0  0  0  0  0  0  0  0
    4.0531   -0.9920    0.0000 C   0  0  0  0  0  0  0  0  0  0  0  0
    4.7675   -0.5795    0.0000 N   0  0  0  0  0  0  0  0  0  0  0  0
    5.4820   -0.9920    0.0000 C   0  0  0  0  0  0  0  0  0  0  0  0
    6.1965   -0.5795    0.0000 C   0  0  0  0  0  0  0  0  0  0  0  0
    6.9109   -0.9920    0.0000 C   0  0  0  0  0  0  0  0  0  0  0  0
    7.6254   -0.5795    0.0000 C   0  0  0  0  0  0  0  0  0  0  0  0
    4.0531   -1.8170    0.0000 O   0  0  0  0  0  0  0  0  0  0  0  0
    1.9096   -1.4045    0.0000 C   0  0  0  0  0  0  0  0  0  0  0  0
    1.1952   -0.9920    0.0000 C   0  0  0  0  0  0  0  0  0  0  0  0
    0.4807   -1.4045    0.0000 C   0  0  0  0  0  0  0  0  0  0  0  0
    0.4807   -2.2295    0.0000 C   0  0  0  0  0  0  0  0  0  0  0  0
   -0.2338   -2.6420    0.0000 C   0  0  0  0  0  0  0  0  0  0  0  0
    1.1952   -2.6420    0.0000 C   0  0  0  0  0  0  0  0  0  0  0  0
    1.9096   -2.2295    0.0000 C   0  0  0  0  0  0  0  0  0  0  0  0
    2.2116   -0.2775    0.0000 O   0  0  0  0  0  0  0  0  0  0  0  0
  1  2  2  0  0  0  0
  2  3  1  0  0  0  0
  3  4  1  0  0  0  0
  4  5  1  0  0  0  0
  5  6  1  0  0  0  0
  6  7  1  0  0  0  0
  7  8  1  0  0  0  0
  8  9  1  0  0  0  0
  4 10  2  0  0  0  0
  2 11  1  0  0  0  0
 12 11  1  0  0  0  0
 13 12  2  0  0  0  0
 14 13  1  0  0  0  0
 14 15  1  0  0  0  0
 16 14  2  0  0  0  0
 17 16  1  0  0  0  0
 11 17  2  0  0  0  0
  2 18  2  0  0  0  0
M  END
> <ChemID>
10456

> <CAS>
64-77-7

> <Original_SMILES>
Cc1ccc(cc1)S(=O)(=O)NC(=O)NCCCC

> <preferred_name>
Tolbutamide

> <dsstox_substance_id>
DTXSID8021359

> <dsstox_compound_id>
DTXCID801359

> <Canonical_QSARr>
CC1C=CC(=CC=1)S(=O)(=O)NC(=O)NCCCC

> <InChI_Code_QSARr>
InChI=1S/C12H18N2O3S/c1-3-4-9-13-12(15)14-18(16,17)11-7-5-10(2)6-8-11/h5-8H,3-4,9H2,1-2H3,(H2,13,14,15)

> <InChI Key_QSARr>
JLRGJRBPOGGCBT-UHFFFAOYSA-N

> <Salt_Solvent>


> <Salt_Solvent_ID>
0

> <Clint>
0.2041199826559248

> <Tr_1_Tst_0>
1

$$$$
Row312
  Mrv171c012261910192D          

 12 12  0  0  0  0            999 V2000
    1.6733   -3.3000    0.0000 C   0  0  0  0  0  0  0  0  0  0  0  0
    2.3877   -2.8875    0.0000 C   0  0  0  0  0  0  0  0  0  0  0  0
    2.3877   -2.0625    0.0000 C   0  0  0  0  0  0  0  0  0  0  0  0
    2.3877   -1.2375    0.0000 C   0  0  0  0  0  0  0  0  0  0  0  0
    3.1022   -0.8250    0.0000 C   0  0  0  0  0  0  0  0  0  0  0  0
    3.1022    0.0000    0.0000 C   0  0  0  0  0  0  0  0  0  0  0  0
    2.3877    0.4125    0.0000 C   0  0  0  0  0  0  0  0  0  0  0  0
    2.3877    1.2375    0.0000 O   0  0  0  0  0  0  0  0  0  0  0  0
    1.6733    0.0000    0.0000 C   0  0  0  0  0  0  0  0  0  0  0  0
    1.6733   -0.8250    0.0000 C   0  0  0  0  0  0  0  0  0  0  0  0
    3.2127   -2.0625    0.0000 C   0  0  0  0  0  0  0  0  0  0  0  0
    1.5627   -2.0625    0.0000 C   0  0  0  0  0  0  0  0  0  0  0  0
  1  2  1  0  0  0  0
  2  3  1  0  0  0  0
  3  4  1  0  0  0  0
  5  4  1  0  0  0  0
  6  5  2  0  0  0  0
  7  6  1  0  0  0  0
  7  8  1  0  0  0  0
  9  7  2  0  0  0  0
 10  9  1  0  0  0  0
  4 10  2  0  0  0  0
  3 11  1  0  0  0  0
  3 12  1  0  0  0  0
M  END
> <ChemID>
10457

> <CAS>
80-46-6

> <Original_SMILES>
CC(C)(CC)c1ccc(O)cc1

> <preferred_name>
4-(2-Methylbutan-2-yl)phenol

> <dsstox_substance_id>
DTXSID8021771

> <dsstox_compound_id>
DTXCID001771

> <Canonical_QSARr>
CC(C)(CC)C1C=CC(O)=CC=1

> <InChI_Code_QSARr>
InChI=1S/C11H16O/c1-4-11(2,3)9-5-7-10(12)8-6-9/h5-8,12H,4H2,1-3H3

> <InChI Key_QSARr>
NRZWYNLTFLDQQX-UHFFFAOYSA-N

> <Salt_Solvent>


> <Salt_Solvent_ID>
0

> <Clint>
1.3212995649450636

> <Tr_1_Tst_0>
1

$$$$
Row488
  Mrv171c012261910192D          

 11 11  0  0  0  0            999 V2000
    2.6189    1.2341    0.0000 C   0  0  0  0  0  0  0  0  0  0  0  0
    2.6189    0.4091    0.0000 C   0  0  0  0  0  0  0  0  0  0  0  0
    1.9044   -0.0034    0.0000 N   0  0  0  0  0  0  0  0  0  0  0  0
    1.9044   -0.8284    0.0000 C   0  0  0  0  0  0  0  0  0  0  0  0
    1.1900   -1.2409    0.0000 C   0  0  0  0  0  0  0  0  0  0  0  0
    1.1900   -2.0659    0.0000 C   0  0  0  0  0  0  0  0  0  0  0  0
    1.9044   -2.4784    0.0000 C   0  0  0  0  0  0  0  0  0  0  0  0
    2.6189   -2.0659    0.0000 C   0  0  0  0  0  0  0  0  0  0  0  0
    2.6189   -1.2409    0.0000 C   0  0  0  0  0  0  0  0  0  0  0  0
    1.1900    0.4091    0.0000 C   0  0  0  0  0  0  0  0  0  0  0  0
    0.4755   -0.0034    0.0000 C   0  0  0  0  0  0  0  0  0  0  0  0
  1  2  1  0  0  0  0
  2  3  1  0  0  0  0
  3  4  1  0  0  0  0
  5  4  1  0  0  0  0
  6  5  2  0  0  0  0
  7  6  1  0  0  0  0
  8  7  2  0  0  0  0
  9  8  1  0  0  0  0
  4  9  2  0  0  0  0
  3 10  1  0  0  0  0
 10 11  1  0  0  0  0
M  END
> <ChemID>
10458

> <CAS>
91-66-7

> <Original_SMILES>
CCN(CC)c1ccccc1

> <preferred_name>
N,N-Diethylaniline

> <dsstox_substance_id>
DTXSID8021800

> <dsstox_compound_id>
DTXCID701800

> <Canonical_QSARr>
CCN(CC)C1C=CC=CC=1

> <InChI_Code_QSARr>
InChI=1S/C10H15N/c1-3-11(4-2)10-8-6-5-7-9-10/h5-9H,3-4H2,1-2H3

> <InChI Key_QSARr>
GGSUCNLOZRCGPQ-UHFFFAOYSA-N

> <Salt_Solvent>


> <Salt_Solvent_ID>
0

> <Clint>
0.9917575395343479

> <Tr_1_Tst_0>
0

$$$$
Row341
  Mrv171c012261910192D          

  8  8  0  0  0  0            999 V2000
    0.0912   -0.7359    0.0000 O   0  0  0  0  0  0  0  0  0  0  0  0
    0.8057   -1.1484    0.0000 C   0  0  0  0  0  0  0  0  0  0  0  0
    0.8057   -1.9734    0.0000 C   0  0  0  0  0  0  0  0  0  0  0  0
    1.5202   -2.3859    0.0000 C   0  0  0  0  0  0  0  0  0  0  0  0
    2.2347   -1.9734    0.0000 C   0  0  0  0  0  0  0  0  0  0  0  0
    2.2347   -1.1484    0.0000 C   0  0  0  0  0  0  0  0  0  0  0  0
    1.5202   -0.7359    0.0000 C   0  0  0  0  0  0  0  0  0  0  0  0
    1.5202    0.0891    0.0000 C   0  0  0  0  0  0  0  0  0  0  0  0
  1  2  1  0  0  0  0
  3  2  1  0  0  0  0
  4  3  2  0  0  0  0
  5  4  1  0  0  0  0
  6  5  2  0  0  0  0
  7  6  1  0  0  0  0
  2  7  2  0  0  0  0
  7  8  1  0  0  0  0
M  END
> <ChemID>
10459

> <CAS>
95-48-7

> <Original_SMILES>
Cc1ccccc1O

> <preferred_name>
o-Cresol

> <dsstox_substance_id>
DTXSID8021808

> <dsstox_compound_id>
DTXCID901808

> <Canonical_QSARr>
CC1C=CC=CC=1O

> <InChI_Code_QSARr>
InChI=1S/C7H8O/c1-6-4-2-3-5-7(6)8/h2-5,8H,1H3

> <InChI Key_QSARr>
QWVGKYWNOKOFNN-UHFFFAOYSA-N

> <Salt_Solvent>


> <Salt_Solvent_ID>
0

> <Clint>
1.4390167283875126

> <Tr_1_Tst_0>
1

$$$$
Row367
  Mrv171c012261910192D          

 13 13  0  0  0  0            999 V2000
    3.0246   -1.3646    0.0000 C   0  0  0  0  0  0  0  0  0  0  0  0
    2.3101   -0.9521    0.0000 C   0  0  0  0  0  0  0  0  0  0  0  0
    2.3101   -0.1271    0.0000 N   0  0  0  0  0  0  0  0  0  0  0  0
    1.5957    0.2854    0.0000 C   0  0  0  0  0  0  0  0  0  0  0  0
    1.5957    1.1104    0.0000 C   0  0  0  0  0  0  0  0  0  0  0  0
    0.8812    1.5229    0.0000 C   0  0  0  0  0  0  0  0  0  0  0  0
    0.8812   -0.1271    0.0000 O   0  0  0  0  0  0  0  0  0  0  0  0
    1.5957   -1.3646    0.0000 C   0  0  0  0  0  0  0  0  0  0  0  0
    1.5957   -2.1896    0.0000 C   0  0  0  0  0  0  0  0  0  0  0  0
    2.3101   -2.6021    0.0000 C   0  0  0  0  0  0  0  0  0  0  0  0
    2.3101   -3.4271    0.0000 Cl  0  0  0  0  0  0  0  0  0  0  0  0
    3.0246   -2.1896    0.0000 C   0  0  0  0  0  0  0  0  0  0  0  0
    3.7391   -2.6021    0.0000 Cl  0  0  0  0  0  0  0  0  0  0  0  0
  2  1  1  0  0  0  0
  2  3  1  0  0  0  0
  3  4  1  0  0  0  0
  4  5  1  0  0  0  0
  5  6  1  0  0  0  0
  4  7  2  0  0  0  0
  8  2  2  0  0  0  0
  9  8  1  0  0  0  0
 10  9  2  0  0  0  0
 10 11  1  0  0  0  0
 12 10  1  0  0  0  0
  1 12  2  0  0  0  0
 12 13  1  0  0  0  0
M  END
> <ChemID>
10460

> <CAS>
709-98-8

> <Original_SMILES>
CCC(=O)Nc1cc(Cl)c(Cl)cc1

> <preferred_name>
Propanil

> <dsstox_substance_id>
DTXSID8022111

> <dsstox_compound_id>
DTXCID102111

> <Canonical_QSARr>
CCC(=O)NC1C=C(Cl)C(Cl)=CC=1

> <InChI_Code_QSARr>
InChI=1S/C9H9Cl2NO/c1-2-9(13)12-6-3-4-7(10)8(11)5-6/h3-5H,2H2,1H3,(H,12,13)

> <InChI Key_QSARr>
LFULEKSKNZEWOE-UHFFFAOYSA-N

> <Salt_Solvent>


> <Salt_Solvent_ID>
0

> <Clint>
1.5899496013257075

> <Tr_1_Tst_0>
1

$$$$
Row376
  Mrv171c012261910192D          

 26 28  0  0  0  0            999 V2000
    4.9043   -2.2704    0.0000 C   0  0  0  0  0  0  0  0  0  0  0  0
    4.1899   -1.8579    0.0000 C   0  0  0  0  0  0  0  0  0  0  0  0
    4.1899   -1.0329    0.0000 C   0  0  0  0  0  0  0  0  0  0  0  0
    4.9043   -0.6204    0.0000 O   0  0  0  0  0  0  0  0  0  0  0  0
    4.9043    0.2046    0.0000 C   0  0  0  0  0  0  0  0  0  0  0  0
    5.6188    0.6171    0.0000 C   0  0  0  0  0  0  0  0  0  0  0  0
    6.4438    0.6171    0.0000 C   0  0  0  0  0  0  0  0  0  0  0  0
    7.1583    0.2046    0.0000 C   0  0  0  0  0  0  0  0  0  0  0  0
    7.8728    0.6171    0.0000 C   0  0  0  0  0  0  0  0  0  0  0  0
    7.8728    1.4421    0.0000 Cl  0  0  0  0  0  0  0  0  0  0  0  0
    8.5872    0.2046    0.0000 Cl  0  0  0  0  0  0  0  0  0  0  0  0
    6.0313    1.3316    0.0000 C   0  0  0  0  0  0  0  0  0  0  0  0
    6.5045    2.0074    0.0000 C   0  0  0  0  0  0  0  0  0  0  0  0
    5.5581    2.0074    0.0000 C   0  0  0  0  0  0  0  0  0  0  0  0
    4.1899    0.6171    0.0000 O   0  0  0  0  0  0  0  0  0  0  0  0
    3.4754   -2.2704    0.0000 C   0  0  0  0  0  0  0  0  0  0  0  0
    3.4754   -3.0954    0.0000 C   0  0  0  0  0  0  0  0  0  0  0  0
    2.7609   -3.5079    0.0000 O   0  0  0  0  0  0  0  0  0  0  0  0
    2.7609   -4.3329    0.0000 C   0  0  0  0  0  0  0  0  0  0  0  0
    2.0465   -4.7454    0.0000 C   0  0  0  0  0  0  0  0  0  0  0  0
    2.0465   -5.5704    0.0000 C   0  0  0  0  0  0  0  0  0  0  0  0
    2.7609   -5.9829    0.0000 C   0  0  0  0  0  0  0  0  0  0  0  0
    3.4754   -5.5704    0.0000 C   0  0  0  0  0  0  0  0  0  0  0  0
    3.4754   -4.7454    0.0000 C   0  0  0  0  0  0  0  0  0  0  0  0
    4.1899   -3.5079    0.0000 C   0  0  0  0  0  0  0  0  0  0  0  0
    4.9043   -3.0954    0.0000 C   0  0  0  0  0  0  0  0  0  0  0  0
  2  1  1  0  0  0  0
  2  3  1  0  0  0  0
  3  4  1  0  0  0  0
  4  5  1  0  0  0  0
  5  6  1  0  0  0  0
  7  6  1  0  0  0  0
  7  8  1  0  0  0  0
  8  9  2  0  0  0  0
  9 10  1  0  0  0  0
  9 11  1  0  0  0  0
 12  7  1  0  0  0  0
  6 12  1  0  0  0  0
 12 13  1  0  0  0  0
 12 14  1  0  0  0  0
  5 15  2  0  0  0  0
 16  2  2  0  0  0  0
 17 16  1  0  0  0  0
 17 18  1  0  0  0  0
 18 19  1  0  0  0  0
 20 19  1  0  0  0  0
 21 20  2  0  0  0  0
 22 21  1  0  0  0  0
 23 22  2  0  0  0  0
 24 23  1  0  0  0  0
 19 24  2  0  0  0  0
 25 17  2  0  0  0  0
 26 25  1  0  0  0  0
  1 26  2  0  0  0  0
M  END
> <ChemID>
10461

> <CAS>
52645-53-1

> <Original_SMILES>
CC1(C)C(C1C=C(Cl)Cl)C(=O)OCc1cccc(c1)Oc1ccccc1

> <preferred_name>
Permethrin

> <dsstox_substance_id>
DTXSID8022292

> <dsstox_compound_id>
DTXCID102292

> <Canonical_QSARr>
CC1(C)C(C1C=C(Cl)Cl)C(=O)OCC1C=CC=C(C=1)OC1C=CC=CC=1

> <InChI_Code_QSARr>
InChI=1S/C21H20Cl2O3/c1-21(2)17(12-18(22)23)19(21)20(24)25-13-14-7-6-10-16(11-14)26-15-8-4-3-5-9-15/h3-12,17,19H,13H2,1-2H3

> <InChI Key_QSARr>
RLLPVAHGXHCWKJ-UHFFFAOYSA-N

> <Salt_Solvent>


> <Salt_Solvent_ID>
0

> <Clint>
1.6647359685187049

> <Tr_1_Tst_0>
1

$$$$
Row405
  Mrv171c012261910192D          

 19 20  0  0  0  0            999 V2000
    1.7315   -2.7776    0.0000 C   0  0  0  0  0  0  0  0  0  0  0  0
    1.3190   -2.0632    0.0000 Cl  0  0  0  0  0  0  0  0  0  0  0  0
    2.1440   -3.4921    0.0000 Cl  0  0  0  0  0  0  0  0  0  0  0  0
    1.0170   -3.1901    0.0000 Cl  0  0  0  0  0  0  0  0  0  0  0  0
    2.4459   -2.3651    0.0000 C   0  0  0  0  0  0  0  0  0  0  0  0
    2.4459   -1.5401    0.0000 C   0  0  0  0  0  0  0  0  0  0  0  0
    3.1604   -1.1276    0.0000 C   0  0  0  0  0  0  0  0  0  0  0  0
    3.1604   -0.3026    0.0000 C   0  0  0  0  0  0  0  0  0  0  0  0
    2.4459    0.1099    0.0000 C   0  0  0  0  0  0  0  0  0  0  0  0
    2.4459    0.9349    0.0000 O   0  0  0  0  0  0  0  0  0  0  0  0
    1.7315   -0.3026    0.0000 C   0  0  0  0  0  0  0  0  0  0  0  0
    1.7315   -1.1276    0.0000 C   0  0  0  0  0  0  0  0  0  0  0  0
    3.1604   -2.7776    0.0000 C   0  0  0  0  0  0  0  0  0  0  0  0
    3.1604   -3.6026    0.0000 C   0  0  0  0  0  0  0  0  0  0  0  0
    3.8749   -4.0151    0.0000 C   0  0  0  0  0  0  0  0  0  0  0  0
    4.5894   -3.6026    0.0000 C   0  0  0  0  0  0  0  0  0  0  0  0
    5.3038   -4.0151    0.0000 O   0  0  0  0  0  0  0  0  0  0  0  0
    4.5894   -2.7776    0.0000 C   0  0  0  0  0  0  0  0  0  0  0  0
    3.8749   -2.3651    0.0000 C   0  0  0  0  0  0  0  0  0  0  0  0
  1  2  1  0  0  0  0
  1  3  1  0  0  0  0
  1  4  1  0  0  0  0
  1  5  1  0  0  0  0
  5  6  1  0  0  0  0
  7  6  2  0  0  0  0
  8  7  1  0  0  0  0
  9  8  2  0  0  0  0
  9 10  1  0  0  0  0
 11  9  1  0  0  0  0
 12 11  2  0  0  0  0
  6 12  1  0  0  0  0
  5 13  1  0  0  0  0
 14 13  2  0  0  0  0
 15 14  1  0  0  0  0
 16 15  2  0  0  0  0
 16 17  1  0  0  0  0
 18 16  1  0  0  0  0
 19 18  2  0  0  0  0
 13 19  1  0  0  0  0
M  END
> <ChemID>
10462

> <CAS>
2971-36-0

> <Original_SMILES>
Oc1ccc(cc1)C(c1ccc(O)cc1)C(Cl)(Cl)Cl

> <preferred_name>
2,2-Bis(4-hydroxyphenyl)-1,1,1-trichloroethane

> <dsstox_substance_id>
DTXSID8022325

> <dsstox_compound_id>
DTXCID402325

> <Canonical_QSARr>
OC1C=CC(=CC=1)C(C1C=CC(O)=CC=1)C(Cl)(Cl)Cl

> <InChI_Code_QSARr>
InChI=1S/C14H11Cl3O2/c15-14(16,17)13(9-1-5-11(18)6-2-9)10-3-7-12(19)8-4-10/h1-8,13,18-19H

> <InChI Key_QSARr>
IUGDILGOLSSKNE-UHFFFAOYSA-N

> <Salt_Solvent>


> <Salt_Solvent_ID>
0

> <Clint>
2.1351326513767748

> <Tr_1_Tst_0>
1

$$$$
Row87
  Mrv171c012261910192D          

 17 18  0  0  0  0            999 V2000
    3.6690   -2.7069    0.0000 N   0  0  0  0  0  0  0  0  0  0  0  0
    3.6690   -1.8819    0.0000 C   0  0  0  0  0  0  0  0  0  0  0  0
    4.3835   -1.4694    0.0000 O   0  0  0  0  0  0  0  0  0  0  0  0
    2.9545   -1.4694    0.0000 C   0  0  0  0  0  0  0  0  0  0  0  0
    3.4848   -0.8374    0.0000 C   0  0  0  0  0  0  0  0  0  0  0  0
    4.2973   -0.9807    0.0000 C   0  0  0  0  0  0  0  0  0  0  0  0
    2.4242   -0.8374    0.0000 C   0  0  0  0  0  0  0  0  0  0  0  0
    2.7064   -0.0622    0.0000 C   0  0  0  0  0  0  0  0  0  0  0  0
    2.1761    0.5698    0.0000 C   0  0  0  0  0  0  0  0  0  0  0  0
    1.3636    0.4266    0.0000 C   0  0  0  0  0  0  0  0  0  0  0  0
    0.8333    1.0586    0.0000 N   0  0  0  0  0  0  0  0  0  0  0  0
    1.0815   -0.3487    0.0000 C   0  0  0  0  0  0  0  0  0  0  0  0
    1.6118   -0.9807    0.0000 C   0  0  0  0  0  0  0  0  0  0  0  0
    2.2401   -1.8819    0.0000 C   0  0  0  0  0  0  0  0  0  0  0  0
    2.2401   -2.7069    0.0000 C   0  0  0  0  0  0  0  0  0  0  0  0
    2.9545   -3.1194    0.0000 C   0  0  0  0  0  0  0  0  0  0  0  0
    2.9545   -3.9444    0.0000 O   0  0  0  0  0  0  0  0  0  0  0  0
  2  1  1  0  0  0  0
  2  3  2  0  0  0  0
  4  2  1  0  0  0  0
  4  5  1  0  0  0  0
  5  6  1  0  0  0  0
  4  7  1  0  0  0  0
  8  7  1  0  0  0  0
  9  8  2  0  0  0  0
 10  9  1  0  0  0  0
 10 11  1  0  0  0  0
 12 10  2  0  0  0  0
 13 12  1  0  0  0  0
  7 13  2  0  0  0  0
 14  4  1  0  0  0  0
 15 14  1  0  0  0  0
 16 15  1  0  0  0  0
  1 16  1  0  0  0  0
 16 17  2  0  0  0  0
M  END
> <ChemID>
10463

> <CAS>
125-84-8

> <Original_SMILES>
CCC1(CCC(=O)NC1=O)c1ccc(N)cc1

> <preferred_name>
Aminoglutethimide

> <dsstox_substance_id>
DTXSID8022589

> <dsstox_compound_id>
DTXCID202589

> <Canonical_QSARr>
CCC1(CCC(=O)NC1=O)C1C=CC(N)=CC=1

> <InChI_Code_QSARr>
InChI=1S/C13H16N2O2/c1-2-13(8-7-11(16)15-12(13)17)9-3-5-10(14)6-4-9/h3-6H,2,7-8,14H2,1H3,(H,15,16,17)

> <InChI Key_QSARr>
ROBVIMPUHSLWNV-UHFFFAOYSA-N

> <Salt_Solvent>


> <Salt_Solvent_ID>
0

> <Clint>
-0.1408617027054692

> <Tr_1_Tst_0>
1

$$$$
Row356
  Mrv171c012261910192D          

 30 33  0  0  0  0            999 V2000
    1.9859   -5.0499    0.0000 C   0  0  0  0  0  0  0  0  0  0  0  0
    2.3215   -4.2962    0.0000 C   0  0  0  0  0  0  0  0  0  0  0  0
    1.8365   -3.6288    0.0000 C   0  0  0  0  0  0  0  0  0  0  0  0
    2.0081   -2.8218    0.0000 C   0  0  0  0  0  0  0  0  0  0  0  0
    2.7225   -2.4093    0.0000 C   0  0  0  0  0  0  0  0  0  0  0  0
    3.4370   -2.8218    0.0000 O   0  0  0  0  0  0  0  0  0  0  0  0
    4.1515   -2.4093    0.0000 C   0  0  0  0  0  0  0  0  0  0  0  0
    4.8659   -2.8218    0.0000 C   0  0  0  0  0  0  0  0  0  0  0  0
    5.5804   -2.4093    0.0000 C   0  0  0  0  0  0  0  0  0  0  0  0
    6.2949   -2.8218    0.0000 N   0  0  0  0  0  0  0  0  0  0  0  0
    7.0094   -2.4093    0.0000 C   0  0  0  0  0  0  0  0  0  0  0  0
    7.7238   -2.8218    0.0000 C   0  0  0  0  0  0  0  0  0  0  0  0
    8.4383   -2.4093    0.0000 O   0  0  0  0  0  0  0  0  0  0  0  0
    9.1528   -2.8218    0.0000 C   0  0  0  0  0  0  0  0  0  0  0  0
    9.1528   -3.6468    0.0000 C   0  0  0  0  0  0  0  0  0  0  0  0
    9.8672   -4.0593    0.0000 C   0  0  0  0  0  0  0  0  0  0  0  0
   10.5817   -3.6468    0.0000 C   0  0  0  0  0  0  0  0  0  0  0  0
   10.5817   -2.8218    0.0000 C   0  0  0  0  0  0  0  0  0  0  0  0
    9.8672   -2.4093    0.0000 C   0  0  0  0  0  0  0  0  0  0  0  0
    9.8672   -1.5843    0.0000 O   0  0  0  0  0  0  0  0  0  0  0  0
    9.1528   -1.1718    0.0000 C   0  0  0  0  0  0  0  0  0  0  0  0
    4.8659   -3.6468    0.0000 O   0  0  0  0  0  0  0  0  0  0  0  0
    2.7225   -1.5843    0.0000 C   0  0  0  0  0  0  0  0  0  0  0  0
    2.0081   -1.1718    0.0000 C   0  0  0  0  0  0  0  0  0  0  0  0
    1.2936   -1.5843    0.0000 C   0  0  0  0  0  0  0  0  0  0  0  0
    1.2936   -2.4093    0.0000 C   0  0  0  0  0  0  0  0  0  0  0  0
    0.6805   -2.9613    0.0000 N   0  0  0  0  0  0  0  0  0  0  0  0
    1.0160   -3.7150    0.0000 C   0  0  0  0  0  0  0  0  0  0  0  0
    0.6805   -4.4687    0.0000 C   0  0  0  0  0  0  0  0  0  0  0  0
    1.1654   -5.1361    0.0000 C   0  0  0  0  0  0  0  0  0  0  0  0
  2  1  2  0  0  0  0
  3  2  1  0  0  0  0
  3  4  1  0  0  0  0
  5  4  1  0  0  0  0
  5  6  1  0  0  0  0
  6  7  1  0  0  0  0
  7  8  1  0  0  0  0
  8  9  1  0  0  0  0
  9 10  1  0  0  0  0
 10 11  1  0  0  0  0
 11 12  1  0  0  0  0
 12 13  1  0  0  0  0
 13 14  1  0  0  0  0
 15 14  1  0  0  0  0
 16 15  2  0  0  0  0
 17 16  1  0  0  0  0
 18 17  2  0  0  0  0
 19 18  1  0  0  0  0
 14 19  2  0  0  0  0
 19 20  1  0  0  0  0
 20 21  1  0  0  0  0
  8 22  1  0  0  0  0
 23  5  2  0  0  0  0
 24 23  1  0  0  0  0
 25 24  2  0  0  0  0
 26 25  1  0  0  0  0
  4 26  2  0  0  0  0
 26 27  1  0  0  0  0
 27 28  1  0  0  0  0
 28  3  2  0  0  0  0
 29 28  1  0  0  0  0
 30 29  2  0  0  0  0
  1 30  1  0  0  0  0
M  END
> <ChemID>
10464

> <CAS>
72956-09-3

> <Original_SMILES>
COc1ccccc1OCCNCC(O)COc1cccc2[nH]c3ccccc3c21

> <preferred_name>
Carvedilol

> <dsstox_substance_id>
DTXSID8022747

> <dsstox_compound_id>
DTXCID602747

> <Canonical_QSARr>
COC1C=CC=CC=1OCCNCC(O)COC1=CC=CC2NC3C=CC=CC=3C=21

> <InChI_Code_QSARr>
InChI=1S/C24H26N2O4/c1-28-21-10-4-5-11-22(21)29-14-13-25-15-17(27)16-30-23-12-6-9-20-24(23)18-7-2-3-8-19(18)26-20/h2-12,17,25-27H,13-16H2,1H3

> <InChI Key_QSARr>
OGHNVEJMJSYVRP-UHFFFAOYSA-N

> <Salt_Solvent>


> <Salt_Solvent_ID>
0

> <Clint>
1.5440680443502754

> <Tr_1_Tst_0>
1

$$$$
Row46
  Mrv171c012261910192D          

 19 21  0  0  0  0            999 V2000
    1.2260   -2.1227    0.0000 N   0  0  0  0  0  0  0  0  0  0  0  0
    0.7411   -1.4553    0.0000 C   0  0  0  0  0  0  0  0  0  0  0  0
    1.2260   -0.7878    0.0000 N   0  0  0  0  0  0  0  0  0  0  0  0
    2.0106   -1.0428    0.0000 C   0  0  0  0  0  0  0  0  0  0  0  0
    2.7251   -0.6303    0.0000 C   0  0  0  0  0  0  0  0  0  0  0  0
    2.7251    0.1947    0.0000 N   0  0  0  0  0  0  0  0  0  0  0  0
    3.4396   -1.0428    0.0000 N   0  0  0  0  0  0  0  0  0  0  0  0
    3.4396   -1.8678    0.0000 C   0  0  0  0  0  0  0  0  0  0  0  0
    4.1541   -2.2803    0.0000 Cl  0  0  0  0  0  0  0  0  0  0  0  0
    2.7251   -2.2803    0.0000 N   0  0  0  0  0  0  0  0  0  0  0  0
    2.0106   -1.8678    0.0000 C   0  0  0  0  0  0  0  0  0  0  0  0
    0.9711   -2.9073    0.0000 C   0  0  0  0  0  0  0  0  0  0  0  0
    0.1865   -3.1623    0.0000 C   0  0  0  0  0  0  0  0  0  0  0  0
    0.1865   -3.9873    0.0000 C   0  0  0  0  0  0  0  0  0  0  0  0
   -0.4810   -4.4722    0.0000 O   0  0  0  0  0  0  0  0  0  0  0  0
    0.9711   -4.2422    0.0000 C   0  0  0  0  0  0  0  0  0  0  0  0
    1.2260   -5.0268    0.0000 C   0  0  0  0  0  0  0  0  0  0  0  0
    2.0330   -5.1984    0.0000 O   0  0  0  0  0  0  0  0  0  0  0  0
    1.4560   -3.5748    0.0000 O   0  0  0  0  0  0  0  0  0  0  0  0
  2  1  1  0  0  0  0
  3  2  2  0  0  0  0
  4  3  1  0  0  0  0
  4  5  1  0  0  0  0
  5  6  1  0  0  0  0
  5  7  2  0  0  0  0
  7  8  1  0  0  0  0
  8  9  1  0  0  0  0
  8 10  2  0  0  0  0
 10 11  1  0  0  0  0
  1 11  1  0  0  0  0
 11  4  2  0  0  0  0
  1 12  1  0  0  0  0
 13 12  1  0  0  0  0
 14 13  1  0  0  0  0
 14 15  1  0  0  0  0
 16 14  1  0  0  0  0
 16 17  1  0  0  0  0
 17 18  1  0  0  0  0
 19 16  1  0  0  0  0
 12 19  1  0  0  0  0
M  END
> <ChemID>
10465

> <CAS>
4291-63-8

> <Original_SMILES>
Nc1[n]c(Cl)[n]c2c1[n]c[n]2[C@H]1C[C@H](O)[C@@H](CO)O1

> <preferred_name>
Cladribine

> <dsstox_substance_id>
DTXSID8022828

> <dsstox_compound_id>
DTXCID602828

> <Canonical_QSARr>
NC1=NC(Cl)=NC2=C1N=CN2C1CC(O)C(CO)O1

> <InChI_Code_QSARr>
InChI=1S/C10H12ClN5O3/c11-10-14-8(12)7-9(15-10)16(3-13-7)6-1-4(18)5(2-17)19-6/h3-6,17-18H,1-2H2,(H2,12,14,15)

> <InChI Key_QSARr>
PTOAARAWEBMLNO-UHFFFAOYSA-N

> <Salt_Solvent>


> <Salt_Solvent_ID>
0

> <Clint>
-7.0

> <Tr_1_Tst_0>
1

$$$$
Row510
  Mrv171c012261910192D          

 24 28  0  0  0  0            999 V2000
    1.9742   -1.7345    0.0000 C   0  0  0  0  0  0  0  0  0  0  0  0
    1.1104   -1.5121    0.0000 C   0  0  0  0  0  0  0  0  0  0  0  0
    0.3015   -2.0426    0.0000 C   0  0  0  0  0  0  0  0  0  0  0  0
    0.5435   -2.8785    0.0000 N   0  0  0  0  0  0  0  0  0  0  0  0
   -0.0294   -3.4722    0.0000 C   0  0  0  0  0  0  0  0  0  0  0  0
    0.1983   -4.2651    0.0000 C   0  0  0  0  0  0  0  0  0  0  0  0
   -0.3746   -4.8588    0.0000 C   0  0  0  0  0  0  0  0  0  0  0  0
    1.3910   -3.0914    0.0000 C   0  0  0  0  0  0  0  0  0  0  0  0
    2.1868   -3.4115    0.0000 C   0  0  0  0  0  0  0  0  0  0  0  0
    2.8869   -2.8967    0.0000 C   0  0  0  0  0  0  0  0  0  0  0  0
    3.7023   -3.0664    0.0000 C   0  0  0  0  0  0  0  0  0  0  0  0
    4.2849   -2.4684    0.0000 C   0  0  0  0  0  0  0  0  0  0  0  0
    4.0549   -1.6659    0.0000 C   0  0  0  0  0  0  0  0  0  0  0  0
    4.6396   -1.0839    0.0000 O   0  0  0  0  0  0  0  0  0  0  0  0
    3.2568   -1.4331    0.0000 C   0  0  0  0  0  0  0  0  0  0  0  0
    2.8095   -0.7111    0.0000 O   0  0  0  0  0  0  0  0  0  0  0  0
    1.9791   -0.8931    0.0000 C   0  0  0  0  0  0  0  0  0  0  0  0
    1.1576   -0.6466    0.0000 C   0  0  0  0  0  0  0  0  0  0  0  0
    0.9786    0.1588    0.0000 O   0  0  0  0  0  0  0  0  0  0  0  0
    0.5205   -1.2155    0.0000 C   0  0  0  0  0  0  0  0  0  0  0  0
    0.8429   -2.0731    0.0000 C   0  0  0  0  0  0  0  0  0  0  0  0
    1.6293   -2.3312    0.0000 C   0  0  0  0  0  0  0  0  0  0  0  0
    2.3847   -2.6630    0.0000 O   0  0  0  0  0  0  0  0  0  0  0  0
    2.7236   -2.0600    0.0000 C   0  0  0  0  0  0  0  0  0  0  0  0
  2  1  1  0  0  0  0
  3  2  1  0  0  0  0
  4  3  1  0  0  0  0
  4  5  1  0  0  0  0
  5  6  1  0  0  0  0
  6  7  2  0  0  0  0
  8  4  1  0  0  0  0
  8  9  1  0  0  0  0
  9 10  1  0  0  0  0
 10 11  1  0  0  0  0
 11 12  2  0  0  0  0
 12 13  1  0  0  0  0
 13 14  1  0  0  0  0
 13 15  2  0  0  0  0
 15 16  1  0  0  0  0
 16 17  1  0  0  0  0
 17  1  1  0  0  0  0
 17 18  1  0  0  0  0
 18 19  2  0  0  0  0
 18 20  1  0  0  0  0
 20 21  1  0  0  0  0
 21 22  1  0  0  0  0
 22  1  1  0  0  0  0
 22  8  1  0  0  0  0
 22 23  1  0  0  0  0
 15 24  1  0  0  0  0
  1 24  1  0  0  0  0
 24 10  2  0  0  0  0
M  END
> <ChemID>
10466

> <CAS>
465-65-6

> <Original_SMILES>
C=CCN1CC[C@@]23[C@H]4Oc5c2c(C[C@@H]1[C@]3(O)CCC4=O)ccc5O

> <preferred_name>
Naloxone

> <dsstox_substance_id>
DTXSID8023349

> <dsstox_compound_id>
DTXCID703349

> <Canonical_QSARr>
C=CCN1CCC23C4OC5C2=C(CC1C3(O)CCC4=O)C=CC=5O

> <InChI_Code_QSARr>
InChI=1S/C19H21NO4/c1-2-8-20-9-7-18-15-11-3-4-12(21)16(15)24-17(18)13(22)5-6-19(18,23)14(20)10-11/h2-4,14,17,21,23H,1,5-10H2

> <InChI Key_QSARr>
UZHSEJADLWPNLE-UHFFFAOYSA-N

> <Salt_Solvent>


> <Salt_Solvent_ID>
0

> <Clint>
1.2626883443016963

> <Tr_1_Tst_0>
0

$$$$
Row106
  Mrv171c012261910192D          

 22 25  0  0  0  0            999 V2000
    0.2120   -2.0834    0.0000 C   0  0  0  0  0  0  0  0  0  0  0  0
    1.0190   -2.2550    0.0000 C   0  0  0  0  0  0  0  0  0  0  0  0
    1.5710   -1.6419    0.0000 C   0  0  0  0  0  0  0  0  0  0  0  0
    2.3960   -1.6419    0.0000 C   0  0  0  0  0  0  0  0  0  0  0  0
    2.9480   -2.2550    0.0000 C   0  0  0  0  0  0  0  0  0  0  0  0
    2.6931   -3.0396    0.0000 O   0  0  0  0  0  0  0  0  0  0  0  0
    3.7550   -2.0834    0.0000 C   0  0  0  0  0  0  0  0  0  0  0  0
    4.3070   -2.6965    0.0000 C   0  0  0  0  0  0  0  0  0  0  0  0
    5.1140   -2.5250    0.0000 N   0  0  0  0  0  0  0  0  0  0  0  0
    5.7271   -3.0770    0.0000 C   0  0  0  0  0  0  0  0  0  0  0  0
    6.4416   -2.6645    0.0000 C   0  0  0  0  0  0  0  0  0  0  0  0
    6.2700   -1.8576    0.0000 N   0  0  0  0  0  0  0  0  0  0  0  0
    5.4496   -1.7713    0.0000 C   0  0  0  0  0  0  0  0  0  0  0  0
    5.0371   -1.0569    0.0000 C   0  0  0  0  0  0  0  0  0  0  0  0
    4.0099   -1.2988    0.0000 C   0  0  0  0  0  0  0  0  0  0  0  0
    3.4579   -0.6857    0.0000 C   0  0  0  0  0  0  0  0  0  0  0  0
    2.6509   -0.8572    0.0000 C   0  0  0  0  0  0  0  0  0  0  0  0
    1.9835   -0.3723    0.0000 N   0  0  0  0  0  0  0  0  0  0  0  0
    1.9835    0.4527    0.0000 C   0  0  0  0  0  0  0  0  0  0  0  0
    1.3161   -0.8572    0.0000 C   0  0  0  0  0  0  0  0  0  0  0  0
    0.5091   -0.6857    0.0000 C   0  0  0  0  0  0  0  0  0  0  0  0
   -0.0429   -1.2988    0.0000 C   0  0  0  0  0  0  0  0  0  0  0  0
  2  1  1  0  0  0  0
  3  2  2  0  0  0  0
  3  4  1  0  0  0  0
  5  4  1  0  0  0  0
  5  6  2  0  0  0  0
  7  5  1  0  0  0  0
  7  8  1  0  0  0  0
  8  9  1  0  0  0  0
 10  9  1  0  0  0  0
 11 10  2  0  0  0  0
 12 11  1  0  0  0  0
 13 12  2  0  0  0  0
  9 13  1  0  0  0  0
 13 14  1  0  0  0  0
 15  7  1  0  0  0  0
 16 15  1  0  0  0  0
 17 16  1  0  0  0  0
  4 17  2  0  0  0  0
 17 18  1  0  0  0  0
 18 19  1  0  0  0  0
 18 20  1  0  0  0  0
 20  3  1  0  0  0  0
 21 20  2  0  0  0  0
 22 21  1  0  0  0  0
  1 22  2  0  0  0  0
M  END
> <ChemID>
10467

> <CAS>
99614-02-5

> <Original_SMILES>
C[n]1c2ccccc2c2c1CCC(C[n]1cc[n]c1C)C2=O

> <preferred_name>
Ondansetron

> <dsstox_substance_id>
DTXSID8023393

> <dsstox_compound_id>
DTXCID803393

> <Canonical_QSARr>
CN1C2=CC=CC=C2C2=C1CCC(CN1C=CN=C1C)C2=O

> <InChI_Code_QSARr>
InChI=1S/C18H19N3O/c1-12-19-9-10-21(12)11-13-7-8-16-17(18(13)22)14-5-3-4-6-15(14)20(16)2/h3-6,9-10,13H,7-8,11H2,1-2H3

> <InChI Key_QSARr>
FELGMEQIXOGIFQ-UHFFFAOYSA-N

> <Salt_Solvent>


> <Salt_Solvent_ID>
0

> <Clint>
0.14612803567823798

> <Tr_1_Tst_0>
1

$$$$
Row460
  Mrv171c012261910192D          

 18 19  0  0  0  0            999 V2000
    1.3544   -1.6517    0.0000 C   0  0  0  0  0  0  0  0  0  0  0  0
    2.0689   -2.0642    0.0000 C   0  0  0  0  0  0  0  0  0  0  0  0
    2.2404   -2.8711    0.0000 N   0  0  0  0  0  0  0  0  0  0  0  0
    3.0609   -2.9574    0.0000 C   0  0  0  0  0  0  0  0  0  0  0  0
    3.3965   -2.2037    0.0000 C   0  0  0  0  0  0  0  0  0  0  0  0
    2.7834   -1.6517    0.0000 C   0  0  0  0  0  0  0  0  0  0  0  0
    2.7834   -0.8267    0.0000 C   0  0  0  0  0  0  0  0  0  0  0  0
    3.4978   -0.4142    0.0000 O   0  0  0  0  0  0  0  0  0  0  0  0
    4.2123   -0.8267    0.0000 C   0  0  0  0  0  0  0  0  0  0  0  0
    4.9268   -0.4142    0.0000 C   0  0  0  0  0  0  0  0  0  0  0  0
    5.6412   -0.8267    0.0000 C   0  0  0  0  0  0  0  0  0  0  0  0
    6.3557   -0.4142    0.0000 N   0  0  0  0  0  0  0  0  0  0  0  0
    7.0702   -0.8267    0.0000 C   0  0  0  0  0  0  0  0  0  0  0  0
    7.7847   -0.4142    0.0000 C   0  0  0  0  0  0  0  0  0  0  0  0
    7.0702   -1.6517    0.0000 C   0  0  0  0  0  0  0  0  0  0  0  0
    4.9268    0.4108    0.0000 O   0  0  0  0  0  0  0  0  0  0  0  0
    2.0689   -0.4142    0.0000 C   0  0  0  0  0  0  0  0  0  0  0  0
    1.3544   -0.8267    0.0000 C   0  0  0  0  0  0  0  0  0  0  0  0
  2  1  2  0  0  0  0
  2  3  1  0  0  0  0
  3  4  1  0  0  0  0
  4  5  2  0  0  0  0
  5  6  1  0  0  0  0
  6  2  1  0  0  0  0
  7  6  2  0  0  0  0
  7  8  1  0  0  0  0
  8  9  1  0  0  0  0
  9 10  1  0  0  0  0
 10 11  1  0  0  0  0
 11 12  1  0  0  0  0
 12 13  1  0  0  0  0
 13 14  1  0  0  0  0
 13 15  1  0  0  0  0
 10 16  1  0  0  0  0
 17  7  1  0  0  0  0
 18 17  2  0  0  0  0
  1 18  1  0  0  0  0
M  END
> <ChemID>
10468

> <CAS>
13523-86-9

> <Original_SMILES>
CC(C)NCC(O)COc1cccc2[nH]ccc12

> <preferred_name>
Pindolol

> <dsstox_substance_id>
DTXSID8023476

> <dsstox_compound_id>
DTXCID603476

> <Canonical_QSARr>
CC(C)NCC(O)COC1C=CC=C2NC=CC=12

> <InChI_Code_QSARr>
InChI=1S/C14H20N2O2/c1-10(2)16-8-11(17)9-18-14-5-3-4-13-12(14)6-7-15-13/h3-7,10-11,15-17H,8-9H2,1-2H3

> <InChI Key_QSARr>
JZQKKSLKJUAGIC-UHFFFAOYSA-N

> <Salt_Solvent>


> <Salt_Solvent_ID>
0

> <Clint>
0.44715803134221915

> <Tr_1_Tst_0>
0

$$$$
Row317
  Mrv171c012261910192D          

 31 34  0  0  0  0            999 V2000
    1.1417   -3.3529    0.0000 C   0  0  0  0  0  0  0  0  0  0  0  0
    1.8561   -2.9404    0.0000 C   0  0  0  0  0  0  0  0  0  0  0  0
    1.8561   -2.1154    0.0000 C   0  0  0  0  0  0  0  0  0  0  0  0
    2.5706   -3.3529    0.0000 C   0  0  0  0  0  0  0  0  0  0  0  0
    3.2851   -2.9404    0.0000 O   0  0  0  0  0  0  0  0  0  0  0  0
    3.9995   -3.3529    0.0000 C   0  0  0  0  0  0  0  0  0  0  0  0
    3.9995   -4.1779    0.0000 C   0  0  0  0  0  0  0  0  0  0  0  0
    3.2851   -4.5904    0.0000 C   0  0  0  0  0  0  0  0  0  0  0  0
    2.5706   -4.1779    0.0000 C   0  0  0  0  0  0  0  0  0  0  0  0
    1.8561   -4.5904    0.0000 C   0  0  0  0  0  0  0  0  0  0  0  0
    1.8561   -5.4154    0.0000 C   0  0  0  0  0  0  0  0  0  0  0  0
    1.1417   -4.1779    0.0000 C   0  0  0  0  0  0  0  0  0  0  0  0
    0.4272   -4.5904    0.0000 O   0  0  0  0  0  0  0  0  0  0  0  0
    4.4367   -2.6532    0.0000 C   0  0  0  0  0  0  0  0  0  0  0  0
    5.2612   -2.6820    0.0000 O   0  0  0  0  0  0  0  0  0  0  0  0
    5.6984   -1.9824    0.0000 C   0  0  0  0  0  0  0  0  0  0  0  0
    6.5229   -2.0112    0.0000 C   0  0  0  0  0  0  0  0  0  0  0  0
    6.9601   -1.3115    0.0000 C   0  0  0  0  0  0  0  0  0  0  0  0
    6.5728   -0.5831    0.0000 C   0  0  0  0  0  0  0  0  0  0  0  0
    7.0100    0.1165    0.0000 C   0  0  0  0  0  0  0  0  0  0  0  0
    7.8345    0.0878    0.0000 C   0  0  0  0  0  0  0  0  0  0  0  0
    8.2958   -0.5962    0.0000 C   0  0  0  0  0  0  0  0  0  0  0  0
    8.0136   -1.3714    0.0000 O   0  0  0  0  0  0  0  0  0  0  0  0
    9.0888   -0.3688    0.0000 N   0  0  0  0  0  0  0  0  0  0  0  0
    9.1176    0.4557    0.0000 C   0  0  0  0  0  0  0  0  0  0  0  0
    9.8016    0.9170    0.0000 O   0  0  0  0  0  0  0  0  0  0  0  0
    8.3424    0.7379    0.0000 S   0  0  0  0  0  0  0  0  0  0  0  0
    5.7483   -0.5543    0.0000 C   0  0  0  0  0  0  0  0  0  0  0  0
    5.3111   -1.2539    0.0000 C   0  0  0  0  0  0  0  0  0  0  0  0
    4.8240   -3.3241    0.0000 C   0  0  0  0  0  0  0  0  0  0  0  0
    0.4272   -2.9404    0.0000 C   0  0  0  0  0  0  0  0  0  0  0  0
  2  1  1  0  0  0  0
  2  3  1  0  0  0  0
  4  2  2  0  0  0  0
  4  5  1  0  0  0  0
  5  6  1  0  0  0  0
  6  7  1  0  0  0  0
  7  8  1  0  0  0  0
  8  9  1  0  0  0  0
  9  4  1  0  0  0  0
 10  9  2  0  0  0  0
 10 11  1  0  0  0  0
 12 10  1  0  0  0  0
  1 12  2  0  0  0  0
 12 13  1  0  0  0  0
  6 14  1  0  0  0  0
 14 15  1  0  0  0  0
 15 16  1  0  0  0  0
 17 16  1  0  0  0  0
 18 17  2  0  0  0  0
 19 18  1  0  0  0  0
 19 20  1  0  0  0  0
 20 21  1  0  0  0  0
 22 21  1  0  0  0  0
 22 23  2  0  0  0  0
 24 22  1  0  0  0  0
 25 24  1  0  0  0  0
 25 26  2  0  0  0  0
 27 25  1  0  0  0  0
 21 27  1  0  0  0  0
 28 19  2  0  0  0  0
 29 28  1  0  0  0  0
 16 29  2  0  0  0  0
  6 30  1  0  0  0  0
  1 31  1  0  0  0  0
M  END
> <ChemID>
10469

> <CAS>
97322-87-7

> <Original_SMILES>
Cc1c2OC(C)(COc3ccc(CC4SC(=O)NC4=O)cc3)CCc2c(C)c(O)c1C

> <preferred_name>
Troglitazone

> <dsstox_substance_id>
DTXSID8023719

> <dsstox_compound_id>
DTXCID603719

> <Canonical_QSARr>
CC1=C(O)C(C)=C2CCC(C)(COC3=CC=C(CC4SC(=O)NC4=O)C=C3)OC2=C1C

> <InChI_Code_QSARr>
InChI=1S/C24H27NO5S/c1-13-14(2)21-18(15(3)20(13)26)9-10-24(4,30-21)12-29-17-7-5-16(6-8-17)11-19-22(27)25-23(28)31-19/h5-8,19,26H,9-12H2,1-4H3,(H,25,27,28)

> <InChI Key_QSARr>
GXPHKUHSUJUWKP-UHFFFAOYSA-N

> <Salt_Solvent>


> <Salt_Solvent_ID>
0

> <Clint>
1.3404441148401183

> <Tr_1_Tst_0>
1

$$$$
Row413
  Mrv171c012261910192D          

 10  9  0  0  0  0            999 V2000
    1.9714   -0.8937    0.0000 P   0  0  0  0  0  0  0  0  0  0  0  0
    1.5589   -0.1792    0.0000 O   0  0  0  0  0  0  0  0  0  0  0  0
    1.9714    0.5352    0.0000 C   0  0  0  0  0  0  0  0  0  0  0  0
    1.2569   -1.3062    0.0000 S   0  0  0  0  0  0  0  0  0  0  0  0
    0.5424   -0.8937    0.0000 C   0  0  0  0  0  0  0  0  0  0  0  0
    2.6858   -0.4812    0.0000 O   0  0  0  0  0  0  0  0  0  0  0  0
    2.3839   -1.6082    0.0000 N   0  0  0  0  0  0  0  0  0  0  0  0
    1.9714   -2.3227    0.0000 C   0  0  0  0  0  0  0  0  0  0  0  0
    2.3839   -3.0371    0.0000 C   0  0  0  0  0  0  0  0  0  0  0  0
    1.1464   -2.3227    0.0000 O   0  0  0  0  0  0  0  0  0  0  0  0
  1  2  1  0  0  0  0
  2  3  1  0  0  0  0
  1  4  1  0  0  0  0
  4  5  1  0  0  0  0
  1  6  2  0  0  0  0
  1  7  1  0  0  0  0
  7  8  1  0  0  0  0
  8  9  1  0  0  0  0
  8 10  2  0  0  0  0
M  END
> <ChemID>
10470

> <CAS>
30560-19-1

> <Original_SMILES>
COP(=O)(NC(C)=O)SC

> <preferred_name>
Acephate

> <dsstox_substance_id>
DTXSID8023846

> <dsstox_compound_id>
DTXCID503846

> <Canonical_QSARr>
COP(=O)(NC(C)=O)SC

> <InChI_Code_QSARr>
InChI=1S/C4H10NO3PS/c1-4(6)5-9(7,8-2)10-3/h1-3H3,(H,5,6,7)

> <InChI Key_QSARr>
YASYVMFAVPKPKE-UHFFFAOYSA-N

> <Salt_Solvent>


> <Salt_Solvent_ID>
0

> <Clint>
-7.0

> <Tr_1_Tst_0>
0

$$$$
Row394
  Mrv171c012261910192D          

 18 18  0  0  0  0            999 V2000
    1.6418   -1.2882    0.0000 C   0  0  0  0  0  0  0  0  0  0  0  0
    0.8168   -1.2882    0.0000 C   0  0  0  0  0  0  0  0  0  0  0  0
    0.4043   -0.5737    0.0000 Cl  0  0  0  0  0  0  0  0  0  0  0  0
    2.0543   -2.0027    0.0000 N   0  0  0  0  0  0  0  0  0  0  0  0
    1.6418   -2.7172    0.0000 C   0  0  0  0  0  0  0  0  0  0  0  0
    0.8168   -2.7172    0.0000 C   0  0  0  0  0  0  0  0  0  0  0  0
    0.4043   -2.0027    0.0000 C   0  0  0  0  0  0  0  0  0  0  0  0
    0.4043   -3.4316    0.0000 C   0  0  0  0  0  0  0  0  0  0  0  0
    0.8168   -4.1461    0.0000 C   0  0  0  0  0  0  0  0  0  0  0  0
    1.6418   -4.1461    0.0000 C   0  0  0  0  0  0  0  0  0  0  0  0
    2.0543   -3.4316    0.0000 C   0  0  0  0  0  0  0  0  0  0  0  0
    2.8793   -3.4316    0.0000 C   0  0  0  0  0  0  0  0  0  0  0  0
    3.2918   -2.7172    0.0000 C   0  0  0  0  0  0  0  0  0  0  0  0
    2.8793   -2.0027    0.0000 C   0  0  0  0  0  0  0  0  0  0  0  0
    3.2918   -1.2882    0.0000 O   0  0  0  0  0  0  0  0  0  0  0  0
    4.1168   -1.2882    0.0000 C   0  0  0  0  0  0  0  0  0  0  0  0
    4.5293   -0.5737    0.0000 C   0  0  0  0  0  0  0  0  0  0  0  0
    2.0543   -0.5737    0.0000 O   0  0  0  0  0  0  0  0  0  0  0  0
  1  2  1  0  0  0  0
  2  3  1  0  0  0  0
  1  4  1  0  0  0  0
  4  5  1  0  0  0  0
  6  5  1  0  0  0  0
  6  7  1  0  0  0  0
  8  6  2  0  0  0  0
  9  8  1  0  0  0  0
 10  9  2  0  0  0  0
 11 10  1  0  0  0  0
  5 11  2  0  0  0  0
 11 12  1  0  0  0  0
 12 13  1  0  0  0  0
  4 14  1  0  0  0  0
 14 15  1  0  0  0  0
 15 16  1  0  0  0  0
 16 17  1  0  0  0  0
  1 18  2  0  0  0  0
M  END
> <ChemID>
10471

> <CAS>
34256-82-1

> <Original_SMILES>
Cc1cccc(CC)c1N(COCC)C(=O)CCl

> <preferred_name>
Acetochlor

> <dsstox_substance_id>
DTXSID8023848

> <dsstox_compound_id>
DTXCID303848

> <Canonical_QSARr>
CC1=CC=CC(CC)=C1N(COCC)C(=O)CCl

> <InChI_Code_QSARr>
InChI=1S/C14H20ClNO2/c1-4-12-8-6-7-11(3)14(12)16(10-18-5-2)13(17)9-15/h6-8H,4-5,9-10H2,1-3H3

> <InChI Key_QSARr>
VTNQPKFIQCLBDU-UHFFFAOYSA-N

> <Salt_Solvent>


> <Salt_Solvent_ID>
0

> <Clint>
1.9279346817411793

> <Tr_1_Tst_0>
1

$$$$
Row246
  Mrv171c012261910192D          

 13 15  0  0  0  0            999 V2000
    2.5498   -0.5036    0.0000 C   0  0  0  0  0  0  0  0  0  0  0  0
    3.1018    0.1095    0.0000 C   0  0  0  0  0  0  0  0  0  0  0  0
    3.9088   -0.0620    0.0000 C   0  0  0  0  0  0  0  0  0  0  0  0
    4.1637   -0.8466    0.0000 C   0  0  0  0  0  0  0  0  0  0  0  0
    3.6117   -1.4597    0.0000 C   0  0  0  0  0  0  0  0  0  0  0  0
    2.8047   -1.2882    0.0000 C   0  0  0  0  0  0  0  0  0  0  0  0
    2.1373   -1.7731    0.0000 C   0  0  0  0  0  0  0  0  0  0  0  0
    1.4699   -1.2882    0.0000 C   0  0  0  0  0  0  0  0  0  0  0  0
    0.6629   -1.4597    0.0000 C   0  0  0  0  0  0  0  0  0  0  0  0
    0.1109   -0.8466    0.0000 C   0  0  0  0  0  0  0  0  0  0  0  0
    0.3658   -0.0620    0.0000 C   0  0  0  0  0  0  0  0  0  0  0  0
    1.1728    0.1095    0.0000 C   0  0  0  0  0  0  0  0  0  0  0  0
    1.7248   -0.5036    0.0000 C   0  0  0  0  0  0  0  0  0  0  0  0
  2  1  1  0  0  0  0
  3  2  2  0  0  0  0
  4  3  1  0  0  0  0
  5  4  2  0  0  0  0
  6  5  1  0  0  0  0
  6  1  2  0  0  0  0
  7  6  1  0  0  0  0
  8  7  1  0  0  0  0
  8  9  1  0  0  0  0
  9 10  2  0  0  0  0
 10 11  1  0  0  0  0
 11 12  2  0  0  0  0
 12 13  1  0  0  0  0
  1 13  1  0  0  0  0
 13  8  2  0  0  0  0
M  END
> <ChemID>
10472

> <CAS>
86-73-7

> <Original_SMILES>
C1c2ccccc2-c2ccccc21

> <preferred_name>
Fluorene

> <dsstox_substance_id>
DTXSID8024105

> <dsstox_compound_id>
DTXCID604105

> <Canonical_QSARr>
C1C2C=CC=CC=2C2C=CC=CC=21

> <InChI_Code_QSARr>
InChI=1S/C13H10/c1-3-7-12-10(5-1)9-11-6-2-4-8-13(11)12/h1-8H,9H2

> <InChI Key_QSARr>
NIHNNTQXNPWCJQ-UHFFFAOYSA-N

> <Salt_Solvent>


> <Salt_Solvent_ID>
0

> <Clint>
1.0819231043510602

> <Tr_1_Tst_0>
1

$$$$
Row184
  Mrv171c012261910192D          

 24 26  0  0  0  0            999 V2000
    4.7355   -2.7890    0.0000 N   0  0  0  0  0  0  0  0  0  0  0  0
    5.4500   -3.2015    0.0000 C   0  0  0  0  0  0  0  0  0  0  0  0
    4.7355   -1.9640    0.0000 C   0  0  0  0  0  0  0  0  0  0  0  0
    4.0211   -1.5515    0.0000 C   0  0  0  0  0  0  0  0  0  0  0  0
    4.0211   -0.7265    0.0000 C   0  0  0  0  0  0  0  0  0  0  0  0
    4.7355   -0.3140    0.0000 C   0  0  0  0  0  0  0  0  0  0  0  0
    4.7355    0.5110    0.0000 C   0  0  0  0  0  0  0  0  0  0  0  0
    4.0211    0.9235    0.0000 C   0  0  0  0  0  0  0  0  0  0  0  0
    3.3066    0.5110    0.0000 C   0  0  0  0  0  0  0  0  0  0  0  0
    3.3066   -0.3140    0.0000 C   0  0  0  0  0  0  0  0  0  0  0  0
    3.3066   -1.9640    0.0000 C   0  0  0  0  0  0  0  0  0  0  0  0
    2.5921   -1.5515    0.0000 O   0  0  0  0  0  0  0  0  0  0  0  0
    3.3066   -2.7890    0.0000 C   0  0  0  0  0  0  0  0  0  0  0  0
    2.5921   -3.2015    0.0000 C   0  0  0  0  0  0  0  0  0  0  0  0
    1.8777   -2.7890    0.0000 C   0  0  0  0  0  0  0  0  0  0  0  0
    1.1632   -3.2015    0.0000 C   0  0  0  0  0  0  0  0  0  0  0  0
    1.1632   -4.0265    0.0000 C   0  0  0  0  0  0  0  0  0  0  0  0
    1.8777   -4.4390    0.0000 C   0  0  0  0  0  0  0  0  0  0  0  0
    1.8777   -5.2640    0.0000 C   0  0  0  0  0  0  0  0  0  0  0  0
    1.8777   -6.0890    0.0000 F   0  0  0  0  0  0  0  0  0  0  0  0
    1.0527   -5.2640    0.0000 F   0  0  0  0  0  0  0  0  0  0  0  0
    2.7027   -5.2640    0.0000 F   0  0  0  0  0  0  0  0  0  0  0  0
    2.5921   -4.0265    0.0000 C   0  0  0  0  0  0  0  0  0  0  0  0
    4.0211   -3.2015    0.0000 C   0  0  0  0  0  0  0  0  0  0  0  0
  1  2  1  0  0  0  0
  3  1  1  0  0  0  0
  4  3  2  0  0  0  0
  4  5  1  0  0  0  0
  6  5  1  0  0  0  0
  7  6  2  0  0  0  0
  8  7  1  0  0  0  0
  9  8  2  0  0  0  0
 10  9  1  0  0  0  0
  5 10  2  0  0  0  0
 11  4  1  0  0  0  0
 11 12  2  0  0  0  0
 13 11  1  0  0  0  0
 13 14  1  0  0  0  0
 15 14  1  0  0  0  0
 16 15  2  0  0  0  0
 17 16  1  0  0  0  0
 18 17  2  0  0  0  0
 18 19  1  0  0  0  0
 19 20  1  0  0  0  0
 19 21  1  0  0  0  0
 19 22  1  0  0  0  0
 23 18  1  0  0  0  0
 14 23  2  0  0  0  0
 24 13  2  0  0  0  0
  1 24  1  0  0  0  0
M  END
> <ChemID>
10473

> <CAS>
59756-60-4

> <Original_SMILES>
CN1C=C(C(=O)C(=C1)c1ccccc1)c1cc(ccc1)C(F)(F)F

> <preferred_name>
Fluridone

> <dsstox_substance_id>
DTXSID8024107

> <dsstox_compound_id>
DTXCID404107

> <Canonical_QSARr>
CN1C=C(C(=O)C(=C1)C1C=CC=CC=1)C1=CC(=CC=C1)C(F)(F)F

> <InChI_Code_QSARr>
InChI=1S/C19H14F3NO/c1-23-11-16(13-6-3-2-4-7-13)18(24)17(12-23)14-8-5-9-15(10-14)19(20,21)22/h2-12H,1H3

> <InChI Key_QSARr>
YWBVHLJPRPCRSD-UHFFFAOYSA-N

> <Salt_Solvent>


> <Salt_Solvent_ID>
0

> <Clint>
0.7477224620355083

> <Tr_1_Tst_0>
1

$$$$
Row263
  Mrv171c012261910192D          

 23 24  0  0  0  0            999 V2000
    4.3303   -3.7700    0.0000 C   0  0  0  0  0  0  0  0  0  0  0  0
    4.3303   -4.5950    0.0000 C   0  0  0  0  0  0  0  0  0  0  0  0
    5.0448   -5.0075    0.0000 C   0  0  0  0  0  0  0  0  0  0  0  0
    5.7593   -4.5950    0.0000 C   0  0  0  0  0  0  0  0  0  0  0  0
    5.7593   -3.7700    0.0000 C   0  0  0  0  0  0  0  0  0  0  0  0
    5.0448   -3.3575    0.0000 C   0  0  0  0  0  0  0  0  0  0  0  0
    5.0448   -2.5325    0.0000 C   0  0  0  0  0  0  0  0  0  0  0  0
    5.0448   -1.7075    0.0000 F   0  0  0  0  0  0  0  0  0  0  0  0
    4.2198   -2.5325    0.0000 F   0  0  0  0  0  0  0  0  0  0  0  0
    5.8698   -2.5325    0.0000 F   0  0  0  0  0  0  0  0  0  0  0  0
    3.6159   -3.3575    0.0000 C   0  0  0  0  0  0  0  0  0  0  0  0
    3.6159   -2.5325    0.0000 O   0  0  0  0  0  0  0  0  0  0  0  0
    2.9014   -3.7700    0.0000 N   0  0  0  0  0  0  0  0  0  0  0  0
    2.1869   -3.3575    0.0000 C   0  0  0  0  0  0  0  0  0  0  0  0
    2.1869   -2.5325    0.0000 C   0  0  0  0  0  0  0  0  0  0  0  0
    1.4724   -2.1200    0.0000 C   0  0  0  0  0  0  0  0  0  0  0  0
    0.7580   -2.5325    0.0000 C   0  0  0  0  0  0  0  0  0  0  0  0
    0.7580   -3.3575    0.0000 C   0  0  0  0  0  0  0  0  0  0  0  0
    0.0435   -3.7700    0.0000 O   0  0  0  0  0  0  0  0  0  0  0  0
   -0.6710   -3.3575    0.0000 C   0  0  0  0  0  0  0  0  0  0  0  0
   -1.3854   -3.7700    0.0000 C   0  0  0  0  0  0  0  0  0  0  0  0
   -0.6710   -2.5325    0.0000 C   0  0  0  0  0  0  0  0  0  0  0  0
    1.4724   -3.7700    0.0000 C   0  0  0  0  0  0  0  0  0  0  0  0
  2  1  1  0  0  0  0
  3  2  2  0  0  0  0
  4  3  1  0  0  0  0
  5  4  2  0  0  0  0
  6  5  1  0  0  0  0
  1  6  2  0  0  0  0
  6  7  1  0  0  0  0
  7  8  1  0  0  0  0
  7  9  1  0  0  0  0
  7 10  1  0  0  0  0
  1 11  1  0  0  0  0
 11 12  2  0  0  0  0
 11 13  1  0  0  0  0
 13 14  1  0  0  0  0
 15 14  2  0  0  0  0
 16 15  1  0  0  0  0
 17 16  2  0  0  0  0
 18 17  1  0  0  0  0
 18 19  1  0  0  0  0
 19 20  1  0  0  0  0
 20 21  1  0  0  0  0
 20 22  1  0  0  0  0
 23 18  2  0  0  0  0
 14 23  1  0  0  0  0
M  END
> <ChemID>
10474

> <CAS>
66332-96-5

> <Original_SMILES>
CC(C)Oc1cc(ccc1)NC(=O)c1ccccc1C(F)(F)F

> <preferred_name>
Flutolanil

> <dsstox_substance_id>
DTXSID8024109

> <dsstox_compound_id>
DTXCID204109

> <Canonical_QSARr>
CC(C)OC1=CC(=CC=C1)NC(=O)C1C=CC=CC=1C(F)(F)F

> <InChI_Code_QSARr>
InChI=1S/C17H16F3NO2/c1-11(2)23-13-7-5-6-12(10-13)21-16(22)14-8-3-4-9-15(14)17(18,19)20/h3-11H,1-2H3,(H,21,22)

> <InChI Key_QSARr>
PTCGDEVVHUXTMP-UHFFFAOYSA-N

> <Salt_Solvent>


> <Salt_Solvent_ID>
0

> <Clint>
1.1513698502474603

> <Tr_1_Tst_0>
1

$$$$
Row96
  Mrv171c012261910192D          

 19 20  0  0  0  0            999 V2000
    3.3414   -1.0121    0.0000 C   0  0  0  0  0  0  0  0  0  0  0  0
    4.1664   -1.0121    0.0000 C   0  0  0  0  0  0  0  0  0  0  0  0
    4.5789   -0.2977    0.0000 C   0  0  0  0  0  0  0  0  0  0  0  0
    4.1664    0.4168    0.0000 C   0  0  0  0  0  0  0  0  0  0  0  0
    4.5789    1.1313    0.0000 Cl  0  0  0  0  0  0  0  0  0  0  0  0
    3.3414    0.4168    0.0000 C   0  0  0  0  0  0  0  0  0  0  0  0
    2.9289   -0.2977    0.0000 C   0  0  0  0  0  0  0  0  0  0  0  0
    2.1039   -0.2977    0.0000 Cl  0  0  0  0  0  0  0  0  0  0  0  0
    2.9289   -1.7266    0.0000 C   0  0  0  0  0  0  0  0  0  0  0  0
    2.1039   -1.7266    0.0000 O   0  0  0  0  0  0  0  0  0  0  0  0
    1.6914   -2.4411    0.0000 C   0  0  0  0  0  0  0  0  0  0  0  0
    0.8664   -2.4411    0.0000 C   0  0  0  0  0  0  0  0  0  0  0  0
    0.4539   -3.1556    0.0000 C   0  0  0  0  0  0  0  0  0  0  0  0
    3.3414   -2.4411    0.0000 C   0  0  0  0  0  0  0  0  0  0  0  0
    2.9289   -3.1556    0.0000 N   0  0  0  0  0  0  0  0  0  0  0  0
    2.1084   -3.2418    0.0000 C   0  0  0  0  0  0  0  0  0  0  0  0
    1.9369   -4.0488    0.0000 C   0  0  0  0  0  0  0  0  0  0  0  0
    2.6513   -4.4613    0.0000 N   0  0  0  0  0  0  0  0  0  0  0  0
    3.2644   -3.9092    0.0000 C   0  0  0  0  0  0  0  0  0  0  0  0
  2  1  1  0  0  0  0
  3  2  2  0  0  0  0
  4  3  1  0  0  0  0
  4  5  1  0  0  0  0
  6  4  2  0  0  0  0
  7  6  1  0  0  0  0
  1  7  2  0  0  0  0
  7  8  1  0  0  0  0
  1  9  1  0  0  0  0
  9 10  1  0  0  0  0
 10 11  1  0  0  0  0
 11 12  1  0  0  0  0
 12 13  2  0  0  0  0
  9 14  1  0  0  0  0
 14 15  1  0  0  0  0
 16 15  1  0  0  0  0
 17 16  2  0  0  0  0
 18 17  1  0  0  0  0
 19 18  2  0  0  0  0
 15 19  1  0  0  0  0
M  END
> <ChemID>
10475

> <CAS>
35554-44-0

> <Original_SMILES>
C=CCOC(C[n]1c[n]cc1)c1ccc(Cl)cc1Cl

> <preferred_name>
Imazalil

> <dsstox_substance_id>
DTXSID8024151

> <dsstox_compound_id>
DTXCID504151

> <Canonical_QSARr>
C=CCOC(CN1C=NC=C1)C1C=CC(Cl)=CC=1Cl

> <InChI_Code_QSARr>
InChI=1S/C14H14Cl2N2O/c1-2-7-19-14(9-18-6-5-17-10-18)12-4-3-11(15)8-13(12)16/h2-6,8,10,14H,1,7,9H2

> <InChI Key_QSARr>
PZBPKYOVPCNPJY-UHFFFAOYSA-N

> <Salt_Solvent>


> <Salt_Solvent_ID>
0

> <Clint>
0.008600171761917567

> <Tr_1_Tst_0>
1

$$$$
Row164
  Mrv171c012261910192D          

 24 25  0  0  0  0            999 V2000
    2.2892   -2.6912    0.0000 C   0  0  0  0  0  0  0  0  0  0  0  0
    1.9537   -1.9376    0.0000 O   0  0  0  0  0  0  0  0  0  0  0  0
    3.1097   -2.7775    0.0000 N   0  0  0  0  0  0  0  0  0  0  0  0
    3.5946   -2.1100    0.0000 C   0  0  0  0  0  0  0  0  0  0  0  0
    4.4196   -2.1100    0.0000 O   0  0  0  0  0  0  0  0  0  0  0  0
    4.6746   -1.3254    0.0000 N   0  0  0  0  0  0  0  0  0  0  0  0
    4.0071   -0.8405    0.0000 C   0  0  0  0  0  0  0  0  0  0  0  0
    4.0071   -0.0155    0.0000 C   0  0  0  0  0  0  0  0  0  0  0  0
    4.8321   -0.0155    0.0000 C   0  0  0  0  0  0  0  0  0  0  0  0
    4.0071    0.8095    0.0000 C   0  0  0  0  0  0  0  0  0  0  0  0
    4.7216    1.2220    0.0000 C   0  0  0  0  0  0  0  0  0  0  0  0
    3.1821   -0.0155    0.0000 C   0  0  0  0  0  0  0  0  0  0  0  0
    2.7696    0.6990    0.0000 C   0  0  0  0  0  0  0  0  0  0  0  0
    3.3397   -1.3254    0.0000 C   0  0  0  0  0  0  0  0  0  0  0  0
    1.8043   -3.3587    0.0000 C   0  0  0  0  0  0  0  0  0  0  0  0
    0.9838   -3.2724    0.0000 C   0  0  0  0  0  0  0  0  0  0  0  0
    0.6483   -2.5188    0.0000 O   0  0  0  0  0  0  0  0  0  0  0  0
   -0.1722   -2.4325    0.0000 C   0  0  0  0  0  0  0  0  0  0  0  0
    0.4989   -3.9399    0.0000 C   0  0  0  0  0  0  0  0  0  0  0  0
    0.8345   -4.6935    0.0000 C   0  0  0  0  0  0  0  0  0  0  0  0
    1.6550   -4.7798    0.0000 C   0  0  0  0  0  0  0  0  0  0  0  0
    2.1399   -4.1123    0.0000 C   0  0  0  0  0  0  0  0  0  0  0  0
    2.9604   -4.1986    0.0000 O   0  0  0  0  0  0  0  0  0  0  0  0
    3.4453   -3.5311    0.0000 C   0  0  0  0  0  0  0  0  0  0  0  0
  1  2  2  0  0  0  0
  1  3  1  0  0  0  0
  3  4  1  0  0  0  0
  5  4  1  0  0  0  0
  6  5  1  0  0  0  0
  7  6  2  0  0  0  0
  7  8  1  0  0  0  0
  8  9  1  0  0  0  0
  8 10  1  0  0  0  0
 10 11  1  0  0  0  0
  8 12  1  0  0  0  0
 12 13  1  0  0  0  0
 14  7  1  0  0  0  0
  4 14  2  0  0  0  0
  1 15  1  0  0  0  0
 16 15  1  0  0  0  0
 16 17  1  0  0  0  0
 17 18  1  0  0  0  0
 19 16  2  0  0  0  0
 20 19  1  0  0  0  0
 21 20  2  0  0  0  0
 22 21  1  0  0  0  0
 15 22  2  0  0  0  0
 22 23  1  0  0  0  0
 23 24  1  0  0  0  0
M  END
> <ChemID>
10476

> <CAS>
82558-50-7

> <Original_SMILES>
CC(CC)(CC)c1cc(NC(=O)c2c(cccc2OC)OC)o[n]1

> <preferred_name>
Isoxaben

> <dsstox_substance_id>
DTXSID8024159

> <dsstox_compound_id>
DTXCID704159

> <Canonical_QSARr>
COC1C=CC=C(OC)C=1C(=O)NC1=CC(=NO1)C(C)(CC)CC

> <InChI_Code_QSARr>
InChI=1S/C18H24N2O4/c1-6-18(3,7-2)14-11-15(24-20-14)19-17(21)16-12(22-4)9-8-10-13(16)23-5/h8-11H,6-7H2,1-5H3,(H,19,21)

> <InChI Key_QSARr>
PMHURSZHKKJGBM-UHFFFAOYSA-N

> <Salt_Solvent>


> <Salt_Solvent_ID>
0

> <Clint>
0.6138418218760692

> <Tr_1_Tst_0>
1

$$$$
Row492
  Mrv171c012261910192D          

 20 21  0  0  0  0            999 V2000
    0.0000    0.0000    0.0000 C   0  0  0  0  0  0  0  0  0  0  0  0
    0.7145   -0.4125    0.0000 N   0  0  0  0  0  0  0  0  0  0  0  0
    0.7145   -1.2375    0.0000 C   0  0  0  0  0  0  0  0  0  0  0  0
    1.4289   -1.6500    0.0000 C   0  0  0  0  0  0  0  0  0  0  0  0
    1.4289   -2.4750    0.0000 N   0  0  0  0  0  0  0  0  0  0  0  0
    0.7145   -2.8875    0.0000 N   0  0  0  0  0  0  0  0  0  0  0  0
    0.0000   -2.4750    0.0000 C   0  0  0  0  0  0  0  0  0  0  0  0
   -0.7145   -2.8875    0.0000 O   0  0  0  0  0  0  0  0  0  0  0  0
    0.0000   -1.6500    0.0000 C   0  0  0  0  0  0  0  0  0  0  0  0
   -0.7145   -1.2375    0.0000 Cl  0  0  0  0  0  0  0  0  0  0  0  0
    0.7145   -3.7125    0.0000 C   0  0  0  0  0  0  0  0  0  0  0  0
    1.4289   -4.1250    0.0000 C   0  0  0  0  0  0  0  0  0  0  0  0
    1.4289   -4.9500    0.0000 C   0  0  0  0  0  0  0  0  0  0  0  0
    0.7145   -5.3625    0.0000 C   0  0  0  0  0  0  0  0  0  0  0  0
   -0.0000   -4.9500    0.0000 C   0  0  0  0  0  0  0  0  0  0  0  0
    0.0000   -4.1250    0.0000 C   0  0  0  0  0  0  0  0  0  0  0  0
   -0.7145   -5.3625    0.0000 C   0  0  0  0  0  0  0  0  0  0  0  0
   -1.4289   -5.7750    0.0000 F   0  0  0  0  0  0  0  0  0  0  0  0
   -1.1270   -4.6480    0.0000 F   0  0  0  0  0  0  0  0  0  0  0  0
   -0.3020   -6.0770    0.0000 F   0  0  0  0  0  0  0  0  0  0  0  0
  2  1  1  4  0  0  0
  2  3  2  0  0  0  0
  3  4  1  0  0  0  0
  4  5  2  0  0  0  0
  5  6  1  0  0  0  0
  6  7  1  0  0  0  0
  7  8  2  0  0  0  0
  7  9  1  0  0  0  0
  3  9  1  0  0  0  0
  9 10  1  0  0  0  0
  6 11  1  0  0  0  0
 11 12  1  0  0  0  0
 12 13  2  0  0  0  0
 13 14  1  0  0  0  0
 14 15  2  0  0  0  0
 15 16  1  0  0  0  0
 11 16  2  0  0  0  0
 15 17  1  0  0  0  0
 17 18  1  0  0  0  0
 17 19  1  0  0  0  0
 17 20  1  0  0  0  0
M  END
> <ChemID>
10477

> <CAS>
27314-13-2

> <Original_SMILES>
CNC1C=NN(C(=O)C=1Cl)c1cc(ccc1)C(F)(F)F

> <preferred_name>
Norflurazon

> <dsstox_substance_id>
DTXSID8024234

> <dsstox_compound_id>
DTXCID304234

> <Canonical_QSARr>
CN=C1C=NN(C(=O)C1Cl)C1C=CC=C(C=1)C(F)(F)F

> <InChI_Code_QSARr>
InChI=1S/C12H9ClF3N3O/c1-17-9-6-18-19(11(20)10(9)13)8-4-2-3-7(5-8)12(14,15)16/h2-6,10H,1H3

> <InChI Key_QSARr>
LXZVTHMPPAYLTH-UHFFFAOYSA-N

> <Salt_Solvent>


> <Salt_Solvent_ID>
0

> <Clint>
1.04493154614916

> <Tr_1_Tst_0>
0

$$$$
Row306
  Mrv171c012261910192D          

 23 23  0  0  0  0            999 V2000
    2.2068   -2.2527    0.0000 C   0  0  0  0  0  0  0  0  0  0  0  0
    2.2068   -3.0777    0.0000 C   0  0  0  0  0  0  0  0  0  0  0  0
    2.9212   -3.4902    0.0000 C   0  0  0  0  0  0  0  0  0  0  0  0
    2.9212   -4.3152    0.0000 S   0  0  0  0  0  0  0  0  0  0  0  0
    2.9212   -5.1402    0.0000 N   0  0  0  0  0  0  0  0  0  0  0  0
    3.7462   -4.3152    0.0000 O   0  0  0  0  0  0  0  0  0  0  0  0
    2.0962   -4.3152    0.0000 O   0  0  0  0  0  0  0  0  0  0  0  0
    3.6357   -3.0777    0.0000 C   0  0  0  0  0  0  0  0  0  0  0  0
    3.6357   -2.2527    0.0000 C   0  0  0  0  0  0  0  0  0  0  0  0
    4.3502   -1.8402    0.0000 N   0  3  0  0  0  0  0  0  0  0  0  0
    4.3502   -1.0152    0.0000 O   0  0  0  0  0  0  0  0  0  0  0  0
    5.0647   -2.2527    0.0000 O   0  5  0  0  0  0  0  0  0  0  0  0
    2.9212   -1.8402    0.0000 C   0  0  0  0  0  0  0  0  0  0  0  0
    2.9212   -1.0152    0.0000 N   0  0  0  0  0  0  0  0  0  0  0  0
    2.2068   -0.6027    0.0000 C   0  0  0  0  0  0  0  0  0  0  0  0
    2.2068    0.2223    0.0000 C   0  0  0  0  0  0  0  0  0  0  0  0
    1.4923    0.6348    0.0000 C   0  0  0  0  0  0  0  0  0  0  0  0
    3.6357   -0.6027    0.0000 C   0  0  0  0  0  0  0  0  0  0  0  0
    3.6357    0.2223    0.0000 C   0  0  0  0  0  0  0  0  0  0  0  0
    4.3502    0.6348    0.0000 C   0  0  0  0  0  0  0  0  0  0  0  0
    1.4923   -1.8402    0.0000 N   0  3  0  0  0  0  0  0  0  0  0  0
    1.4923   -1.0152    0.0000 O   0  0  0  0  0  0  0  0  0  0  0  0
    0.7778   -2.2527    0.0000 O   0  5  0  0  0  0  0  0  0  0  0  0
  2  1  2  0  0  0  0
  3  2  1  0  0  0  0
  3  4  1  0  0  0  0
  4  5  1  0  0  0  0
  4  6  2  0  0  0  0
  4  7  2  0  0  0  0
  8  3  2  0  0  0  0
  9  8  1  0  0  0  0
  9 10  1  0  0  0  0
 10 11  2  0  0  0  0
 10 12  1  0  0  0  0
 13  9  2  0  0  0  0
  1 13  1  0  0  0  0
 13 14  1  0  0  0  0
 14 15  1  0  0  0  0
 15 16  1  0  0  0  0
 16 17  1  0  0  0  0
 14 18  1  0  0  0  0
 18 19  1  0  0  0  0
 19 20  1  0  0  0  0
  1 21  1  0  0  0  0
 21 22  2  0  0  0  0
 21 23  1  0  0  0  0
M  CHG  4  10   1  12  -1  21   1  23  -1
M  END
> <ChemID>
10478

> <CAS>
19044-88-3

> <Original_SMILES>
CCCN(CCC)c1c(cc(cc1[N+]([O-])=O)S(N)(=O)=O)[N+]([O-])=O

> <preferred_name>
Oryzalin

> <dsstox_substance_id>
DTXSID8024238

> <dsstox_compound_id>
DTXCID904238

> <Canonical_QSARr>
CCCN(CCC)C1C(=CC(=CC=1[N+]([O-])=O)S(N)(=O)=O)[N+]([O-])=O

> <InChI_Code_QSARr>
InChI=1S/C12H18N4O6S/c1-3-5-14(6-4-2)12-10(15(17)18)7-9(23(13,21)22)8-11(12)16(19)20/h7-8H,3-6H2,1-2H3,(H2,13,21,22)

> <InChI Key_QSARr>
UNAHYJYOSSSJHH-UHFFFAOYSA-N

> <Salt_Solvent>


> <Salt_Solvent_ID>
0

> <Clint>
1.3053513694466237

> <Tr_1_Tst_0>
1

$$$$
Row506
  Mrv171c012261910192D          

 20 21  0  0  0  0            999 V2000
    2.6920   -2.9570    0.0000 C   0  0  0  0  0  0  0  0  0  0  0  0
    2.2795   -3.6715    0.0000 C   0  0  0  0  0  0  0  0  0  0  0  0
    1.4545   -3.6715    0.0000 C   0  0  0  0  0  0  0  0  0  0  0  0
    1.0420   -4.3859    0.0000 C   0  0  0  0  0  0  0  0  0  0  0  0
    0.2170   -4.3859    0.0000 C   0  0  0  0  0  0  0  0  0  0  0  0
    3.1045   -2.2425    0.0000 C   0  0  0  0  0  0  0  0  0  0  0  0
    3.9295   -2.2425    0.0000 C   0  0  0  0  0  0  0  0  0  0  0  0
    4.3420   -1.5281    0.0000 C   0  0  0  0  0  0  0  0  0  0  0  0
    3.9295   -0.8136    0.0000 C   0  0  0  0  0  0  0  0  0  0  0  0
    4.3420   -0.0991    0.0000 Cl  0  0  0  0  0  0  0  0  0  0  0  0
    3.1045   -0.8136    0.0000 C   0  0  0  0  0  0  0  0  0  0  0  0
    2.6920   -1.5281    0.0000 C   0  0  0  0  0  0  0  0  0  0  0  0
    3.4065   -3.3695    0.0000 C   0  0  0  0  0  0  0  0  0  0  0  0
    3.4065   -4.1945    0.0000 N   0  0  0  0  0  0  0  0  0  0  0  0
    4.0739   -4.6794    0.0000 C   0  0  0  0  0  0  0  0  0  0  0  0
    3.8190   -5.4641    0.0000 N   0  0  0  0  0  0  0  0  0  0  0  0
    2.9940   -5.4641    0.0000 C   0  0  0  0  0  0  0  0  0  0  0  0
    2.7390   -4.6794    0.0000 N   0  0  0  0  0  0  0  0  0  0  0  0
    1.9775   -2.5445    0.0000 C   0  0  0  0  0  0  0  0  0  0  0  0
    1.2631   -2.1320    0.0000 N   0  0  0  0  0  0  0  0  0  0  0  0
  1  2  1  0  0  0  0
  2  3  1  0  0  0  0
  3  4  1  0  0  0  0
  4  5  1  0  0  0  0
  1  6  1  0  0  0  0
  7  6  2  0  0  0  0
  8  7  1  0  0  0  0
  9  8  2  0  0  0  0
  9 10  1  0  0  0  0
 11  9  1  0  0  0  0
 12 11  2  0  0  0  0
  6 12  1  0  0  0  0
  1 13  1  0  0  0  0
 13 14  1  0  0  0  0
 15 14  1  0  0  0  0
 16 15  2  0  0  0  0
 17 16  1  0  0  0  0
 18 17  2  0  0  0  0
 14 18  1  0  0  0  0
  1 19  1  0  0  0  0
 19 20  3  0  0  0  0
M  END
> <ChemID>
10479

> <CAS>
88671-89-0

> <Original_SMILES>
CCCCC(C[n]1c[n]c[n]1)(C#N)c1ccc(Cl)cc1

> <preferred_name>
Myclobutanil

> <dsstox_substance_id>
DTXSID8024315

> <dsstox_compound_id>
DTXCID304315

> <Canonical_QSARr>
CCCCC(CN1C=NC=N1)(C#N)C1C=CC(Cl)=CC=1

> <InChI_Code_QSARr>
InChI=1S/C15H17ClN4/c1-2-3-8-15(9-17,10-20-12-18-11-19-20)13-4-6-14(16)7-5-13/h4-7,11-12H,2-3,8,10H2,1H3

> <InChI Key_QSARr>
HZJKXKUJVSEEFU-UHFFFAOYSA-N

> <Salt_Solvent>


> <Salt_Solvent_ID>
0

> <Clint>
1.2148438480476977

> <Tr_1_Tst_0>
0

$$$$
Row454
  Mrv171c012261910192D          

 14 14  0  0  0  0            999 V2000
    0.8791    0.1631    0.0000 N   0  0  0  0  0  0  0  0  0  0  0  0
    0.1647    0.5756    0.0000 C   0  0  0  0  0  0  0  0  0  0  0  0
    0.1647    1.4006    0.0000 O   0  0  0  0  0  0  0  0  0  0  0  0
   -0.5498    0.1631    0.0000 N   0  0  0  0  0  0  0  0  0  0  0  0
   -1.2643    0.5756    0.0000 C   0  0  0  0  0  0  0  0  0  0  0  0
   -1.9788    0.9881    0.0000 C   0  0  0  0  0  0  0  0  0  0  0  0
   -1.6768   -0.1389    0.0000 C   0  0  0  0  0  0  0  0  0  0  0  0
   -0.8518    1.2901    0.0000 C   0  0  0  0  0  0  0  0  0  0  0  0
   -0.5498   -0.6619    0.0000 C   0  0  0  0  0  0  0  0  0  0  0  0
   -1.2643   -1.0744    0.0000 O   0  0  0  0  0  0  0  0  0  0  0  0
    0.1647   -1.0744    0.0000 C   0  0  0  0  0  0  0  0  0  0  0  0
    0.1647   -1.8994    0.0000 Cl  0  0  0  0  0  0  0  0  0  0  0  0
    0.8791   -0.6619    0.0000 C   0  0  0  0  0  0  0  0  0  0  0  0
    1.5936   -1.0744    0.0000 C   0  0  0  0  0  0  0  0  0  0  0  0
  2  1  1  0  0  0  0
  2  3  2  0  0  0  0
  4  2  1  0  0  0  0
  4  5  1  0  0  0  0
  5  6  1  0  0  0  0
  5  7  1  0  0  0  0
  5  8  1  0  0  0  0
  9  4  1  0  0  0  0
  9 10  2  0  0  0  0
 11  9  1  0  0  0  0
 11 12  1  0  0  0  0
 13 11  1  0  0  0  0
  1 13  2  0  0  0  0
 13 14  1  0  0  0  0
M  END
> <ChemID>
10480

> <CAS>
5902-51-2

> <Original_SMILES>
CC1NC(=O)N(C(=O)C=1Cl)C(C)(C)C

> <preferred_name>
Terbacil

> <dsstox_substance_id>
DTXSID8024317

> <dsstox_compound_id>
DTXCID104317

> <Canonical_QSARr>
CC1=NC(=O)N(C(=O)C1Cl)C(C)(C)C

> <InChI_Code_QSARr>
InChI=1S/C9H13ClN2O2/c1-5-6(10)7(13)12(8(14)11-5)9(2,3)4/h6H,1-4H3

> <InChI Key_QSARr>
FNEQOVOLKIIMTA-UHFFFAOYSA-N

> <Salt_Solvent>


> <Salt_Solvent_ID>
0

> <Clint>
0.3560258571931227

> <Tr_1_Tst_0>
0

$$$$
Row523
  Mrv171c012261910192D          

 21 24  0  0  0  0            999 V2000
    2.3556   -1.1737    0.0000 C   0  0  0  0  0  0  0  0  0  0  0  0
    2.0753   -1.9496    0.0000 C   0  0  0  0  0  0  0  0  0  0  0  0
    2.8874   -1.8044    0.0000 C   0  0  0  0  0  0  0  0  0  0  0  0
    3.1677   -1.0285    0.0000 C   0  0  0  0  0  0  0  0  0  0  0  0
    3.9798   -0.8833    0.0000 C   0  0  0  0  0  0  0  0  0  0  0  0
    4.5116   -1.5140    0.0000 C   0  0  0  0  0  0  0  0  0  0  0  0
    4.2313   -2.2899    0.0000 C   0  0  0  0  0  0  0  0  0  0  0  0
    3.4192   -2.4351    0.0000 C   0  0  0  0  0  0  0  0  0  0  0  0
    3.1389   -3.2110    0.0000 C   0  0  0  0  0  0  0  0  0  0  0  0
    2.3268   -3.3562    0.0000 C   0  0  0  0  0  0  0  0  0  0  0  0
    1.7950   -2.7255    0.0000 C   0  0  0  0  0  0  0  0  0  0  0  0
    0.9828   -2.8707    0.0000 C   0  0  0  0  0  0  0  0  0  0  0  0
    0.4510   -2.2400    0.0000 C   0  0  0  0  0  0  0  0  0  0  0  0
   -0.3611   -2.3853    0.0000 O   0  0  0  0  0  0  0  0  0  0  0  0
    0.7313   -1.4641    0.0000 C   0  0  0  0  0  0  0  0  0  0  0  0
    1.5434   -1.3189    0.0000 C   0  0  0  0  0  0  0  0  0  0  0  0
    4.8827   -2.7962    0.0000 C   0  0  0  0  0  0  0  0  0  0  0  0
    5.5655   -2.3333    0.0000 C   0  0  0  0  0  0  0  0  0  0  0  0
    5.3362   -1.5408    0.0000 C   0  0  0  0  0  0  0  0  0  0  0  0
    5.8425   -0.8894    0.0000 O   0  0  0  0  0  0  0  0  0  0  0  0
    4.8715   -0.7716    0.0000 C   0  0  0  0  0  0  0  0  0  0  0  0
  1  2  1  0  0  0  0
  3  2  1  0  0  0  0
  3  4  1  0  0  0  0
  4  5  1  0  0  0  0
  5  6  1  0  0  0  0
  7  6  1  0  0  0  0
  7  8  1  0  0  0  0
  8  3  1  0  0  0  0
  9  8  1  0  0  0  0
 10  9  1  0  0  0  0
 11 10  1  0  0  0  0
 11  2  1  0  0  0  0
 12 11  2  0  0  0  0
 13 12  1  0  0  0  0
 13 14  2  0  0  0  0
 15 13  1  0  0  0  0
 16 15  1  0  0  0  0
  2 16  1  0  0  0  0
 17  7  1  0  0  0  0
 18 17  1  0  0  0  0
 19 18  1  0  0  0  0
  6 19  1  0  0  0  0
 19 20  2  0  0  0  0
  6 21  1  0  0  0  0
M  END
> <ChemID>
10481

> <CAS>
63-05-8

> <Original_SMILES>
C[C@]12CCC(=O)C=C1CC[C@@H]1[C@@H]2CC[C@@]2(C)[C@H]1CCC2=O

> <preferred_name>
4-Androstene-3,17-dione

> <dsstox_substance_id>
DTXSID8024523

> <dsstox_compound_id>
DTXCID204523

> <Canonical_QSARr>
CC12CCC(=O)C=C1CCC1C2CCC2(C)C1CCC2=O

> <InChI_Code_QSARr>
InChI=1S/C19H26O2/c1-18-9-7-13(20)11-12(18)3-4-14-15-5-6-17(21)19(15,2)10-8-16(14)18/h11,14-16H,3-10H2,1-2H3

> <InChI Key_QSARr>
AEMFNILZOJDQLW-UHFFFAOYSA-N

> <Salt_Solvent>


> <Salt_Solvent_ID>
0

> <Clint>
1.4136349971985556

> <Tr_1_Tst_0>
0

$$$$
Row461
  Mrv171c012261910192D          

 11 10  0  0  0  0            999 V2000
    0.7166   -0.2259    0.0000 O   0  0  0  0  0  0  0  0  0  0  0  0
    0.7166   -1.0509    0.0000 C   0  0  0  0  0  0  0  0  0  0  0  0
    0.0021   -1.4634    0.0000 C   0  0  0  0  0  0  0  0  0  0  0  0
   -0.7123   -1.0509    0.0000 C   0  0  0  0  0  0  0  0  0  0  0  0
    1.4311   -1.4634    0.0000 N   0  0  0  0  0  0  0  0  0  0  0  0
    2.1456   -1.0509    0.0000 C   0  0  0  0  0  0  0  0  0  0  0  0
    2.8600   -1.4634    0.0000 N   0  0  0  0  0  0  0  0  0  0  0  0
    3.5745   -1.0509    0.0000 C   0  0  0  0  0  0  0  0  0  0  0  0
    4.2890   -1.4634    0.0000 C   0  0  0  0  0  0  0  0  0  0  0  0
    5.0034   -1.0509    0.0000 C   0  0  0  0  0  0  0  0  0  0  0  0
    3.5745   -0.2259    0.0000 O   0  0  0  0  0  0  0  0  0  0  0  0
  1  2  2  0  0  0  0
  2  3  1  0  0  0  0
  3  4  2  0  0  0  0
  2  5  1  0  0  0  0
  5  6  1  0  0  0  0
  6  7  1  0  0  0  0
  7  8  1  0  0  0  0
  8  9  1  0  0  0  0
  9 10  2  0  0  0  0
  8 11  2  0  0  0  0
M  END
> <ChemID>
10482

> <CAS>
110-26-9

> <Original_SMILES>
C=CC(=O)NCNC(=O)C=C

> <preferred_name>
N,N'-Methylenebisacrylamide

> <dsstox_substance_id>
DTXSID8025595

> <dsstox_compound_id>
DTXCID205595

> <Canonical_QSARr>
C=CC(=O)NCNC(=O)C=C

> <InChI_Code_QSARr>
InChI=1S/C7H10N2O2/c1-3-6(10)8-5-9-7(11)4-2/h3-4H,1-2,5H2,(H,8,10)(H,9,11)

> <InChI Key_QSARr>
ZIUHHBKFKCYYJD-UHFFFAOYSA-N

> <Salt_Solvent>


> <Salt_Solvent_ID>
0

> <Clint>
0.47041049097593063

> <Tr_1_Tst_0>
0

$$$$
Row478
  Mrv171c012261910192D          

  9  9  0  0  0  0            999 V2000
    2.3959   -0.7881    0.0000 Cl  0  0  0  0  0  0  0  0  0  0  0  0
    1.6815   -1.2006    0.0000 C   0  0  0  0  0  0  0  0  0  0  0  0
    0.9670   -0.7881    0.0000 C   0  0  0  0  0  0  0  0  0  0  0  0
    0.9670    0.0369    0.0000 Cl  0  0  0  0  0  0  0  0  0  0  0  0
    0.2525   -1.2006    0.0000 C   0  0  0  0  0  0  0  0  0  0  0  0
    0.2525   -2.0256    0.0000 C   0  0  0  0  0  0  0  0  0  0  0  0
    0.9670   -2.4381    0.0000 C   0  0  0  0  0  0  0  0  0  0  0  0
    1.6815   -2.0256    0.0000 C   0  0  0  0  0  0  0  0  0  0  0  0
    2.3959   -2.4381    0.0000 Cl  0  0  0  0  0  0  0  0  0  0  0  0
  1  2  1  0  0  0  0
  3  2  1  0  0  0  0
  3  4  1  0  0  0  0
  5  3  2  0  0  0  0
  6  5  1  0  0  0  0
  7  6  2  0  0  0  0
  8  7  1  0  0  0  0
  2  8  2  0  0  0  0
  8  9  1  0  0  0  0
M  END
> <ChemID>
10483

> <CAS>
87-61-6

> <Original_SMILES>
Clc1c(Cl)cccc1Cl

> <preferred_name>
1,2,3-Trichlorobenzene

> <dsstox_substance_id>
DTXSID8026193

> <dsstox_compound_id>
DTXCID706193

> <Canonical_QSARr>
ClC1C=CC=C(Cl)C=1Cl

> <InChI_Code_QSARr>
InChI=1S/C6H3Cl3/c7-4-2-1-3-5(8)6(4)9/h1-3H

> <InChI Key_QSARr>
RELMFMZEBKVZJC-UHFFFAOYSA-N

> <Salt_Solvent>


> <Salt_Solvent_ID>
0

> <Clint>
0.8441042306975133

> <Tr_1_Tst_0>
0

$$$$
Row486
  Mrv171c012261910192D          

  9  9  0  0  0  0            999 V2000
    2.3959   -0.7881    0.0000 N   0  0  0  0  0  0  0  0  0  0  0  0
    1.6815   -1.2006    0.0000 C   0  0  0  0  0  0  0  0  0  0  0  0
    0.9670   -0.7881    0.0000 C   0  0  0  0  0  0  0  0  0  0  0  0
    0.9670    0.0369    0.0000 C   0  0  0  0  0  0  0  0  0  0  0  0
    0.2525   -1.2006    0.0000 C   0  0  0  0  0  0  0  0  0  0  0  0
    0.2525   -2.0256    0.0000 C   0  0  0  0  0  0  0  0  0  0  0  0
    0.9670   -2.4381    0.0000 C   0  0  0  0  0  0  0  0  0  0  0  0
    1.6815   -2.0256    0.0000 C   0  0  0  0  0  0  0  0  0  0  0  0
    2.3959   -2.4381    0.0000 C   0  0  0  0  0  0  0  0  0  0  0  0
  1  2  1  0  0  0  0
  3  2  1  0  0  0  0
  3  4  1  0  0  0  0
  5  3  2  0  0  0  0
  6  5  1  0  0  0  0
  7  6  2  0  0  0  0
  8  7  1  0  0  0  0
  2  8  2  0  0  0  0
  8  9  1  0  0  0  0
M  END
> <ChemID>
10484

> <CAS>
87-62-7

> <Original_SMILES>
Cc1cccc(C)c1N

> <preferred_name>
2,6-Dimethylaniline

> <dsstox_substance_id>
DTXSID8026307

> <dsstox_compound_id>
DTXCID006307

> <Canonical_QSARr>
CC1C=CC=C(C)C=1N

> <InChI_Code_QSARr>
InChI=1S/C8H11N/c1-6-4-3-5-7(2)8(6)9/h3-5H,9H2,1-2H3

> <InChI Key_QSARr>
UFFBMTHBGFGIHF-UHFFFAOYSA-N

> <Salt_Solvent>


> <Salt_Solvent_ID>
0

> <Clint>
0.952308009662125

> <Tr_1_Tst_0>
0

$$$$
Row210
  Mrv171c012261910192D          

 12 12  0  0  0  0            999 V2000
    2.4342   -1.8225    0.0000 C   0  0  0  0  0  0  0  0  0  0  0  0
    3.1487   -2.2350    0.0000 C   0  0  0  0  0  0  0  0  0  0  0  0
    3.1487   -3.0600    0.0000 C   0  0  0  0  0  0  0  0  0  0  0  0
    3.8632   -1.8225    0.0000 C   0  0  0  0  0  0  0  0  0  0  0  0
    2.4342   -0.9975    0.0000 C   0  0  0  0  0  0  0  0  0  0  0  0
    1.7198   -0.5850    0.0000 C   0  0  0  0  0  0  0  0  0  0  0  0
    1.7198    0.2400    0.0000 C   0  0  0  0  0  0  0  0  0  0  0  0
    1.0053    0.6525    0.0000 C   0  0  0  0  0  0  0  0  0  0  0  0
    2.4342    0.6525    0.0000 C   0  0  0  0  0  0  0  0  0  0  0  0
    1.0053   -0.9975    0.0000 C   0  0  0  0  0  0  0  0  0  0  0  0
    1.0053   -1.8225    0.0000 C   0  0  0  0  0  0  0  0  0  0  0  0
    1.7198   -2.2350    0.0000 C   0  0  0  0  0  0  0  0  0  0  0  0
  1  2  1  0  0  0  0
  2  3  1  0  0  0  0
  2  4  1  0  0  0  0
  5  1  1  0  0  0  0
  6  5  2  0  0  0  0
  6  7  1  0  0  0  0
  7  8  1  0  0  0  0
  7  9  1  0  0  0  0
 10  6  1  0  0  0  0
 11 10  2  0  0  0  0
 12 11  1  0  0  0  0
  1 12  2  0  0  0  0
M  END
> <ChemID>
10485

> <CAS>
99-62-7

> <Original_SMILES>
CC(C)c1cc(ccc1)C(C)C

> <preferred_name>
1,3-Diisopropylbenzene

> <dsstox_substance_id>
DTXSID8026640

> <dsstox_compound_id>
DTXCID006640

> <Canonical_QSARr>
CC(C)C1C=C(C=CC=1)C(C)C

> <InChI_Code_QSARr>
InChI=1S/C12H18/c1-9(2)11-6-5-7-12(8-11)10(3)4/h5-10H,1-4H3

> <InChI Key_QSARr>
UNEATYXSUBPPKP-UHFFFAOYSA-N

> <Salt_Solvent>


> <Salt_Solvent_ID>
0

> <Clint>
0.891425942847994

> <Tr_1_Tst_0>
1

$$$$
Row286
  Mrv171c012261910192D          

 12 12  0  0  0  0            999 V2000
    1.4289    0.8250    0.0000 C   0  0  0  0  0  0  0  0  0  0  0  0
    2.1434    1.2375    0.0000 C   0  0  0  0  0  0  0  0  0  0  0  0
    2.8579    0.8250    0.0000 C   0  0  0  0  0  0  0  0  0  0  0  0
    2.8579   -0.0000    0.0000 C   0  0  0  0  0  0  0  0  0  0  0  0
    2.1434   -0.4125    0.0000 C   0  0  0  0  0  0  0  0  0  0  0  0
    2.1434   -1.2375    0.0000 C   0  0  0  0  0  0  0  0  0  0  0  0
    1.4289   -1.6500    0.0000 C   0  0  0  0  0  0  0  0  0  0  0  0
    0.7145   -1.2375    0.0000 C   0  0  0  0  0  0  0  0  0  0  0  0
    0.7145   -0.4125    0.0000 C   0  0  0  0  0  0  0  0  0  0  0  0
   -0.0000    0.0000    0.0000 C   0  0  0  0  0  0  0  0  0  0  0  0
   -0.0000    0.8250    0.0000 C   0  0  0  0  0  0  0  0  0  0  0  0
    0.7145    1.2375    0.0000 C   0  0  0  0  0  0  0  0  0  0  0  0
  1  2  1  0  0  0  0
  3  2  1  4  0  0  0
  3  4  2  0  0  0  0
  4  5  1  0  0  0  0
  5  6  1  0  0  0  0
  7  6  1  4  0  0  0
  7  8  2  0  0  0  0
  8  9  1  0  0  0  0
  9 10  1  0  0  0  0
 11 10  1  4  0  0  0
 11 12  2  0  0  0  0
  1 12  1  0  0  0  0
M  END
> <ChemID>
10486

> <CAS>
4904-61-4

> <Original_SMILES>
C1CC=CCCC=CCCC=C1

> <preferred_name>
1,5,9-Cyclododecatriene

> <dsstox_substance_id>
DTXSID8027581

> <dsstox_compound_id>
DTXCID5065308

> <Canonical_QSARr>
C1CC=CCCC=CCCC=C1

> <InChI_Code_QSARr>
InChI=1S/C12H18/c1-2-4-6-8-10-12-11-9-7-5-3-1/h1-2,7-10H,3-6,11-12H2/b2-1+,9-7+,10-8+

> <InChI Key_QSARr>
ZOLLIQAKMYWTBR-FFWAUJBHSA-N

> <Salt_Solvent>


> <Salt_Solvent_ID>
0

> <Clint>
1.2374934696687279

> <Tr_1_Tst_0>
1

$$$$
Row44
  Mrv171c012261910192D          

 28 27  0  0  0  0            999 V2000
    0.1816   -3.2983    0.0000 C   0  0  0  0  0  0  0  0  0  0  0  0
   -0.5329   -3.7108    0.0000 O   0  0  0  0  0  0  0  0  0  0  0  0
    0.8961   -3.7108    0.0000 O   0  0  0  0  0  0  0  0  0  0  0  0
    0.1816   -2.4733    0.0000 C   0  0  0  0  0  0  0  0  0  0  0  0
    1.0066   -2.4733    0.0000 F   0  0  0  0  0  0  0  0  0  0  0  0
   -0.6434   -2.4733    0.0000 F   0  0  0  0  0  0  0  0  0  0  0  0
    0.1816   -1.6483    0.0000 C   0  0  0  0  0  0  0  0  0  0  0  0
    1.0066   -1.6483    0.0000 F   0  0  0  0  0  0  0  0  0  0  0  0
   -0.6434   -1.6483    0.0000 F   0  0  0  0  0  0  0  0  0  0  0  0
    0.1816   -0.8233    0.0000 C   0  0  0  0  0  0  0  0  0  0  0  0
    1.0066   -0.8233    0.0000 F   0  0  0  0  0  0  0  0  0  0  0  0
   -0.6434   -0.8233    0.0000 F   0  0  0  0  0  0  0  0  0  0  0  0
    0.1816    0.0017    0.0000 C   0  0  0  0  0  0  0  0  0  0  0  0
    1.0066    0.0017    0.0000 F   0  0  0  0  0  0  0  0  0  0  0  0
   -0.6434    0.0017    0.0000 F   0  0  0  0  0  0  0  0  0  0  0  0
    0.1816    0.8267    0.0000 C   0  0  0  0  0  0  0  0  0  0  0  0
    1.0066    0.8267    0.0000 F   0  0  0  0  0  0  0  0  0  0  0  0
   -0.6434    0.8267    0.0000 F   0  0  0  0  0  0  0  0  0  0  0  0
    0.1816    1.6517    0.0000 C   0  0  0  0  0  0  0  0  0  0  0  0
    1.0066    1.6517    0.0000 F   0  0  0  0  0  0  0  0  0  0  0  0
   -0.6434    1.6517    0.0000 F   0  0  0  0  0  0  0  0  0  0  0  0
    0.1816    2.4767    0.0000 C   0  0  0  0  0  0  0  0  0  0  0  0
    1.0066    2.4767    0.0000 F   0  0  0  0  0  0  0  0  0  0  0  0
   -0.6434    2.4767    0.0000 F   0  0  0  0  0  0  0  0  0  0  0  0
    0.1816    3.3017    0.0000 C   0  0  0  0  0  0  0  0  0  0  0  0
    0.1816    4.1267    0.0000 F   0  0  0  0  0  0  0  0  0  0  0  0
    1.0066    3.3017    0.0000 F   0  0  0  0  0  0  0  0  0  0  0  0
   -0.6434    3.3017    0.0000 F   0  0  0  0  0  0  0  0  0  0  0  0
  1  2  2  0  0  0  0
  1  3  1  0  0  0  0
  1  4  1  0  0  0  0
  4  5  1  0  0  0  0
  4  6  1  0  0  0  0
  4  7  1  0  0  0  0
  7  8  1  0  0  0  0
  7  9  1  0  0  0  0
  7 10  1  0  0  0  0
 10 11  1  0  0  0  0
 10 12  1  0  0  0  0
 10 13  1  0  0  0  0
 13 14  1  0  0  0  0
 13 15  1  0  0  0  0
 13 16  1  0  0  0  0
 16 17  1  0  0  0  0
 16 18  1  0  0  0  0
 16 19  1  0  0  0  0
 19 20  1  0  0  0  0
 19 21  1  0  0  0  0
 19 22  1  0  0  0  0
 22 23  1  0  0  0  0
 22 24  1  0  0  0  0
 22 25  1  0  0  0  0
 25 26  1  0  0  0  0
 25 27  1  0  0  0  0
 25 28  1  0  0  0  0
M  END
> <ChemID>
10487

> <CAS>
375-95-1

> <Original_SMILES>
OC(=O)C(F)(F)C(F)(F)C(F)(F)C(F)(F)C(F)(F)C(F)(F)C(F)(F)C(F)(F)F

> <preferred_name>
Perfluorononanoic acid

> <dsstox_substance_id>
DTXSID8031863

> <dsstox_compound_id>
DTXCID6011863

> <Canonical_QSARr>
OC(=O)C(F)(F)C(F)(F)C(F)(F)C(F)(F)C(F)(F)C(F)(F)C(F)(F)C(F)(F)F

> <InChI_Code_QSARr>
InChI=1S/C9HF17O2/c10-2(11,1(27)28)3(12,13)4(14,15)5(16,17)6(18,19)7(20,21)8(22,23)9(24,25)26/h(H,27,28)

> <InChI Key_QSARr>
UZUFPBIDKMEQEQ-UHFFFAOYSA-N

> <Salt_Solvent>


> <Salt_Solvent_ID>
0

> <Clint>
-7.0

> <Tr_1_Tst_0>
1

$$$$
Row449
  Mrv171c012261910192D          

 25 24  0  0  0  0            999 V2000
   -1.1792    3.3156    0.0000 O   0  0  0  0  0  0  0  0  0  0  0  0
   -1.5917    2.6011    0.0000 C   0  0  0  0  0  0  0  0  0  0  0  0
   -1.1792    1.8866    0.0000 C   0  0  0  0  0  0  0  0  0  0  0  0
   -0.7667    1.1722    0.0000 C   0  0  0  0  0  0  0  0  0  0  0  0
   -0.3542    0.4577    0.0000 C   0  0  0  0  0  0  0  0  0  0  0  0
    0.0583   -0.2568    0.0000 C   0  0  0  0  0  0  0  0  0  0  0  0
    0.4708   -0.9713    0.0000 C   0  0  0  0  0  0  0  0  0  0  0  0
    0.8833   -1.6857    0.0000 C   0  0  0  0  0  0  0  0  0  0  0  0
    1.2958   -2.4002    0.0000 C   0  0  0  0  0  0  0  0  0  0  0  0
    1.7083   -3.1147    0.0000 F   0  0  0  0  0  0  0  0  0  0  0  0
    0.5813   -2.8127    0.0000 F   0  0  0  0  0  0  0  0  0  0  0  0
    2.0103   -1.9877    0.0000 F   0  0  0  0  0  0  0  0  0  0  0  0
    0.1688   -2.0982    0.0000 F   0  0  0  0  0  0  0  0  0  0  0  0
    1.5978   -1.2732    0.0000 F   0  0  0  0  0  0  0  0  0  0  0  0
   -0.2437   -1.3838    0.0000 F   0  0  0  0  0  0  0  0  0  0  0  0
    1.1853   -0.5588    0.0000 F   0  0  0  0  0  0  0  0  0  0  0  0
   -0.6562   -0.6693    0.0000 F   0  0  0  0  0  0  0  0  0  0  0  0
    0.7728    0.1557    0.0000 F   0  0  0  0  0  0  0  0  0  0  0  0
   -1.0687    0.0452    0.0000 F   0  0  0  0  0  0  0  0  0  0  0  0
    0.3603    0.8702    0.0000 F   0  0  0  0  0  0  0  0  0  0  0  0
   -1.4812    0.7597    0.0000 F   0  0  0  0  0  0  0  0  0  0  0  0
   -0.0522    1.5847    0.0000 F   0  0  0  0  0  0  0  0  0  0  0  0
   -1.8937    1.4741    0.0000 F   0  0  0  0  0  0  0  0  0  0  0  0
   -0.4647    2.2991    0.0000 F   0  0  0  0  0  0  0  0  0  0  0  0
   -2.4167    2.6011    0.0000 O   0  0  0  0  0  0  0  0  0  0  0  0
  1  2  1  0  0  0  0
  2  3  1  0  0  0  0
  3  4  1  0  0  0  0
  4  5  1  0  0  0  0
  5  6  1  0  0  0  0
  6  7  1  0  0  0  0
  7  8  1  0  0  0  0
  8  9  1  0  0  0  0
  9 10  1  0  0  0  0
  9 11  1  0  0  0  0
  9 12  1  0  0  0  0
  8 13  1  0  0  0  0
  8 14  1  0  0  0  0
  7 15  1  0  0  0  0
  7 16  1  0  0  0  0
  6 17  1  0  0  0  0
  6 18  1  0  0  0  0
  5 19  1  0  0  0  0
  5 20  1  0  0  0  0
  4 21  1  0  0  0  0
  4 22  1  0  0  0  0
  3 23  1  0  0  0  0
  3 24  1  0  0  0  0
  2 25  2  0  0  0  0
M  END
> <ChemID>
10488

> <CAS>
335-67-1

> <Original_SMILES>
OC(=O)C(F)(F)C(F)(F)C(F)(F)C(F)(F)C(F)(F)C(F)(F)C(F)(F)F

> <preferred_name>
Perfluorooctanoic acid

> <dsstox_substance_id>
DTXSID8031865

> <dsstox_compound_id>
DTXCID6011865

> <Canonical_QSARr>
OC(=O)C(F)(F)C(F)(F)C(F)(F)C(F)(F)C(F)(F)C(F)(F)C(F)(F)F

> <InChI_Code_QSARr>
InChI=1S/C8HF15O2/c9-2(10,1(24)25)3(11,12)4(13,14)5(15,16)6(17,18)7(19,20)8(21,22)23/h(H,24,25)

> <InChI Key_QSARr>
SNGREZUHAYWORS-UHFFFAOYSA-N

> <Salt_Solvent>


> <Salt_Solvent_ID>
0

> <Clint>
0.21484384804769785

> <Tr_1_Tst_0>
0

$$$$
Row146
  Mrv171c012261910192D          

 23 23  0  0  0  0            999 V2000
    2.8630   -1.1754    0.0000 C   0  0  0  0  0  0  0  0  0  0  0  0
    2.1485   -0.7629    0.0000 C   0  0  0  0  0  0  0  0  0  0  0  0
    1.4341   -1.1754    0.0000 C   0  0  0  0  0  0  0  0  0  0  0  0
    0.7196   -0.7629    0.0000 C   0  0  0  0  0  0  0  0  0  0  0  0
    0.0051   -0.3504    0.0000 F   0  0  0  0  0  0  0  0  0  0  0  0
    0.3071   -1.4774    0.0000 F   0  0  0  0  0  0  0  0  0  0  0  0
    1.1321   -0.0484    0.0000 F   0  0  0  0  0  0  0  0  0  0  0  0
    1.4341   -2.0004    0.0000 C   0  0  0  0  0  0  0  0  0  0  0  0
    2.1485   -2.4129    0.0000 C   0  0  0  0  0  0  0  0  0  0  0  0
    2.1485   -3.2379    0.0000 N   0  3  0  0  0  0  0  0  0  0  0  0
    2.8630   -3.6504    0.0000 O   0  0  0  0  0  0  0  0  0  0  0  0
    1.4341   -3.6504    0.0000 O   0  5  0  0  0  0  0  0  0  0  0  0
    2.8630   -2.0004    0.0000 C   0  0  0  0  0  0  0  0  0  0  0  0
    3.5775   -2.4129    0.0000 N   0  0  0  0  0  0  0  0  0  0  0  0
    3.5775   -3.2379    0.0000 C   0  0  0  0  0  0  0  0  0  0  0  0
    4.2919   -3.6504    0.0000 C   0  0  0  0  0  0  0  0  0  0  0  0
    4.2919   -2.0004    0.0000 C   0  0  0  0  0  0  0  0  0  0  0  0
    5.0064   -2.4129    0.0000 C   0  0  0  0  0  0  0  0  0  0  0  0
    5.7209   -2.0004    0.0000 C   0  0  0  0  0  0  0  0  0  0  0  0
    5.0064   -3.2379    0.0000 C   0  0  0  0  0  0  0  0  0  0  0  0
    3.5775   -0.7629    0.0000 N   0  3  0  0  0  0  0  0  0  0  0  0
    4.2919   -1.1754    0.0000 O   0  0  0  0  0  0  0  0  0  0  0  0
    3.5775    0.0621    0.0000 O   0  5  0  0  0  0  0  0  0  0  0  0
  2  1  1  0  0  0  0
  3  2  2  0  0  0  0
  3  4  1  0  0  0  0
  4  5  1  0  0  0  0
  4  6  1  0  0  0  0
  4  7  1  0  0  0  0
  8  3  1  0  0  0  0
  9  8  2  0  0  0  0
  9 10  1  0  0  0  0
 10 11  2  0  0  0  0
 10 12  1  0  0  0  0
 13  9  1  0  0  0  0
  1 13  2  0  0  0  0
 13 14  1  0  0  0  0
 14 15  1  0  0  0  0
 15 16  1  0  0  0  0
 14 17  1  0  0  0  0
 17 18  1  0  0  0  0
 18 19  1  0  0  0  0
 18 20  2  0  0  0  0
  1 21  1  0  0  0  0
 21 22  2  0  0  0  0
 21 23  1  0  0  0  0
M  CHG  4  10   1  12  -1  21   1  23  -1
M  END
> <ChemID>
10489

> <CAS>
55283-68-6

> <Original_SMILES>
CC(=C)CN(CC)c1c(cc(cc1[N+]([O-])=O)C(F)(F)F)[N+]([O-])=O

> <preferred_name>
Ethalfluralin

> <dsstox_substance_id>
DTXSID8032386

> <dsstox_compound_id>
DTXCID6012386

> <Canonical_QSARr>
CC(=C)CN(CC)C1C(=CC(=CC=1[N+]([O-])=O)C(F)(F)F)[N+]([O-])=O

> <InChI_Code_QSARr>
InChI=1S/C13H14F3N3O4/c1-4-17(7-8(2)3)12-10(18(20)21)5-9(13(14,15)16)6-11(12)19(22)23/h5-6H,2,4,7H2,1,3H3

> <InChI Key_QSARr>
PTFJIKYUEPWBMS-UHFFFAOYSA-N

> <Salt_Solvent>


> <Salt_Solvent_ID>
0

> <Clint>
0.4814426285023049

> <Tr_1_Tst_0>
1

$$$$
Row241
  Mrv171c012261910192D          

 24 26  0  0  0  0            999 V2000
   -1.4257   -1.0059    0.0000 Cl  0  0  0  0  0  0  0  0  0  0  0  0
   -0.7113   -1.4184    0.0000 C   0  0  0  0  0  0  0  0  0  0  0  0
   -0.7113   -2.2434    0.0000 C   0  0  0  0  0  0  0  0  0  0  0  0
    0.0032   -2.6559    0.0000 C   0  0  0  0  0  0  0  0  0  0  0  0
    0.7177   -2.2434    0.0000 C   0  0  0  0  0  0  0  0  0  0  0  0
    1.4321   -2.6559    0.0000 C   0  0  0  0  0  0  0  0  0  0  0  0
    2.1466   -2.2434    0.0000 C   0  0  0  0  0  0  0  0  0  0  0  0
    2.8611   -2.6559    0.0000 C   0  0  0  0  0  0  0  0  0  0  0  0
    3.5756   -3.0684    0.0000 C   0  0  0  0  0  0  0  0  0  0  0  0
    3.5756   -3.8934    0.0000 N   0  0  0  0  0  0  0  0  0  0  0  0
    4.2430   -4.3784    0.0000 C   0  0  0  0  0  0  0  0  0  0  0  0
    3.9881   -5.1630    0.0000 N   0  0  0  0  0  0  0  0  0  0  0  0
    3.1631   -5.1630    0.0000 C   0  0  0  0  0  0  0  0  0  0  0  0
    2.9081   -4.3784    0.0000 N   0  0  0  0  0  0  0  0  0  0  0  0
    2.4486   -3.3704    0.0000 C   0  0  0  0  0  0  0  0  0  0  0  0
    2.0361   -4.0849    0.0000 N   0  0  0  0  0  0  0  0  0  0  0  0
    3.2736   -1.9415    0.0000 C   0  0  0  0  0  0  0  0  0  0  0  0
    4.0986   -1.9415    0.0000 C   0  0  0  0  0  0  0  0  0  0  0  0
    4.5111   -1.2270    0.0000 C   0  0  0  0  0  0  0  0  0  0  0  0
    4.0986   -0.5125    0.0000 C   0  0  0  0  0  0  0  0  0  0  0  0
    3.2736   -0.5125    0.0000 C   0  0  0  0  0  0  0  0  0  0  0  0
    2.8611   -1.2270    0.0000 C   0  0  0  0  0  0  0  0  0  0  0  0
    0.7177   -1.4184    0.0000 C   0  0  0  0  0  0  0  0  0  0  0  0
    0.0032   -1.0059    0.0000 C   0  0  0  0  0  0  0  0  0  0  0  0
  1  2  1  0  0  0  0
  3  2  2  0  0  0  0
  4  3  1  0  0  0  0
  5  4  2  0  0  0  0
  5  6  1  0  0  0  0
  6  7  1  0  0  0  0
  7  8  1  0  0  0  0
  8  9  1  0  0  0  0
  9 10  1  0  0  0  0
 11 10  1  0  0  0  0
 12 11  2  0  0  0  0
 13 12  1  0  0  0  0
 14 13  2  0  0  0  0
 10 14  1  0  0  0  0
  8 15  1  0  0  0  0
 15 16  3  0  0  0  0
  8 17  1  0  0  0  0
 18 17  2  0  0  0  0
 19 18  1  0  0  0  0
 20 19  2  0  0  0  0
 21 20  1  0  0  0  0
 22 21  2  0  0  0  0
 17 22  1  0  0  0  0
 23  5  1  0  0  0  0
 24 23  2  0  0  0  0
  2 24  1  0  0  0  0
M  END
> <ChemID>
10490

> <CAS>
114369-43-6

> <Original_SMILES>
N#CC(C[n]1c[n]c[n]1)(CCc1ccc(Cl)cc1)c1ccccc1

> <preferred_name>
Fenbuconazole

> <dsstox_substance_id>
DTXSID8032548

> <dsstox_compound_id>
DTXCID6012548

> <Canonical_QSARr>
N#CC(CN1C=NC=N1)(CCC1C=CC(Cl)=CC=1)C1C=CC=CC=1

> <InChI_Code_QSARr>
InChI=1S/C19H17ClN4/c20-18-8-6-16(7-9-18)10-11-19(12-21,13-24-15-22-14-23-24)17-4-2-1-3-5-17/h1-9,14-15H,10-11,13H2

> <InChI Key_QSARr>
RQDJADAKIFFEKQ-UHFFFAOYSA-N

> <Salt_Solvent>


> <Salt_Solvent_ID>
0

> <Clint>
1.04883008652835

> <Tr_1_Tst_0>
1

$$$$
Row161
  Mrv171c012261910192D          

 21 22  0  0  0  0            999 V2000
    1.0377   -0.7296    0.0000 O   0  0  0  0  0  0  0  0  0  0  0  0
    0.3233   -0.3171    0.0000 C   0  0  0  0  0  0  0  0  0  0  0  0
   -0.3912   -0.7296    0.0000 C   0  0  0  0  0  0  0  0  0  0  0  0
   -1.1057   -0.3171    0.0000 C   0  0  0  0  0  0  0  0  0  0  0  0
   -1.1057    0.5079    0.0000 S   0  0  0  0  0  0  0  0  0  0  0  0
   -1.8201    0.9204    0.0000 C   0  0  0  0  0  0  0  0  0  0  0  0
   -1.8201    1.7454    0.0000 N   0  0  0  0  0  0  0  0  0  0  0  0
   -2.5346    2.1579    0.0000 C   0  0  0  0  0  0  0  0  0  0  0  0
   -2.5346    2.9829    0.0000 O   0  0  0  0  0  0  0  0  0  0  0  0
   -3.2491    3.3954    0.0000 C   0  0  0  0  0  0  0  0  0  0  0  0
   -3.2491    1.7454    0.0000 C   0  0  0  0  0  0  0  0  0  0  0  0
   -3.2491    0.9204    0.0000 C   0  0  0  0  0  0  0  0  0  0  0  0
   -3.9636    0.5079    0.0000 O   0  0  0  0  0  0  0  0  0  0  0  0
   -3.9636   -0.3171    0.0000 C   0  0  0  0  0  0  0  0  0  0  0  0
   -2.5346    0.5079    0.0000 N   0  0  0  0  0  0  0  0  0  0  0  0
   -1.8201   -0.7296    0.0000 C   0  0  0  0  0  0  0  0  0  0  0  0
   -1.8201   -1.5546    0.0000 C   0  0  0  0  0  0  0  0  0  0  0  0
   -1.1057   -1.9671    0.0000 C   0  0  0  0  0  0  0  0  0  0  0  0
   -0.3912   -1.5546    0.0000 C   0  0  0  0  0  0  0  0  0  0  0  0
    0.3233   -1.9671    0.0000 Cl  0  0  0  0  0  0  0  0  0  0  0  0
    0.3233    0.5079    0.0000 O   0  0  0  0  0  0  0  0  0  0  0  0
  1  2  1  0  0  0  0
  2  3  1  0  0  0  0
  4  3  1  0  0  0  0
  4  5  1  0  0  0  0
  5  6  1  0  0  0  0
  7  6  1  0  0  0  0
  8  7  2  0  0  0  0
  8  9  1  0  0  0  0
  9 10  1  0  0  0  0
 11  8  1  0  0  0  0
 12 11  2  0  0  0  0
 12 13  1  0  0  0  0
 13 14  1  0  0  0  0
 15 12  1  0  0  0  0
  6 15  2  0  0  0  0
 16  4  2  0  0  0  0
 17 16  1  0  0  0  0
 18 17  2  0  0  0  0
 19 18  1  0  0  0  0
  3 19  2  0  0  0  0
 19 20  1  0  0  0  0
  2 21  2  0  0  0  0
M  END
> <ChemID>
10491

> <CAS>
123343-16-8

> <Original_SMILES>
[Na+].COc1cc([n]c([n]1)Sc1cccc(Cl)c1C([O-])=O)OC

> <preferred_name>
Pyrithiobac-sodium

> <dsstox_substance_id>
DTXSID8032673

> <dsstox_compound_id>
DTXCID6012673

> <Canonical_QSARr>
COC1=CC(=NC(=N1)SC1=CC=CC(Cl)=C1C(O)=O)OC

> <InChI_Code_QSARr>
InChI=1S/C13H11ClN2O4S/c1-19-9-6-10(20-2)16-13(15-9)21-8-5-3-4-7(14)11(8)12(17)18/h3-6H,1-2H3,(H,17,18)

> <InChI Key_QSARr>
QEGVVEOAVNHRAA-UHFFFAOYSA-N

> <Salt_Solvent>
[Na+]

> <Salt_Solvent_ID>
110

> <Clint>
0.5998830720736877

> <Tr_1_Tst_0>
1

$$$$
Row295
  Mrv171c012261910192D          

 21 22  0  0  0  0            999 V2000
    0.0000    0.0000    0.0000 C   0  0  0  0  0  0  0  0  0  0  0  0
    0.7145   -0.4125    0.0000 C   0  0  0  0  0  0  0  0  0  0  0  0
    1.4289   -0.0000    0.0000 C   0  0  0  0  0  0  0  0  0  0  0  0
    0.7145   -1.2375    0.0000 N   0  0  0  0  0  0  0  0  0  0  0  0
    1.4289   -1.6500    0.0000 C   0  0  0  0  0  0  0  0  0  0  0  0
    2.1434   -1.2375    0.0000 O   0  0  0  0  0  0  0  0  0  0  0  0
    1.4289   -2.4750    0.0000 N   0  0  0  0  0  0  0  0  0  0  0  0
    0.7145   -2.8875    0.0000 C   0  0  0  0  0  0  0  0  0  0  0  0
    0.0000   -2.4750    0.0000 S   0  0  0  0  0  0  0  0  0  0  0  0
    0.0000   -1.6500    0.0000 C   0  0  0  0  0  0  0  0  0  0  0  0
   -0.7145   -1.2375    0.0000 N   0  0  0  0  0  0  0  0  0  0  0  0
   -1.4289   -1.6500    0.0000 C   0  0  0  0  0  0  0  0  0  0  0  0
   -2.1434   -2.0625    0.0000 C   0  0  0  0  0  0  0  0  0  0  0  0
   -1.0164   -2.3645    0.0000 C   0  0  0  0  0  0  0  0  0  0  0  0
   -1.8414   -0.9355    0.0000 C   0  0  0  0  0  0  0  0  0  0  0  0
    2.1434   -2.8875    0.0000 C   0  0  0  0  0  0  0  0  0  0  0  0
    2.8579   -2.4750    0.0000 C   0  0  0  0  0  0  0  0  0  0  0  0
    3.5724   -2.8875    0.0000 C   0  0  0  0  0  0  0  0  0  0  0  0
    3.5724   -3.7125    0.0000 C   0  0  0  0  0  0  0  0  0  0  0  0
    2.8579   -4.1250    0.0000 C   0  0  0  0  0  0  0  0  0  0  0  0
    2.1434   -3.7125    0.0000 C   0  0  0  0  0  0  0  0  0  0  0  0
  1  2  1  0  0  0  0
  2  3  1  0  0  0  0
  2  4  1  0  0  0  0
  4  5  1  0  0  0  0
  5  6  2  0  0  0  0
  5  7  1  0  0  0  0
  7  8  1  0  0  0  0
  8  9  1  0  0  0  0
  9 10  1  0  0  0  0
  4 10  1  0  0  0  0
 10 11  2  0  0  0  0
 11 12  1  4  0  0  0
 12 13  1  0  0  0  0
 12 14  1  0  0  0  0
 12 15  1  0  0  0  0
  7 16  1  0  0  0  0
 16 17  1  0  0  0  0
 17 18  2  0  0  0  0
 18 19  1  0  0  0  0
 19 20  2  0  0  0  0
 20 21  1  0  0  0  0
 16 21  2  0  0  0  0
M  END
> <ChemID>
10492

> <CAS>
69327-76-0

> <Original_SMILES>
CC(C)(C)N=C1SCN(C(=O)N1C(C)C)c1ccccc1

> <preferred_name>
Buprofezin

> <dsstox_substance_id>
DTXSID8034401

> <dsstox_compound_id>
DTXCID6014401

> <Canonical_QSARr>
CC(C)N1C(=O)N(CSC1=NC(C)(C)C)C1C=CC=CC=1

> <InChI_Code_QSARr>
InChI=1S/C16H23N3OS/c1-12(2)19-14(17-16(3,4)5)21-11-18(15(19)20)13-9-7-6-8-10-13/h6-10,12H,11H2,1-5H3

> <InChI Key_QSARr>
PRLVTUNWOQKEAI-UHFFFAOYSA-N

> <Salt_Solvent>


> <Salt_Solvent_ID>
0

> <Clint>
1.2664668954402412

> <Tr_1_Tst_0>
1

$$$$
Row288
  Mrv171c012261910192D          

 19 20  0  0  0  0            999 V2000
    5.8113   -1.3999    0.0000 S   0  0  0  0  0  0  0  0  0  0  0  0
    6.5258   -0.9874    0.0000 C   0  0  0  0  0  0  0  0  0  0  0  0
    5.3988   -0.6855    0.0000 O   0  0  0  0  0  0  0  0  0  0  0  0
    6.2238   -2.1144    0.0000 O   0  0  0  0  0  0  0  0  0  0  0  0
    5.0969   -1.8124    0.0000 O   0  0  0  0  0  0  0  0  0  0  0  0
    4.3824   -1.3999    0.0000 C   0  0  0  0  0  0  0  0  0  0  0  0
    4.3824   -0.5749    0.0000 C   0  0  0  0  0  0  0  0  0  0  0  0
    3.6679   -0.1624    0.0000 C   0  0  0  0  0  0  0  0  0  0  0  0
    2.9535   -0.5749    0.0000 C   0  0  0  0  0  0  0  0  0  0  0  0
    2.1688   -0.3200    0.0000 O   0  0  0  0  0  0  0  0  0  0  0  0
    1.6839   -0.9874    0.0000 C   0  0  0  0  0  0  0  0  0  0  0  0
    0.8589   -0.9874    0.0000 O   0  0  0  0  0  0  0  0  0  0  0  0
    0.4464   -0.2730    0.0000 C   0  0  0  0  0  0  0  0  0  0  0  0
   -0.3786   -0.2730    0.0000 C   0  0  0  0  0  0  0  0  0  0  0  0
    2.1688   -1.6549    0.0000 C   0  0  0  0  0  0  0  0  0  0  0  0
    1.4544   -2.0674    0.0000 C   0  0  0  0  0  0  0  0  0  0  0  0
    2.5044   -2.4085    0.0000 C   0  0  0  0  0  0  0  0  0  0  0  0
    2.9535   -1.3999    0.0000 C   0  0  0  0  0  0  0  0  0  0  0  0
    3.6679   -1.8124    0.0000 C   0  0  0  0  0  0  0  0  0  0  0  0
  1  2  1  0  0  0  0
  1  3  2  0  0  0  0
  1  4  2  0  0  0  0
  1  5  1  0  0  0  0
  5  6  1  0  0  0  0
  7  6  1  0  0  0  0
  8  7  2  0  0  0  0
  9  8  1  0  0  0  0
  9 10  1  0  0  0  0
 10 11  1  0  0  0  0
 11 12  1  0  0  0  0
 12 13  1  0  0  0  0
 13 14  1  0  0  0  0
 11 15  1  0  0  0  0
 15 16  1  0  0  0  0
 15 17  1  0  0  0  0
 15 18  1  0  0  0  0
 18  9  2  0  0  0  0
 19 18  1  0  0  0  0
  6 19  2  0  0  0  0
M  END
> <ChemID>
10493

> <CAS>
26225-79-6

> <Original_SMILES>
CCOC1Oc2ccc(cc2C1(C)C)OS(C)(=O)=O

> <preferred_name>
Ethofumesate

> <dsstox_substance_id>
DTXSID8034580

> <dsstox_compound_id>
DTXCID6014580

> <Canonical_QSARr>
CCOC1OC2C=CC(=CC=2C1(C)C)OS(C)(=O)=O

> <InChI_Code_QSARr>
InChI=1S/C13H18O5S/c1-5-16-12-13(2,3)10-8-9(18-19(4,14)15)6-7-11(10)17-12/h6-8,12H,5H2,1-4H3

> <InChI Key_QSARr>
IRCMYGHHKLLGHV-UHFFFAOYSA-N

> <Salt_Solvent>


> <Salt_Solvent_ID>
0

> <Clint>
1.246498580795801

> <Tr_1_Tst_0>
1

$$$$
Row296
  Mrv171c012261910192D          

 26 28  0  0  0  0            999 V2000
    4.4825   -2.4184    0.0000 N   0  0  0  0  0  0  0  0  0  0  0  0
    3.8151   -1.9334    0.0000 C   0  0  0  0  0  0  0  0  0  0  0  0
    3.8151   -1.1084    0.0000 C   0  0  0  0  0  0  0  0  0  0  0  0
    4.5296   -0.6959    0.0000 C   0  0  0  0  0  0  0  0  0  0  0  0
    4.5296    0.1291    0.0000 C   0  0  0  0  0  0  0  0  0  0  0  0
    3.8151    0.5416    0.0000 C   0  0  0  0  0  0  0  0  0  0  0  0
    3.8151    1.3666    0.0000 C   0  0  0  0  0  0  0  0  0  0  0  0
    3.8151    2.1916    0.0000 C   0  0  0  0  0  0  0  0  0  0  0  0
    2.9901    1.3666    0.0000 C   0  0  0  0  0  0  0  0  0  0  0  0
    4.6401    1.3666    0.0000 C   0  0  0  0  0  0  0  0  0  0  0  0
    3.1006    0.1291    0.0000 C   0  0  0  0  0  0  0  0  0  0  0  0
    3.1006   -0.6959    0.0000 C   0  0  0  0  0  0  0  0  0  0  0  0
    2.3862   -1.1084    0.0000 O   0  0  0  0  0  0  0  0  0  0  0  0
    2.3862   -1.9334    0.0000 C   0  0  0  0  0  0  0  0  0  0  0  0
    1.6717   -2.3459    0.0000 C   0  0  0  0  0  0  0  0  0  0  0  0
    3.1477   -2.4184    0.0000 C   0  0  0  0  0  0  0  0  0  0  0  0
    3.4026   -3.2030    0.0000 O   0  0  0  0  0  0  0  0  0  0  0  0
    4.2276   -3.2030    0.0000 C   0  0  0  0  0  0  0  0  0  0  0  0
    4.7125   -3.8704    0.0000 C   0  0  0  0  0  0  0  0  0  0  0  0
    4.3770   -4.6241    0.0000 C   0  0  0  0  0  0  0  0  0  0  0  0
    3.5565   -4.7103    0.0000 F   0  0  0  0  0  0  0  0  0  0  0  0
    4.8619   -5.2915    0.0000 C   0  0  0  0  0  0  0  0  0  0  0  0
    5.6824   -5.2053    0.0000 C   0  0  0  0  0  0  0  0  0  0  0  0
    6.0179   -4.4516    0.0000 C   0  0  0  0  0  0  0  0  0  0  0  0
    5.5330   -3.7842    0.0000 C   0  0  0  0  0  0  0  0  0  0  0  0
    5.8686   -3.0305    0.0000 F   0  0  0  0  0  0  0  0  0  0  0  0
  2  1  1  0  0  0  0
  2  3  1  0  0  0  0
  4  3  1  0  0  0  0
  5  4  2  0  0  0  0
  6  5  1  0  0  0  0
  6  7  1  0  0  0  0
  7  8  1  0  0  0  0
  7  9  1  0  0  0  0
  7 10  1  0  0  0  0
 11  6  2  0  0  0  0
 12 11  1  0  0  0  0
  3 12  2  0  0  0  0
 12 13  1  0  0  0  0
 13 14  1  0  0  0  0
 14 15  1  0  0  0  0
 16  2  1  0  0  0  0
 17 16  1  0  0  0  0
 18 17  1  0  0  0  0
  1 18  2  0  0  0  0
 18 19  1  0  0  0  0
 20 19  1  0  0  0  0
 20 21  1  0  0  0  0
 22 20  2  0  0  0  0
 23 22  1  0  0  0  0
 24 23  2  0  0  0  0
 25 24  1  0  0  0  0
 19 25  2  0  0  0  0
 25 26  1  0  0  0  0
M  END
> <ChemID>
10494

> <CAS>
153233-91-1

> <Original_SMILES>
CCOc1cc(ccc1C1COC(=N1)c1c(F)cccc1F)C(C)(C)C

> <preferred_name>
Etoxazole

> <dsstox_substance_id>
DTXSID8034586

> <dsstox_compound_id>
DTXCID6014586

> <Canonical_QSARr>
CCOC1C=C(C=CC=1C1COC(=N1)C1C(F)=CC=CC=1F)C(C)(C)C

> <InChI_Code_QSARr>
InChI=1S/C21H23F2NO2/c1-5-25-18-11-13(21(2,3)4)9-10-14(18)17-12-26-20(24-17)19-15(22)7-6-8-16(19)23/h6-11,17H,5,12H2,1-4H3

> <InChI Key_QSARr>
IXSZQYVWNJNRAL-UHFFFAOYSA-N

> <Salt_Solvent>


> <Salt_Solvent_ID>
0

> <Clint>
1.2667019668840878

> <Tr_1_Tst_0>
1

$$$$
Row78
  Mrv171c012261910192D          

 19 20  0  0  0  0            999 V2000
    2.4668   -1.8632    0.0000 C   0  0  0  0  0  0  0  0  0  0  0  0
    1.9819   -2.5306    0.0000 C   0  0  0  0  0  0  0  0  0  0  0  0
    1.1614   -2.4444    0.0000 N   0  0  0  0  0  0  0  0  0  0  0  0
    0.6765   -3.1118    0.0000 C   0  0  0  0  0  0  0  0  0  0  0  0
    1.0120   -3.8655    0.0000 C   0  0  0  0  0  0  0  0  0  0  0  0
    1.8325   -3.9517    0.0000 C   0  0  0  0  0  0  0  0  0  0  0  0
    2.3174   -3.2843    0.0000 C   0  0  0  0  0  0  0  0  0  0  0  0
    3.1379   -3.3705    0.0000 C   0  0  0  0  0  0  0  0  0  0  0  0
    3.6228   -2.7031    0.0000 O   0  0  0  0  0  0  0  0  0  0  0  0
    3.4735   -4.1242    0.0000 O   0  0  0  0  0  0  0  0  0  0  0  0
    3.2918   -1.8632    0.0000 N   0  0  0  0  0  0  0  0  0  0  0  0
    3.5467   -1.0786    0.0000 C   0  0  0  0  0  0  0  0  0  0  0  0
    4.3314   -0.8236    0.0000 O   0  0  0  0  0  0  0  0  0  0  0  0
    2.8793   -0.5936    0.0000 C   0  0  0  0  0  0  0  0  0  0  0  0
    3.4313    0.0194    0.0000 C   0  0  0  0  0  0  0  0  0  0  0  0
    2.3273    0.0194    0.0000 C   0  0  0  0  0  0  0  0  0  0  0  0
    1.5203   -0.1521    0.0000 C   0  0  0  0  0  0  0  0  0  0  0  0
    2.5822    0.8041    0.0000 C   0  0  0  0  0  0  0  0  0  0  0  0
    2.2119   -1.0786    0.0000 N   0  0  0  0  0  0  0  0  0  0  0  0
  1  2  1  0  0  0  0
  3  2  2  0  0  0  0
  4  3  1  0  0  0  0
  5  4  2  0  0  0  0
  6  5  1  0  0  0  0
  7  6  2  0  0  0  0
  2  7  1  0  0  0  0
  7  8  1  0  0  0  0
  8  9  1  0  0  0  0
  8 10  2  0  0  0  0
 11  1  1  0  0  0  0
 12 11  1  0  0  0  0
 12 13  2  0  0  0  0
 14 12  1  0  0  0  0
 14 15  1  0  0  0  0
 14 16  1  0  0  0  0
 16 17  1  0  0  0  0
 16 18  1  0  0  0  0
 19 14  1  0  0  0  0
  1 19  2  0  0  0  0
M  END
> <ChemID>
10495

> <CAS>
81334-34-1

> <Original_SMILES>
CC1(N=C(NC1=O)c1[n]cccc1C(O)=O)C(C)C

> <preferred_name>
Imazapyr

> <dsstox_substance_id>
DTXSID8034665

> <dsstox_compound_id>
DTXCID6014665

> <Canonical_QSARr>
CC1(N=C(NC1=O)C1=NC=CC=C1C(O)=O)C(C)C

> <InChI_Code_QSARr>
InChI=1S/C13H15N3O3/c1-7(2)13(3)12(19)15-10(16-13)9-8(11(17)18)5-4-6-14-9/h4-7H,1-3H3,(H,17,18)(H,15,16,19)

> <InChI Key_QSARr>
CLQMBPJKHLGMQK-UHFFFAOYSA-N

> <Salt_Solvent>


> <Salt_Solvent_ID>
0

> <Clint>
-0.40893539297350073

> <Tr_1_Tst_0>
1

$$$$
Row537
  Mrv171c012261910192D          

 15 16  0  0  0  0            999 V2000
    1.9996   -1.2375    0.0000 N   0  0  0  0  0  0  0  0  0  0  0  0
    1.2851   -0.8250    0.0000 C   0  0  0  0  0  0  0  0  0  0  0  0
    1.2851    0.0000    0.0000 C   0  0  0  0  0  0  0  0  0  0  0  0
    0.5706   -1.2375    0.0000 C   0  0  0  0  0  0  0  0  0  0  0  0
    0.5706   -2.0625    0.0000 C   0  0  0  0  0  0  0  0  0  0  0  0
   -0.1438   -2.4750    0.0000 C   0  0  0  0  0  0  0  0  0  0  0  0
    1.2851   -2.4750    0.0000 N   0  0  0  0  0  0  0  0  0  0  0  0
    1.9996   -2.0625    0.0000 C   0  0  0  0  0  0  0  0  0  0  0  0
    2.7140   -2.4750    0.0000 N   0  0  0  0  0  0  0  0  0  0  0  0
    3.4285   -2.0625    0.0000 C   0  0  0  0  0  0  0  0  0  0  0  0
    4.1430   -2.4750    0.0000 C   0  0  0  0  0  0  0  0  0  0  0  0
    4.8575   -2.0625    0.0000 C   0  0  0  0  0  0  0  0  0  0  0  0
    4.8575   -1.2375    0.0000 C   0  0  0  0  0  0  0  0  0  0  0  0
    4.1430   -0.8250    0.0000 C   0  0  0  0  0  0  0  0  0  0  0  0
    3.4285   -1.2375    0.0000 C   0  0  0  0  0  0  0  0  0  0  0  0
  2  1  1  0  0  0  0
  2  3  1  0  0  0  0
  4  2  2  0  0  0  0
  5  4  1  0  0  0  0
  5  6  1  0  0  0  0
  7  5  2  0  0  0  0
  8  7  1  0  0  0  0
  1  8  2  0  0  0  0
  8  9  1  0  0  0  0
  9 10  1  0  0  0  0
 11 10  1  0  0  0  0
 12 11  2  0  0  0  0
 13 12  1  0  0  0  0
 14 13  2  0  0  0  0
 15 14  1  0  0  0  0
 10 15  2  0  0  0  0
M  END
> <ChemID>
10496

> <CAS>
53112-28-0

> <Original_SMILES>
Cc1cc(C)[n]c(Nc2ccccc2)[n]1

> <preferred_name>
Pyrimethanil

> <dsstox_substance_id>
DTXSID8034877

> <dsstox_compound_id>
DTXCID6014877

> <Canonical_QSARr>
CC1C=C(C)N=C(NC2C=CC=CC=2)N=1

> <InChI_Code_QSARr>
InChI=1S/C12H13N3/c1-9-8-10(2)14-12(13-9)15-11-6-4-3-5-7-11/h3-8H,1-2H3,(H,13,14,15)

> <InChI Key_QSARr>
ZLIBICFPKPWGIZ-UHFFFAOYSA-N

> <Salt_Solvent>


> <Salt_Solvent_ID>
0

> <Clint>
1.642365580844973

> <Tr_1_Tst_0>
0

$$$$
Row419
  Mrv171c012261910192D          

 23 24  0  0  0  0            999 V2000
    3.6423   -3.3853    0.0000 N   0  0  0  0  0  0  0  0  0  0  0  0
    3.6423   -2.5603    0.0000 C   0  0  0  0  0  0  0  0  0  0  0  0
    2.9278   -2.1478    0.0000 C   0  0  0  0  0  0  0  0  0  0  0  0
    2.9278   -1.3228    0.0000 C   0  0  0  0  0  0  0  0  0  0  0  0
    3.6423   -0.9103    0.0000 C   0  0  0  0  0  0  0  0  0  0  0  0
    3.6423   -0.0853    0.0000 C   0  0  0  0  0  0  0  0  0  0  0  0
    2.9278    0.3272    0.0000 C   0  0  0  0  0  0  0  0  0  0  0  0
    2.9278    1.1522    0.0000 Cl  0  0  0  0  0  0  0  0  0  0  0  0
    2.2134   -0.0853    0.0000 C   0  0  0  0  0  0  0  0  0  0  0  0
    2.2134   -0.9103    0.0000 C   0  0  0  0  0  0  0  0  0  0  0  0
    1.4989   -1.3228    0.0000 Cl  0  0  0  0  0  0  0  0  0  0  0  0
    2.2134   -2.5603    0.0000 C   0  0  0  0  0  0  0  0  0  0  0  0
    2.2134   -3.3853    0.0000 O   0  0  0  0  0  0  0  0  0  0  0  0
    1.4989   -3.7978    0.0000 C   0  0  0  0  0  0  0  0  0  0  0  0
    1.0864   -3.0833    0.0000 F   0  0  0  0  0  0  0  0  0  0  0  0
    1.9114   -4.5122    0.0000 F   0  0  0  0  0  0  0  0  0  0  0  0
    0.7844   -4.2103    0.0000 C   0  0  0  0  0  0  0  0  0  0  0  0
    0.7844   -5.0353    0.0000 F   0  0  0  0  0  0  0  0  0  0  0  0
    0.0699   -3.7978    0.0000 F   0  0  0  0  0  0  0  0  0  0  0  0
    2.9749   -3.8702    0.0000 C   0  0  0  0  0  0  0  0  0  0  0  0
    3.2298   -4.6548    0.0000 N   0  0  0  0  0  0  0  0  0  0  0  0
    4.0548   -4.6548    0.0000 C   0  0  0  0  0  0  0  0  0  0  0  0
    4.3097   -3.8702    0.0000 N   0  0  0  0  0  0  0  0  0  0  0  0
  1  2  1  0  0  0  0
  2  3  1  0  0  0  0
  3  4  1  0  0  0  0
  5  4  1  0  0  0  0
  6  5  2  0  0  0  0
  7  6  1  0  0  0  0
  7  8  1  0  0  0  0
  9  7  2  0  0  0  0
 10  9  1  0  0  0  0
  4 10  2  0  0  0  0
 10 11  1  0  0  0  0
  3 12  1  0  0  0  0
 12 13  1  0  0  0  0
 13 14  1  0  0  0  0
 14 15  1  0  0  0  0
 14 16  1  0  0  0  0
 14 17  1  0  0  0  0
 17 18  1  0  0  0  0
 17 19  1  0  0  0  0
 20  1  1  0  0  0  0
 21 20  2  0  0  0  0
 22 21  1  0  0  0  0
 23 22  2  0  0  0  0
  1 23  1  0  0  0  0
M  END
> <ChemID>
10497

> <CAS>
112281-77-3

> <Original_SMILES>
FC(F)C(F)(F)OCC(C[n]1c[n]c[n]1)c1ccc(Cl)cc1Cl

> <preferred_name>
Tetraconazole

> <dsstox_substance_id>
DTXSID8034956

> <dsstox_compound_id>
DTXCID6014956

> <Canonical_QSARr>
FC(F)C(F)(F)OCC(CN1C=NC=N1)C1C=CC(Cl)=CC=1Cl

> <InChI_Code_QSARr>
InChI=1S/C13H11Cl2F4N3O/c14-9-1-2-10(11(15)3-9)8(4-22-7-20-6-21-22)5-23-13(18,19)12(16)17/h1-3,6-8,12H,4-5H2

> <InChI Key_QSARr>
LQDARGUHUSPFNL-UHFFFAOYSA-N

> <Salt_Solvent>


> <Salt_Solvent_ID>
0

> <Clint>
-7.0

> <Tr_1_Tst_0>
0

$$$$
Row37
  Mrv171c012261910192D          

 29 28  0  0  0  0            999 V2000
   -0.0246   -3.9444    0.0000 O   0  0  0  0  0  0  0  0  0  0  0  0
   -0.0246   -3.1194    0.0000 S   0  0  0  0  0  0  0  0  0  0  0  0
   -0.0246   -2.2944    0.0000 C   0  0  0  0  0  0  0  0  0  0  0  0
   -0.0246   -1.4694    0.0000 C   0  0  0  0  0  0  0  0  0  0  0  0
   -0.0246   -0.6444    0.0000 C   0  0  0  0  0  0  0  0  0  0  0  0
   -0.0246    0.1806    0.0000 C   0  0  0  0  0  0  0  0  0  0  0  0
   -0.0246    1.0056    0.0000 C   0  0  0  0  0  0  0  0  0  0  0  0
   -0.0246    1.8306    0.0000 C   0  0  0  0  0  0  0  0  0  0  0  0
   -0.0246    2.6556    0.0000 C   0  0  0  0  0  0  0  0  0  0  0  0
   -0.0246    3.4806    0.0000 C   0  0  0  0  0  0  0  0  0  0  0  0
   -0.0246    4.3056    0.0000 F   0  0  0  0  0  0  0  0  0  0  0  0
    0.8004    3.4806    0.0000 F   0  0  0  0  0  0  0  0  0  0  0  0
   -0.8496    3.4806    0.0000 F   0  0  0  0  0  0  0  0  0  0  0  0
    0.8004    2.6556    0.0000 F   0  0  0  0  0  0  0  0  0  0  0  0
   -0.8496    2.6556    0.0000 F   0  0  0  0  0  0  0  0  0  0  0  0
    0.8004    1.8306    0.0000 F   0  0  0  0  0  0  0  0  0  0  0  0
   -0.8496    1.8306    0.0000 F   0  0  0  0  0  0  0  0  0  0  0  0
    0.8004    1.0056    0.0000 F   0  0  0  0  0  0  0  0  0  0  0  0
   -0.8496    1.0056    0.0000 F   0  0  0  0  0  0  0  0  0  0  0  0
    0.8004    0.1806    0.0000 F   0  0  0  0  0  0  0  0  0  0  0  0
   -0.8496    0.1806    0.0000 F   0  0  0  0  0  0  0  0  0  0  0  0
    0.8004   -0.6444    0.0000 F   0  0  0  0  0  0  0  0  0  0  0  0
   -0.8496   -0.6444    0.0000 F   0  0  0  0  0  0  0  0  0  0  0  0
    0.8004   -1.4694    0.0000 F   0  0  0  0  0  0  0  0  0  0  0  0
   -0.8496   -1.4694    0.0000 F   0  0  0  0  0  0  0  0  0  0  0  0
    0.8004   -2.2944    0.0000 F   0  0  0  0  0  0  0  0  0  0  0  0
   -0.8496   -2.2944    0.0000 F   0  0  0  0  0  0  0  0  0  0  0  0
    0.8004   -3.1194    0.0000 O   0  0  0  0  0  0  0  0  0  0  0  0
   -0.8496   -3.1194    0.0000 O   0  0  0  0  0  0  0  0  0  0  0  0
  1  2  1  0  0  0  0
  2  3  1  0  0  0  0
  3  4  1  0  0  0  0
  4  5  1  0  0  0  0
  5  6  1  0  0  0  0
  6  7  1  0  0  0  0
  7  8  1  0  0  0  0
  8  9  1  0  0  0  0
  9 10  1  0  0  0  0
 10 11  1  0  0  0  0
 10 12  1  0  0  0  0
 10 13  1  0  0  0  0
  9 14  1  0  0  0  0
  9 15  1  0  0  0  0
  8 16  1  0  0  0  0
  8 17  1  0  0  0  0
  7 18  1  0  0  0  0
  7 19  1  0  0  0  0
  6 20  1  0  0  0  0
  6 21  1  0  0  0  0
  5 22  1  0  0  0  0
  5 23  1  0  0  0  0
  4 24  1  0  0  0  0
  4 25  1  0  0  0  0
  3 26  1  0  0  0  0
  3 27  1  0  0  0  0
  2 28  2  0  0  0  0
  2 29  2  0  0  0  0
M  END
> <ChemID>
10499

> <CAS>
2795-39-3

> <Original_SMILES>
[K+].[O-]S(=O)(=O)C(F)(F)C(F)(F)C(F)(F)C(F)(F)C(F)(F)C(F)(F)C(F)(F)C(F)(F)F

> <preferred_name>
Potassium perfluorooctanesulfonate

> <dsstox_substance_id>
DTXSID8037706

> <dsstox_compound_id>
DTXCID6017706

> <Canonical_QSARr>
OS(=O)(=O)C(F)(F)C(F)(F)C(F)(F)C(F)(F)C(F)(F)C(F)(F)C(F)(F)C(F)(F)F

> <InChI_Code_QSARr>
InChI=1S/C8HF17O3S/c9-1(10,3(13,14)5(17,18)7(21,22)23)2(11,12)4(15,16)6(19,20)8(24,25)29(26,27)28/h(H,26,27,28)

> <InChI Key_QSARr>
YFSUTJLHUFNCNZ-UHFFFAOYSA-N

> <Salt_Solvent>
[K+]

> <Salt_Solvent_ID>
190

> <Clint>
-7.0

> <Tr_1_Tst_0>
1

$$$$
Row427
  Mrv171c012261910192D          

 25 24  0  0  0  0            999 V2000
   -0.8604    3.5461    0.0000 O   0  0  0  0  0  0  0  0  0  0  0  0
   -1.2729    2.8317    0.0000 C   0  0  0  0  0  0  0  0  0  0  0  0
   -0.8604    2.1172    0.0000 C   0  0  0  0  0  0  0  0  0  0  0  0
   -0.4479    1.4027    0.0000 C   0  0  0  0  0  0  0  0  0  0  0  0
   -0.0354    0.6883    0.0000 C   0  0  0  0  0  0  0  0  0  0  0  0
    0.3771   -0.0262    0.0000 C   0  0  0  0  0  0  0  0  0  0  0  0
    0.7896   -0.7407    0.0000 C   0  0  0  0  0  0  0  0  0  0  0  0
    1.2021   -1.4552    0.0000 C   0  0  0  0  0  0  0  0  0  0  0  0
    1.6146   -2.1696    0.0000 C   0  0  0  0  0  0  0  0  0  0  0  0
    2.0271   -2.8841    0.0000 F   0  0  0  0  0  0  0  0  0  0  0  0
    0.9002   -2.5821    0.0000 F   0  0  0  0  0  0  0  0  0  0  0  0
    2.3291   -1.7571    0.0000 F   0  0  0  0  0  0  0  0  0  0  0  0
    0.4877   -1.8677    0.0000 F   0  0  0  0  0  0  0  0  0  0  0  0
    1.9166   -1.0427    0.0000 F   0  0  0  0  0  0  0  0  0  0  0  0
    0.0752   -1.1532    0.0000 F   0  0  0  0  0  0  0  0  0  0  0  0
    1.5041   -0.3282    0.0000 F   0  0  0  0  0  0  0  0  0  0  0  0
   -0.3373   -0.4387    0.0000 F   0  0  0  0  0  0  0  0  0  0  0  0
    1.0916    0.3863    0.0000 F   0  0  0  0  0  0  0  0  0  0  0  0
   -0.7498    0.2758    0.0000 F   0  0  0  0  0  0  0  0  0  0  0  0
    0.6791    1.1008    0.0000 F   0  0  0  0  0  0  0  0  0  0  0  0
   -1.1623    0.9902    0.0000 F   0  0  0  0  0  0  0  0  0  0  0  0
    0.2666    1.8152    0.0000 F   0  0  0  0  0  0  0  0  0  0  0  0
   -1.5748    1.7047    0.0000 F   0  0  0  0  0  0  0  0  0  0  0  0
   -0.1459    2.5297    0.0000 F   0  0  0  0  0  0  0  0  0  0  0  0
   -2.0979    2.8317    0.0000 O   0  0  0  0  0  0  0  0  0  0  0  0
  1  2  1  0  0  0  0
  2  3  1  0  0  0  0
  3  4  1  0  0  0  0
  4  5  1  0  0  0  0
  5  6  1  0  0  0  0
  6  7  1  0  0  0  0
  7  8  1  0  0  0  0
  8  9  1  0  0  0  0
  9 10  1  0  0  0  0
  9 11  1  0  0  0  0
  9 12  1  0  0  0  0
  8 13  1  0  0  0  0
  8 14  1  0  0  0  0
  7 15  1  0  0  0  0
  7 16  1  0  0  0  0
  6 17  1  0  0  0  0
  6 18  1  0  0  0  0
  5 19  1  0  0  0  0
  5 20  1  0  0  0  0
  4 21  1  0  0  0  0
  4 22  1  0  0  0  0
  3 23  1  0  0  0  0
  3 24  1  0  0  0  0
  2 25  2  0  0  0  0
M  END
> <ChemID>
10500

> <CAS>
3825-26-1

> <Original_SMILES>
[NH4+].[O-]C(=O)C(F)(F)C(F)(F)C(F)(F)C(F)(F)C(F)(F)C(F)(F)C(F)(F)F

> <preferred_name>
Ammonium perfluorooctanoate

> <dsstox_substance_id>
DTXSID8037708

> <dsstox_compound_id>
DTXCID6017708

> <Canonical_QSARr>
OC(=O)C(F)(F)C(F)(F)C(F)(F)C(F)(F)C(F)(F)C(F)(F)C(F)(F)F

> <InChI_Code_QSARr>
InChI=1S/C8HF15O2/c9-2(10,1(24)25)3(11,12)4(13,14)5(15,16)6(17,18)7(19,20)8(21,22)23/h(H,24,25)

> <InChI Key_QSARr>
SNGREZUHAYWORS-UHFFFAOYSA-N

> <Salt_Solvent>
[NH4+]

> <Salt_Solvent_ID>
70

> <Clint>
-7.0

> <Tr_1_Tst_0>
0

$$$$
Row520
  Mrv171c012261910192D          

 29 31  0  0  0  0            999 V2000
   -0.0843    0.3883    0.0000 C   0  0  0  0  0  0  0  0  0  0  0  0
   -0.4423    1.1316    0.0000 C   0  0  0  0  0  0  0  0  0  0  0  0
    0.0721    1.7766    0.0000 O   0  0  0  0  0  0  0  0  0  0  0  0
   -1.2466    1.3151    0.0000 N   0  0  0  0  0  0  0  0  0  0  0  0
   -1.4302    2.1195    0.0000 C   0  0  0  0  0  0  0  0  0  0  0  0
   -2.2185    2.3626    0.0000 C   0  0  0  0  0  0  0  0  0  0  0  0
   -2.4021    3.1669    0.0000 N   0  0  0  0  0  0  0  0  0  0  0  0
   -3.1905    3.4101    0.0000 C   0  0  0  0  0  0  0  0  0  0  0  0
   -1.7974    3.7281    0.0000 C   0  0  0  0  0  0  0  0  0  0  0  0
   -1.8916    0.8008    0.0000 C   0  0  0  0  0  0  0  0  0  0  0  0
   -1.8916   -0.0242    0.0000 C   0  0  0  0  0  0  0  0  0  0  0  0
   -2.6061   -0.4367    0.0000 C   0  0  0  0  0  0  0  0  0  0  0  0
   -3.3206   -0.0242    0.0000 C   0  0  0  0  0  0  0  0  0  0  0  0
   -3.3206    0.8008    0.0000 C   0  0  0  0  0  0  0  0  0  0  0  0
   -2.6061    1.2133    0.0000 C   0  0  0  0  0  0  0  0  0  0  0  0
   -1.2466   -0.5386    0.0000 S   0  0  0  0  0  0  0  0  0  0  0  0
   -0.4423   -0.3550    0.0000 C   0  0  0  0  0  0  0  0  0  0  0  0
    0.0721   -1.0000    0.0000 C   0  0  0  0  0  0  0  0  0  0  0  0
   -0.2293   -1.7680    0.0000 C   0  0  0  0  0  0  0  0  0  0  0  0
    0.2850   -2.4130    0.0000 C   0  0  0  0  0  0  0  0  0  0  0  0
    1.1008   -2.2901    0.0000 C   0  0  0  0  0  0  0  0  0  0  0  0
    1.6152   -2.9351    0.0000 O   0  0  0  0  0  0  0  0  0  0  0  0
    2.4310   -2.8121    0.0000 C   0  0  0  0  0  0  0  0  0  0  0  0
    1.4022   -1.5221    0.0000 C   0  0  0  0  0  0  0  0  0  0  0  0
    0.8879   -0.8771    0.0000 C   0  0  0  0  0  0  0  0  0  0  0  0
    0.7407    0.3883    0.0000 O   0  0  0  0  0  0  0  0  0  0  0  0
    1.1532    1.1027    0.0000 C   0  0  0  0  0  0  0  0  0  0  0  0
    0.7407    1.8172    0.0000 O   0  0  0  0  0  0  0  0  0  0  0  0
    1.9782    1.1027    0.0000 C   0  0  0  0  0  0  0  0  0  0  0  0
  2  1  1  0  0  0  0
  2  3  2  0  0  0  0
  4  2  1  0  0  0  0
  4  5  1  0  0  0  0
  5  6  1  0  0  0  0
  6  7  1  0  0  0  0
  7  8  1  0  0  0  0
  7  9  1  0  0  0  0
 10  4  1  0  0  0  0
 10 11  2  0  0  0  0
 11 12  1  0  0  0  0
 12 13  2  0  0  0  0
 13 14  1  0  0  0  0
 14 15  2  0  0  0  0
 15 10  1  0  0  0  0
 16 11  1  0  0  0  0
 17 16  1  0  0  0  0
  1 17  1  0  0  0  0
 17 18  1  0  0  0  0
 19 18  1  0  0  0  0
 20 19  2  0  0  0  0
 21 20  1  0  0  0  0
 21 22  1  0  0  0  0
 22 23  1  0  0  0  0
 24 21  2  0  0  0  0
 25 24  1  0  0  0  0
 18 25  2  0  0  0  0
  1 26  1  0  0  0  0
 26 27  1  0  0  0  0
 27 28  2  0  0  0  0
 27 29  1  0  0  0  0
M  END
> <ChemID>
10501

> <CAS>
33286-22-5

> <Original_SMILES>
Cl.CN(C)CCN1C(=O)[C@H](OC(C)=O)[C@@H](Sc2ccccc12)c1ccc(cc1)OC

> <preferred_name>
Diltiazem hydrochloride

> <dsstox_substance_id>
DTXSID8040147

> <dsstox_compound_id>
DTXCID6020147

> <Canonical_QSARr>
CN(C)CCN1C(=O)C(OC(C)=O)C(SC2C=CC=CC1=2)C1C=CC(=CC=1)OC

> <InChI_Code_QSARr>
InChI=1S/C22H26N2O4S/c1-15(25)28-20-21(16-9-11-17(27-4)12-10-16)29-19-8-6-5-7-18(19)24(22(20)26)14-13-23(2)3/h5-12,20-21H,13-14H2,1-4H3

> <InChI Key_QSARr>
HSUGRBWQSSZJOP-UHFFFAOYSA-N

> <Salt_Solvent>
Cl

> <Salt_Solvent_ID>
170

> <Clint>
1.3710678622717363

> <Tr_1_Tst_0>
0

$$$$
Row420
  Mrv171c012261910192D          

 29 30  0  0  0  0            999 V2000
    1.6019   -0.7940    0.0000 N   0  0  0  0  0  0  0  0  0  0  0  0
    0.8875   -1.2065    0.0000 S   0  0  0  0  0  0  0  0  0  0  0  0
    1.3000   -1.9210    0.0000 O   0  0  0  0  0  0  0  0  0  0  0  0
    0.4750   -0.4921    0.0000 O   0  0  0  0  0  0  0  0  0  0  0  0
    0.1730   -1.6190    0.0000 C   0  0  0  0  0  0  0  0  0  0  0  0
   -0.5415   -1.2065    0.0000 C   0  0  0  0  0  0  0  0  0  0  0  0
   -0.5415   -0.3815    0.0000 O   0  0  0  0  0  0  0  0  0  0  0  0
   -1.2559    0.0310    0.0000 C   0  0  0  0  0  0  0  0  0  0  0  0
   -1.2559    0.8560    0.0000 C   0  0  0  0  0  0  0  0  0  0  0  0
   -1.2559    1.6810    0.0000 F   0  0  0  0  0  0  0  0  0  0  0  0
   -2.0809    0.8560    0.0000 F   0  0  0  0  0  0  0  0  0  0  0  0
   -0.4309    0.8560    0.0000 F   0  0  0  0  0  0  0  0  0  0  0  0
   -1.2559   -1.6190    0.0000 C   0  0  0  0  0  0  0  0  0  0  0  0
   -1.2559   -2.4440    0.0000 C   0  0  0  0  0  0  0  0  0  0  0  0
   -0.5415   -2.8565    0.0000 C   0  0  0  0  0  0  0  0  0  0  0  0
    0.1730   -2.4440    0.0000 N   0  0  0  0  0  0  0  0  0  0  0  0
    1.6019    0.0310    0.0000 C   0  0  0  0  0  0  0  0  0  0  0  0
    0.8875    0.4435    0.0000 O   0  0  0  0  0  0  0  0  0  0  0  0
    2.3164    0.4435    0.0000 N   0  0  0  0  0  0  0  0  0  0  0  0
    2.3164    1.2685    0.0000 C   0  0  0  0  0  0  0  0  0  0  0  0
    3.0309    1.6810    0.0000 N   0  0  0  0  0  0  0  0  0  0  0  0
    3.0309    2.5060    0.0000 C   0  0  0  0  0  0  0  0  0  0  0  0
    3.7454    2.9185    0.0000 O   0  0  0  0  0  0  0  0  0  0  0  0
    3.7454    3.7435    0.0000 C   0  0  0  0  0  0  0  0  0  0  0  0
    2.3164    2.9185    0.0000 C   0  0  0  0  0  0  0  0  0  0  0  0
    1.6019    2.5060    0.0000 C   0  0  0  0  0  0  0  0  0  0  0  0
    0.8875    2.9185    0.0000 O   0  0  0  0  0  0  0  0  0  0  0  0
    0.1730    2.5060    0.0000 C   0  0  0  0  0  0  0  0  0  0  0  0
    1.6019    1.6810    0.0000 N   0  0  0  0  0  0  0  0  0  0  0  0
  1  2  1  0  0  0  0
  2  3  2  0  0  0  0
  2  4  2  0  0  0  0
  2  5  1  0  0  0  0
  6  5  1  0  0  0  0
  6  7  1  0  0  0  0
  7  8  1  0  0  0  0
  8  9  1  0  0  0  0
  9 10  1  0  0  0  0
  9 11  1  0  0  0  0
  9 12  1  0  0  0  0
 13  6  2  0  0  0  0
 14 13  1  0  0  0  0
 15 14  2  0  0  0  0
 16 15  1  0  0  0  0
  5 16  2  0  0  0  0
  1 17  1  0  0  0  0
 17 18  2  0  0  0  0
 17 19  1  0  0  0  0
 19 20  1  0  0  0  0
 21 20  1  0  0  0  0
 22 21  2  0  0  0  0
 22 23  1  0  0  0  0
 23 24  1  0  0  0  0
 25 22  1  0  0  0  0
 26 25  2  0  0  0  0
 26 27  1  0  0  0  0
 27 28  1  0  0  0  0
 29 26  1  0  0  0  0
 20 29  2  0  0  0  0
M  END
> <ChemID>
10502

> <CAS>
199119-58-9

> <Original_SMILES>
[Na+].COc1cc([n]c(NC(=O)[N-]S(=O)(=O)c2[n]cccc2OCC(F)(F)F)[n]1)OC

> <preferred_name>
Trifloxysulfuron-sodium

> <dsstox_substance_id>
DTXSID8040222

> <dsstox_compound_id>
DTXCID6020222

> <Canonical_QSARr>
COC1=CC(=NC(NC(=O)NS(=O)(=O)C2=NC=CC=C2OCC(F)(F)F)=N1)OC

> <InChI_Code_QSARr>
InChI=1S/C14H14F3N5O6S/c1-26-9-6-10(27-2)20-12(19-9)21-13(23)22-29(24,25)11-8(4-3-5-18-11)28-7-14(15,16)17/h3-6H,7H2,1-2H3,(H2,19,20,21,22,23)

> <InChI Key_QSARr>
AIMMSOZBPYFASU-UHFFFAOYSA-N

> <Salt_Solvent>
[Na+]

> <Salt_Solvent_ID>
110

> <Clint>
-7.0

> <Tr_1_Tst_0>
0

$$$$
Row444
  Mrv171c012261910192D          

 21 21  0  0  0  0            999 V2000
    0.1816   -0.2937    0.0000 N   0  0  0  0  0  0  0  0  0  0  0  0
   -0.5328   -0.7062    0.0000 C   0  0  0  0  0  0  0  0  0  0  0  0
    0.1816    0.5313    0.0000 C   0  0  0  0  0  0  0  0  0  0  0  0
    0.8961    0.9438    0.0000 N   0  0  0  0  0  0  0  0  0  0  0  0
    1.6106    0.5313    0.0000 C   0  0  0  0  0  0  0  0  0  0  0  0
    2.3251    0.9438    0.0000 C   0  0  0  0  0  0  0  0  0  0  0  0
    3.0395    0.5313    0.0000 S   0  0  0  0  0  0  0  0  0  0  0  0
    3.7540    0.9438    0.0000 C   0  0  0  0  0  0  0  0  0  0  0  0
    4.4685    0.5313    0.0000 C   0  0  0  0  0  0  0  0  0  0  0  0
    4.5547   -0.2892    0.0000 O   0  0  0  0  0  0  0  0  0  0  0  0
    5.3617   -0.4607    0.0000 C   0  0  0  0  0  0  0  0  0  0  0  0
    5.6972   -1.2144    0.0000 C   0  0  0  0  0  0  0  0  0  0  0  0
    6.5177   -1.3006    0.0000 N   0  0  0  0  0  0  0  0  0  0  0  0
    6.8533   -2.0543    0.0000 C   0  0  0  0  0  0  0  0  0  0  0  0
    7.0026   -0.6332    0.0000 C   0  0  0  0  0  0  0  0  0  0  0  0
    5.7742    0.2538    0.0000 C   0  0  0  0  0  0  0  0  0  0  0  0
    5.2221    0.8669    0.0000 C   0  0  0  0  0  0  0  0  0  0  0  0
   -0.5328    0.9438    0.0000 C   0  0  0  0  0  0  0  0  0  0  0  0
   -0.5328    1.7688    0.0000 N   0  3  0  0  0  0  0  0  0  0  0  0
   -1.2473    2.1813    0.0000 O   0  0  0  0  0  0  0  0  0  0  0  0
    0.1816    2.1813    0.0000 O   0  5  0  0  0  0  0  0  0  0  0  0
  1  2  1  0  0  0  0
  1  3  2  0  0  0  0
  3  4  1  0  0  0  0
  4  5  1  0  0  0  0
  5  6  1  0  0  0  0
  6  7  1  0  0  0  0
  7  8  1  0  0  0  0
  8  9  1  0  0  0  0
 10  9  1  0  0  0  0
 11 10  1  0  0  0  0
 11 12  1  0  0  0  0
 12 13  1  0  0  0  0
 13 14  1  0  0  0  0
 13 15  1  0  0  0  0
 16 11  2  0  0  0  0
 17 16  1  0  0  0  0
  9 17  2  0  0  0  0
  3 18  1  0  0  0  0
 18 19  1  0  0  0  0
 19 20  2  0  0  0  0
 19 21  1  0  0  0  0
M  CHG  2  19   1  21  -1
M  END
> <ChemID>
10503

> <CAS>
66357-35-5

> <Original_SMILES>
CNC(=C[N+]([O-])=O)NCCSCc1ccc(CN(C)C)o1

> <preferred_name>
Ranitidine

> <dsstox_substance_id>
DTXSID8045191

> <dsstox_compound_id>
DTXCID00820068

> <Canonical_QSARr>
C/N=C(\C[N+]([O-])=O)/NCCSCC1=CC=C(CN(C)C)O1

> <InChI_Code_QSARr>
InChI=1S/C13H22N4O3S/c1-14-13(9-17(18)19)15-6-7-21-10-12-5-4-11(20-12)8-16(2)3/h4-5H,6-10H2,1-3H3,(H,14,15)

> <InChI Key_QSARr>
SYNOVMDJYWJCON-UHFFFAOYSA-N

> <Salt_Solvent>


> <Salt_Solvent_ID>
0

> <Clint>
0.0

> <Tr_1_Tst_0>
0

$$$$
Row397
  Mrv171c012261910192D          

 30 34  0  0  0  0            999 V2000
    2.9682   -3.5060    0.0000 C   0  0  0  0  0  0  0  0  0  0  0  0
    2.8819   -4.3265    0.0000 N   0  0  0  0  0  0  0  0  0  0  0  0
    2.0749   -4.4980    0.0000 O   0  0  0  0  0  0  0  0  0  0  0  0
    1.6624   -3.7835    0.0000 C   0  0  0  0  0  0  0  0  0  0  0  0
    0.8555   -3.6120    0.0000 C   0  0  0  0  0  0  0  0  0  0  0  0
    0.6005   -2.8274    0.0000 C   0  0  0  0  0  0  0  0  0  0  0  0
   -0.2064   -2.6559    0.0000 F   0  0  0  0  0  0  0  0  0  0  0  0
    1.1526   -2.2143    0.0000 C   0  0  0  0  0  0  0  0  0  0  0  0
    1.9595   -2.3858    0.0000 C   0  0  0  0  0  0  0  0  0  0  0  0
    2.2145   -3.1705    0.0000 C   0  0  0  0  0  0  0  0  0  0  0  0
    3.6826   -3.0935    0.0000 C   0  0  0  0  0  0  0  0  0  0  0  0
    4.3971   -3.5060    0.0000 C   0  0  0  0  0  0  0  0  0  0  0  0
    5.1116   -3.0935    0.0000 C   0  0  0  0  0  0  0  0  0  0  0  0
    5.1116   -2.2685    0.0000 N   0  0  0  0  0  0  0  0  0  0  0  0
    5.8260   -1.8560    0.0000 C   0  0  0  0  0  0  0  0  0  0  0  0
    5.8260   -1.0310    0.0000 C   0  0  0  0  0  0  0  0  0  0  0  0
    6.5405   -0.6185    0.0000 C   0  0  0  0  0  0  0  0  0  0  0  0
    6.5405    0.2065    0.0000 C   0  0  0  0  0  0  0  0  0  0  0  0
    5.8260    0.6190    0.0000 C   0  0  0  0  0  0  0  0  0  0  0  0
    7.2550    0.6190    0.0000 N   0  0  0  0  0  0  0  0  0  0  0  0
    7.9694    0.2065    0.0000 C   0  0  0  0  0  0  0  0  0  0  0  0
    8.6839    0.6190    0.0000 C   0  0  0  0  0  0  0  0  0  0  0  0
    9.3984    0.2065    0.0000 C   0  0  0  0  0  0  0  0  0  0  0  0
    9.3984   -0.6185    0.0000 C   0  0  0  0  0  0  0  0  0  0  0  0
    8.6839   -1.0310    0.0000 C   0  0  0  0  0  0  0  0  0  0  0  0
    7.9694   -0.6185    0.0000 N   0  0  0  0  0  0  0  0  0  0  0  0
    7.2550   -1.0310    0.0000 C   0  0  0  0  0  0  0  0  0  0  0  0
    7.2550   -1.8560    0.0000 O   0  0  0  0  0  0  0  0  0  0  0  0
    4.3971   -1.8560    0.0000 C   0  0  0  0  0  0  0  0  0  0  0  0
    3.6826   -2.2685    0.0000 C   0  0  0  0  0  0  0  0  0  0  0  0
  2  1  2  0  0  0  0
  3  2  1  0  0  0  0
  4  3  1  0  0  0  0
  4  5  1  0  0  0  0
  5  6  2  0  0  0  0
  6  7  1  0  0  0  0
  6  8  1  0  0  0  0
  8  9  2  0  0  0  0
  9 10  1  0  0  0  0
  1 10  1  0  0  0  0
 10  4  2  0  0  0  0
  1 11  1  0  0  0  0
 12 11  1  0  0  0  0
 13 12  1  0  0  0  0
 14 13  1  0  0  0  0
 14 15  1  0  0  0  0
 15 16  1  0  0  0  0
 16 17  1  0  0  0  0
 18 17  2  0  0  0  0
 18 19  1  0  0  0  0
 20 18  1  0  0  0  0
 21 20  2  0  0  0  0
 21 22  1  0  0  0  0
 22 23  1  0  0  0  0
 23 24  1  0  0  0  0
 24 25  1  0  0  0  0
 25 26  1  0  0  0  0
 26 21  1  0  0  0  0
 27 26  1  0  0  0  0
 17 27  1  0  0  0  0
 27 28  2  0  0  0  0
 29 14  1  0  0  0  0
 30 29  1  0  0  0  0
 11 30  1  0  0  0  0
M  END
> <ChemID>
10504

> <CAS>
106266-06-2

> <Original_SMILES>
CC1N=C2CCCCN2C(=O)C=1CCN1CCC(CC1)c1[n]oc2cc(F)ccc21

> <preferred_name>
Risperidone

> <dsstox_substance_id>
DTXSID8045193

> <dsstox_compound_id>
DTXCID6025193

> <Canonical_QSARr>
CC1N=C2CCCCN2C(=O)C=1CCN1CCC(CC1)C1=NOC2C=C(F)C=CC=21

> <InChI_Code_QSARr>
InChI=1S/C23H27FN4O2/c1-15-18(23(29)28-10-3-2-4-21(28)25-15)9-13-27-11-7-16(8-12-27)22-19-6-5-17(24)14-20(19)30-26-22/h5-6,14,16H,2-4,7-13H2,1H3

> <InChI Key_QSARr>
RAPZEAPATHNIPO-UHFFFAOYSA-N

> <Salt_Solvent>


> <Salt_Solvent_ID>
0

> <Clint>
1.9822712330395682

> <Tr_1_Tst_0>
1

$$$$
Row459
  Mrv171c012261910192D          

 22 24  0  0  0  0            999 V2000
   -2.5402   -0.3684    0.0000 O   0  0  0  0  0  0  0  0  0  0  0  0
   -2.5402    0.4566    0.0000 C   0  0  0  0  0  0  0  0  0  0  0  0
   -1.8258    0.8691    0.0000 C   0  0  0  0  0  0  0  0  0  0  0  0
   -1.1113    0.4566    0.0000 C   0  0  0  0  0  0  0  0  0  0  0  0
   -1.1113   -0.3684    0.0000 O   0  0  0  0  0  0  0  0  0  0  0  0
   -0.3968    0.8691    0.0000 N   0  0  0  0  0  0  0  0  0  0  0  0
    0.3177    0.4566    0.0000 C   0  0  0  0  0  0  0  0  0  0  0  0
    0.3177   -0.3684    0.0000 C   0  0  0  0  0  0  0  0  0  0  0  0
    1.0321   -0.7809    0.0000 C   0  0  0  0  0  0  0  0  0  0  0  0
    1.7466   -0.3684    0.0000 C   0  0  0  0  0  0  0  0  0  0  0  0
    1.7466    0.4566    0.0000 C   0  0  0  0  0  0  0  0  0  0  0  0
    1.0321    0.8691    0.0000 N   0  0  0  0  0  0  0  0  0  0  0  0
   -1.8258    1.6941    0.0000 N   0  0  0  0  0  0  0  0  0  0  0  0
   -1.1113    2.1066    0.0000 C   0  0  0  0  0  0  0  0  0  0  0  0
   -2.5402    2.1066    0.0000 S   0  0  0  0  0  0  0  0  0  0  0  0
   -2.0099    2.7386    0.0000 O   0  0  0  0  0  0  0  0  0  0  0  0
   -3.0705    2.7386    0.0000 O   0  0  0  0  0  0  0  0  0  0  0  0
   -3.2547    1.6941    0.0000 C   0  0  0  0  0  0  0  0  0  0  0  0
   -4.0393    1.9491    0.0000 C   0  0  0  0  0  0  0  0  0  0  0  0
   -4.5242    1.2816    0.0000 C   0  0  0  0  0  0  0  0  0  0  0  0
   -4.0393    0.6142    0.0000 S   0  0  0  0  0  0  0  0  0  0  0  0
   -3.2547    0.8691    0.0000 C   0  0  0  0  0  0  0  0  0  0  0  0
  1  2  2  0  0  0  0
  3  2  1  0  0  0  0
  3  4  1  0  0  0  0
  4  5  2  0  0  0  0
  4  6  1  0  0  0  0
  6  7  1  0  0  0  0
  8  7  2  0  0  0  0
  9  8  1  0  0  0  0
 10  9  2  0  0  0  0
 11 10  1  0  0  0  0
 12 11  2  0  0  0  0
  7 12  1  0  0  0  0
 13  3  1  0  0  0  0
 13 14  1  0  0  0  0
 15 13  1  0  0  0  0
 15 16  2  0  0  0  0
 15 17  2  0  0  0  0
 18 15  1  0  0  0  0
 18 19  1  0  0  0  0
 19 20  2  0  0  0  0
 20 21  1  0  0  0  0
 21 22  1  0  0  0  0
  2 22  1  0  0  0  0
 22 18  2  0  0  0  0
M  END
> <ChemID>
10505

> <CAS>
59804-37-4

> <Original_SMILES>
CN1C(=C(O)c2[s]ccc2S1(=O)=O)C(=O)Nc1cccc[n]1

> <preferred_name>
Tenoxicam

> <dsstox_substance_id>
DTXSID8045486

> <dsstox_compound_id>
DTXCID6025486

> <Canonical_QSARr>
CN1C(C(=O)NC2=CC=CC=N2)C(=O)C2SC=CC=2S1(=O)=O

> <InChI_Code_QSARr>
InChI=1S/C13H11N3O4S2/c1-16-10(13(18)15-9-4-2-3-6-14-9)11(17)12-8(5-7-21-12)22(16,19)20/h2-7,10H,1H3,(H,14,15,18)

> <InChI Key_QSARr>
OTGJPAOGHQFBMI-UHFFFAOYSA-N

> <Salt_Solvent>


> <Salt_Solvent_ID>
0

> <Clint>
0.4149733479708179

> <Tr_1_Tst_0>
0

$$$$
Row34
  Mrv171c012261910192D          

 34 33  0  0  0  0            999 V2000
   -0.0849   -4.2463    0.0000 C   0  0  0  0  0  0  0  0  0  0  0  0
   -0.7994   -4.6588    0.0000 O   0  0  0  0  0  0  0  0  0  0  0  0
    0.6295   -4.6588    0.0000 O   0  0  0  0  0  0  0  0  0  0  0  0
   -0.0849   -3.4213    0.0000 C   0  0  0  0  0  0  0  0  0  0  0  0
    0.7401   -3.4213    0.0000 F   0  0  0  0  0  0  0  0  0  0  0  0
   -0.9099   -3.4213    0.0000 F   0  0  0  0  0  0  0  0  0  0  0  0
   -0.0849   -2.5963    0.0000 C   0  0  0  0  0  0  0  0  0  0  0  0
    0.7401   -2.5963    0.0000 F   0  0  0  0  0  0  0  0  0  0  0  0
   -0.9099   -2.5963    0.0000 F   0  0  0  0  0  0  0  0  0  0  0  0
   -0.0849   -1.7713    0.0000 C   0  0  0  0  0  0  0  0  0  0  0  0
    0.7401   -1.7713    0.0000 F   0  0  0  0  0  0  0  0  0  0  0  0
   -0.9099   -1.7713    0.0000 F   0  0  0  0  0  0  0  0  0  0  0  0
   -0.0849   -0.9463    0.0000 C   0  0  0  0  0  0  0  0  0  0  0  0
    0.7401   -0.9463    0.0000 F   0  0  0  0  0  0  0  0  0  0  0  0
   -0.9099   -0.9463    0.0000 F   0  0  0  0  0  0  0  0  0  0  0  0
   -0.0849   -0.1213    0.0000 C   0  0  0  0  0  0  0  0  0  0  0  0
    0.7401   -0.1213    0.0000 F   0  0  0  0  0  0  0  0  0  0  0  0
   -0.9099   -0.1213    0.0000 F   0  0  0  0  0  0  0  0  0  0  0  0
   -0.0849    0.7037    0.0000 C   0  0  0  0  0  0  0  0  0  0  0  0
    0.7401    0.7037    0.0000 F   0  0  0  0  0  0  0  0  0  0  0  0
   -0.9099    0.7037    0.0000 F   0  0  0  0  0  0  0  0  0  0  0  0
   -0.0849    1.5287    0.0000 C   0  0  0  0  0  0  0  0  0  0  0  0
    0.7401    1.5287    0.0000 F   0  0  0  0  0  0  0  0  0  0  0  0
   -0.9099    1.5287    0.0000 F   0  0  0  0  0  0  0  0  0  0  0  0
   -0.0849    2.3537    0.0000 C   0  0  0  0  0  0  0  0  0  0  0  0
    0.7401    2.3537    0.0000 F   0  0  0  0  0  0  0  0  0  0  0  0
   -0.9099    2.3537    0.0000 F   0  0  0  0  0  0  0  0  0  0  0  0
   -0.0849    3.1787    0.0000 C   0  0  0  0  0  0  0  0  0  0  0  0
    0.7401    3.1787    0.0000 F   0  0  0  0  0  0  0  0  0  0  0  0
   -0.9099    3.1787    0.0000 F   0  0  0  0  0  0  0  0  0  0  0  0
   -0.0849    4.0037    0.0000 C   0  0  0  0  0  0  0  0  0  0  0  0
   -0.0849    4.8287    0.0000 F   0  0  0  0  0  0  0  0  0  0  0  0
    0.7401    4.0037    0.0000 F   0  0  0  0  0  0  0  0  0  0  0  0
   -0.9099    4.0037    0.0000 F   0  0  0  0  0  0  0  0  0  0  0  0
  1  2  2  0  0  0  0
  1  3  1  0  0  0  0
  1  4  1  0  0  0  0
  4  5  1  0  0  0  0
  4  6  1  0  0  0  0
  4  7  1  0  0  0  0
  7  8  1  0  0  0  0
  7  9  1  0  0  0  0
  7 10  1  0  0  0  0
 10 11  1  0  0  0  0
 10 12  1  0  0  0  0
 10 13  1  0  0  0  0
 13 14  1  0  0  0  0
 13 15  1  0  0  0  0
 13 16  1  0  0  0  0
 16 17  1  0  0  0  0
 16 18  1  0  0  0  0
 16 19  1  0  0  0  0
 19 20  1  0  0  0  0
 19 21  1  0  0  0  0
 19 22  1  0  0  0  0
 22 23  1  0  0  0  0
 22 24  1  0  0  0  0
 22 25  1  0  0  0  0
 25 26  1  0  0  0  0
 25 27  1  0  0  0  0
 25 28  1  0  0  0  0
 28 29  1  0  0  0  0
 28 30  1  0  0  0  0
 28 31  1  0  0  0  0
 31 32  1  0  0  0  0
 31 33  1  0  0  0  0
 31 34  1  0  0  0  0
M  END
> <ChemID>
10506

> <CAS>
2058-94-8

> <Original_SMILES>
OC(=O)C(F)(F)C(F)(F)C(F)(F)C(F)(F)C(F)(F)C(F)(F)C(F)(F)C(F)(F)C(F)(F)C(F)(F)F

> <preferred_name>
Perfluoroundecanoic acid

> <dsstox_substance_id>
DTXSID8047553

> <dsstox_compound_id>
DTXCID6027553

> <Canonical_QSARr>
OC(=O)C(F)(F)C(F)(F)C(F)(F)C(F)(F)C(F)(F)C(F)(F)C(F)(F)C(F)(F)C(F)(F)C(F)(F)F

> <InChI_Code_QSARr>
InChI=1S/C11HF21O2/c12-2(13,1(33)34)3(14,15)4(16,17)5(18,19)6(20,21)7(22,23)8(24,25)9(26,27)10(28,29)11(30,31)32/h(H,33,34)

> <InChI Key_QSARr>
SIDINRCMMRKXGQ-UHFFFAOYSA-N

> <Salt_Solvent>


> <Salt_Solvent_ID>
0

> <Clint>
-7.0

> <Tr_1_Tst_0>
1

$$$$
Row153
  Mrv171c012261910192D          

 33 38  0  0  0  0            999 V2000
    7.8849   -1.9259    0.0000 C   0  0  0  0  0  0  0  0  0  0  0  0
    7.0936   -1.6925    0.0000 N   0  0  0  0  0  0  0  0  0  0  0  0
    6.6271   -2.3729    0.0000 C   0  0  0  0  0  0  0  0  0  0  0  0
    5.8024   -2.3953    0.0000 C   0  0  0  0  0  0  0  0  0  0  0  0
    5.3706   -1.6924    0.0000 N   0  0  0  0  0  0  0  0  0  0  0  0
    4.5459   -1.7148    0.0000 C   0  0  0  0  0  0  0  0  0  0  0  0
    4.2083   -2.4676    0.0000 N   0  0  0  0  0  0  0  0  0  0  0  0
    3.4093   -2.6730    0.0000 C   0  0  0  0  0  0  0  0  0  0  0  0
    3.2477   -3.4821    0.0000 C   0  0  0  0  0  0  0  0  0  0  0  0
    2.4662   -3.7466    0.0000 C   0  0  0  0  0  0  0  0  0  0  0  0
    2.3046   -4.5556    0.0000 C   0  0  0  0  0  0  0  0  0  0  0  0
    2.9245   -5.1001    0.0000 C   0  0  0  0  0  0  0  0  0  0  0  0
    3.7059   -4.8355    0.0000 C   0  0  0  0  0  0  0  0  0  0  0  0
    3.8675   -4.0265    0.0000 C   0  0  0  0  0  0  0  0  0  0  0  0
    4.6489   -3.7620    0.0000 F   0  0  0  0  0  0  0  0  0  0  0  0
    2.7505   -2.1764    0.0000 C   0  0  0  0  0  0  0  0  0  0  0  0
    2.7280   -1.3517    0.0000 C   0  0  0  0  0  0  0  0  0  0  0  0
    2.0274   -0.9162    0.0000 C   0  0  0  0  0  0  0  0  0  0  0  0
    2.2251   -0.1152    0.0000 C   0  0  0  0  0  0  0  0  0  0  0  0
    3.0480   -0.0558    0.0000 C   0  0  0  0  0  0  0  0  0  0  0  0
    3.3588   -0.8200    0.0000 N   0  0  0  0  0  0  0  0  0  0  0  0
    4.1678   -0.9816    0.0000 C   0  0  0  0  0  0  0  0  0  0  0  0
    4.6644   -0.3228    0.0000 O   0  0  0  0  0  0  0  0  0  0  0  0
    1.2998   -1.3052    0.0000 C   0  0  0  0  0  0  0  0  0  0  0  0
    1.2729   -2.1297    0.0000 C   0  0  0  0  0  0  0  0  0  0  0  0
    1.9736   -2.5653    0.0000 C   0  0  0  0  0  0  0  0  0  0  0  0
    5.4095   -3.1208    0.0000 O   0  0  0  0  0  0  0  0  0  0  0  0
    7.1300   -3.0269    0.0000 C   0  0  0  0  0  0  0  0  0  0  0  0
    7.9074   -2.7506    0.0000 C   0  0  0  0  0  0  0  0  0  0  0  0
    8.6328   -3.1435    0.0000 C   0  0  0  0  0  0  0  0  0  0  0  0
    9.3358   -2.7117    0.0000 C   0  0  0  0  0  0  0  0  0  0  0  0
    9.3133   -1.8870    0.0000 C   0  0  0  0  0  0  0  0  0  0  0  0
    8.5879   -1.4941    0.0000 C   0  0  0  0  0  0  0  0  0  0  0  0
  2  1  1  0  0  0  0
  3  2  1  0  0  0  0
  3  4  1  0  0  0  0
  4  5  1  0  0  0  0
  5  6  1  0  0  0  0
  7  6  1  0  0  0  0
  8  7  2  0  0  0  0
  8  9  1  0  0  0  0
 10  9  1  0  0  0  0
 11 10  2  0  0  0  0
 12 11  1  0  0  0  0
 13 12  2  0  0  0  0
 14 13  1  0  0  0  0
  9 14  2  0  0  0  0
 14 15  1  0  0  0  0
 16  8  1  0  0  0  0
 16 17  2  0  0  0  0
 17 18  1  0  0  0  0
 18 19  1  0  0  0  0
 19 20  1  0  0  0  0
 20 21  1  0  0  0  0
 21 17  1  0  0  0  0
 22 21  1  0  0  0  0
  6 22  1  0  0  0  0
 22 23  2  0  0  0  0
 18 24  2  0  0  0  0
 24 25  1  0  0  0  0
 25 26  2  0  0  0  0
 26 16  1  0  0  0  0
  4 27  2  0  0  0  0
 28  3  2  0  0  0  0
 29 28  1  0  0  0  0
 29  1  1  0  0  0  0
 30 29  2  0  0  0  0
 31 30  1  0  0  0  0
 32 31  2  0  0  0  0
 33 32  1  0  0  0  0
  1 33  2  0  0  0  0
M  END
> <ChemID>
10507

> <CAS>
150408-73-4

> <Original_SMILES>
O=C(N[C@H]1N=C(c2cccc3CCN(c32)C1=O)c1ccccc1F)c1cc2ccccc2[nH]1

> <preferred_name>
Pranazepide

> <dsstox_substance_id>
DTXSID8048785

> <dsstox_compound_id>
DTXCID8028711

> <Canonical_QSARr>
O=C1C(NC(=O)C2=CC3=CC=CC=C3N2)N=C(C2C=CC=C3CCN1C3=2)C1C=CC=CC=1F

> <InChI_Code_QSARr>
InChI=1S/C26H19FN4O2/c27-19-10-3-2-8-17(19)22-18-9-5-7-15-12-13-31(23(15)18)26(33)24(29-22)30-25(32)21-14-16-6-1-4-11-20(16)28-21/h1-11,14,24,28H,12-13H2,(H,30,32)

> <InChI Key_QSARr>
WKJDXKWFGJWGAS-UHFFFAOYSA-N

> <Salt_Solvent>


> <Salt_Solvent_ID>
0

> <Clint>
0.5105450102066121

> <Tr_1_Tst_0>
1

$$$$
Row156
  Mrv171c012261910192D          

 23 27  0  0  0  0            999 V2000
    2.5341    0.2589    0.0000 C   0  0  0  0  0  0  0  0  0  0  0  0
    3.2773   -0.0993    0.0000 O   0  0  0  0  0  0  0  0  0  0  0  0
    3.1663   -0.9168    0.0000 C   0  0  0  0  0  0  0  0  0  0  0  0
    2.3545   -1.0638    0.0000 C   0  0  0  0  0  0  0  0  0  0  0  0
    1.9638   -0.3372    0.0000 C   0  0  0  0  0  0  0  0  0  0  0  0
    1.2206    0.0210    0.0000 C   0  0  0  0  0  0  0  0  0  0  0  0
    1.3316    0.8385    0.0000 C   0  0  0  0  0  0  0  0  0  0  0  0
    0.6792    1.3434    0.0000 C   0  0  0  0  0  0  0  0  0  0  0  0
   -0.0843    1.0308    0.0000 C   0  0  0  0  0  0  0  0  0  0  0  0
   -0.7368    1.5357    0.0000 O   0  0  0  0  0  0  0  0  0  0  0  0
   -1.5002    1.2231    0.0000 C   0  0  0  0  0  0  0  0  0  0  0  0
   -0.1953    0.2133    0.0000 C   0  0  0  0  0  0  0  0  0  0  0  0
   -0.9588   -0.0993    0.0000 C   0  0  0  0  0  0  0  0  0  0  0  0
   -1.7020    0.2589    0.0000 C   0  0  0  0  0  0  0  0  0  0  0  0
   -2.2723   -0.3372    0.0000 C   0  0  0  0  0  0  0  0  0  0  0  0
   -1.8816   -1.0638    0.0000 C   0  0  0  0  0  0  0  0  0  0  0  0
   -2.2398   -1.8070    0.0000 O   0  0  0  0  0  0  0  0  0  0  0  0
   -1.0698   -0.9168    0.0000 C   0  0  0  0  0  0  0  0  0  0  0  0
   -0.4174   -1.4217    0.0000 C   0  0  0  0  0  0  0  0  0  0  0  0
   -0.5284   -2.2391    0.0000 O   0  0  0  0  0  0  0  0  0  0  0  0
    0.3461   -1.1091    0.0000 O   0  0  0  0  0  0  0  0  0  0  0  0
    0.4571   -0.2916    0.0000 C   0  0  0  0  0  0  0  0  0  0  0  0
    2.1434    0.9856    0.0000 O   0  0  0  0  0  0  0  0  0  0  0  0
  2  1  1  0  0  0  0
  3  2  1  0  0  0  0
  4  3  2  0  0  0  0
  5  4  1  0  0  0  0
  5  1  1  0  0  0  0
  6  5  1  0  0  0  0
  6  7  2  0  0  0  0
  7  8  1  0  0  0  0
  8  9  2  0  0  0  0
  9 10  1  0  0  0  0
 10 11  1  0  0  0  0
  9 12  1  0  0  0  0
 13 12  1  0  0  0  0
 13 14  1  0  0  0  0
 14 15  1  0  0  0  0
 15 16  1  0  0  0  0
 16 17  2  0  0  0  0
 16 18  1  0  0  0  0
 18 13  2  0  0  0  0
 19 18  1  0  0  0  0
 19 20  2  0  0  0  0
 21 19  1  0  0  0  0
 22 21  1  0  0  0  0
 12 22  2  0  0  0  0
 22  6  1  0  0  0  0
 23  7  1  0  0  0  0
  1 23  1  0  0  0  0
M  END
> <ChemID>
10508

> <CAS>
1162-65-8

> <Original_SMILES>
COc1cc2O[C@H]3OC=C[C@H]3c2c2OC(=O)C3=C(CCC3=O)c12

> <preferred_name>
Aflatoxin B1

> <dsstox_substance_id>
DTXSID9020035

> <dsstox_compound_id>
DTXCID10820519

> <Canonical_QSARr>
COC1=CC2OC3OC=CC3C=2C2OC(=O)C3=C(CCC3=O)C1=2

> <InChI_Code_QSARr>
InChI=1S/C17H12O6/c1-20-10-6-11-14(8-4-5-21-17(8)22-11)15-13(10)7-2-3-9(18)12(7)16(19)23-15/h4-6,8,17H,2-3H2,1H3

> <InChI Key_QSARr>
OQIQSTLJSLGHID-UHFFFAOYSA-N

> <Salt_Solvent>


> <Salt_Solvent_ID>
0

> <Clint>
0.5428254269591799

> <Tr_1_Tst_0>
1

$$$$
Row319
  Mrv171c012261910192D          

 16 17  0  0  0  0            999 V2000
    4.6437   -3.7139    0.0000 Cl  0  0  0  0  0  0  0  0  0  0  0  0
    3.9292   -3.3014    0.0000 C   0  0  0  0  0  0  0  0  0  0  0  0
    3.9292   -2.4764    0.0000 N   0  0  0  0  0  0  0  0  0  0  0  0
    3.2148   -2.0639    0.0000 C   0  0  0  0  0  0  0  0  0  0  0  0
    3.2148   -1.2389    0.0000 N   0  0  0  0  0  0  0  0  0  0  0  0
    2.5003   -0.8264    0.0000 C   0  0  0  0  0  0  0  0  0  0  0  0
    2.5003   -0.0014    0.0000 C   0  0  0  0  0  0  0  0  0  0  0  0
    3.2148    0.4111    0.0000 Cl  0  0  0  0  0  0  0  0  0  0  0  0
    1.7858    0.4111    0.0000 C   0  0  0  0  0  0  0  0  0  0  0  0
    1.0714   -0.0014    0.0000 C   0  0  0  0  0  0  0  0  0  0  0  0
    1.0714   -0.8264    0.0000 C   0  0  0  0  0  0  0  0  0  0  0  0
    1.7858   -1.2389    0.0000 C   0  0  0  0  0  0  0  0  0  0  0  0
    2.5003   -2.4764    0.0000 N   0  0  0  0  0  0  0  0  0  0  0  0
    2.5003   -3.3014    0.0000 C   0  0  0  0  0  0  0  0  0  0  0  0
    1.7858   -3.7139    0.0000 Cl  0  0  0  0  0  0  0  0  0  0  0  0
    3.2148   -3.7139    0.0000 N   0  0  0  0  0  0  0  0  0  0  0  0
  1  2  1  0  0  0  0
  3  2  1  0  0  0  0
  4  3  2  0  0  0  0
  4  5  1  0  0  0  0
  5  6  1  0  0  0  0
  7  6  1  0  0  0  0
  7  8  1  0  0  0  0
  9  7  2  0  0  0  0
 10  9  1  0  0  0  0
 11 10  2  0  0  0  0
 12 11  1  0  0  0  0
  6 12  2  0  0  0  0
 13  4  1  0  0  0  0
 14 13  2  0  0  0  0
 14 15  1  0  0  0  0
 16 14  1  0  0  0  0
  2 16  2  0  0  0  0
M  END
> <ChemID>
10509

> <CAS>
101-05-3

> <Original_SMILES>
Clc1ccccc1Nc1[n]c(Cl)[n]c(Cl)[n]1

> <preferred_name>
Anilazine

> <dsstox_substance_id>
DTXSID9020089

> <dsstox_compound_id>
DTXCID6089

> <Canonical_QSARr>
ClC1=CC=CC=C1NC1N=C(Cl)N=C(Cl)N=1

> <InChI_Code_QSARr>
InChI=1S/C9H5Cl3N4/c10-5-3-1-2-4-6(5)13-9-15-7(11)14-8(12)16-9/h1-4H,(H,13,14,15,16)

> <InChI Key_QSARr>
IMHBYKMAHXWHRP-UHFFFAOYSA-N

> <Salt_Solvent>


> <Salt_Solvent_ID>
0

> <Clint>
1.3521825181113623

> <Tr_1_Tst_0>
1

$$$$
Row191
  Mrv171c012261910192D          

 14 14  0  0  0  0            999 V2000
    4.2587   -3.0942    0.0000 Cl  0  0  0  0  0  0  0  0  0  0  0  0
    3.5442   -2.6817    0.0000 C   0  0  0  0  0  0  0  0  0  0  0  0
    3.5442   -1.8567    0.0000 N   0  0  0  0  0  0  0  0  0  0  0  0
    2.8297   -1.4442    0.0000 C   0  0  0  0  0  0  0  0  0  0  0  0
    2.8297   -0.6192    0.0000 N   0  0  0  0  0  0  0  0  0  0  0  0
    3.5442   -0.2067    0.0000 C   0  0  0  0  0  0  0  0  0  0  0  0
    3.5442    0.6183    0.0000 C   0  0  0  0  0  0  0  0  0  0  0  0
    4.2587   -0.6192    0.0000 C   0  0  0  0  0  0  0  0  0  0  0  0
    2.1153   -1.8567    0.0000 N   0  0  0  0  0  0  0  0  0  0  0  0
    2.1153   -2.6817    0.0000 C   0  0  0  0  0  0  0  0  0  0  0  0
    1.4008   -3.0942    0.0000 N   0  0  0  0  0  0  0  0  0  0  0  0
    0.6863   -2.6817    0.0000 C   0  0  0  0  0  0  0  0  0  0  0  0
   -0.0282   -3.0942    0.0000 C   0  0  0  0  0  0  0  0  0  0  0  0
    2.8297   -3.0942    0.0000 N   0  0  0  0  0  0  0  0  0  0  0  0
  1  2  1  0  0  0  0
  3  2  1  0  0  0  0
  4  3  2  0  0  0  0
  4  5  1  0  0  0  0
  5  6  1  0  0  0  0
  6  7  1  0  0  0  0
  6  8  1  0  0  0  0
  9  4  1  0  0  0  0
 10  9  2  0  0  0  0
 10 11  1  0  0  0  0
 11 12  1  0  0  0  0
 12 13  1  0  0  0  0
 14 10  1  0  0  0  0
  2 14  2  0  0  0  0
M  END
> <ChemID>
10510

> <CAS>
1912-24-9

> <Original_SMILES>
CCNc1[n]c(Cl)[n]c(NC(C)C)[n]1

> <preferred_name>
Atrazine

> <dsstox_substance_id>
DTXSID9020112

> <dsstox_compound_id>
DTXCID90112

> <Canonical_QSARr>
CCNC1N=C(Cl)N=C(NC(C)C)N=1

> <InChI_Code_QSARr>
InChI=1S/C8H14ClN5/c1-4-10-7-12-6(9)13-8(14-7)11-5(2)3/h5H,4H2,1-3H3,(H2,10,11,12,13,14)

> <InChI Key_QSARr>
MXWJVTOOROXGIU-UHFFFAOYSA-N

> <Salt_Solvent>


> <Salt_Solvent_ID>
0

> <Clint>
0.7930916001765801

> <Tr_1_Tst_0>
1

$$$$
Row477
  Mrv171c012261910192D          

 29 31  0  0  0  0            999 V2000
    3.4899   -4.4197    0.0000 C   0  0  0  0  0  0  0  0  0  0  0  0
    2.8579   -4.9500    0.0000 C   0  0  0  0  0  0  0  0  0  0  0  0
    2.2259   -4.4197    0.0000 C   0  0  0  0  0  0  0  0  0  0  0  0
    3.2704   -5.6645    0.0000 C   0  0  0  0  0  0  0  0  0  0  0  0
    2.4454   -5.6645    0.0000 C   0  0  0  0  0  0  0  0  0  0  0  0
    1.7309   -6.0770    0.0000 C   0  0  0  0  0  0  0  0  0  0  0  0
    1.0164   -5.6645    0.0000 C   0  0  0  0  0  0  0  0  0  0  0  0
    1.0164   -4.8395    0.0000 Cl  0  0  0  0  0  0  0  0  0  0  0  0
    0.3020   -6.0770    0.0000 C   0  0  0  0  0  0  0  0  0  0  0  0
   -0.4125   -6.4895    0.0000 F   0  0  0  0  0  0  0  0  0  0  0  0
    0.7145   -6.7914    0.0000 F   0  0  0  0  0  0  0  0  0  0  0  0
   -0.1105   -5.3625    0.0000 F   0  0  0  0  0  0  0  0  0  0  0  0
    3.9849   -6.0770    0.0000 C   0  0  0  0  0  0  0  0  0  0  0  0
    3.9849   -6.9020    0.0000 O   0  0  0  0  0  0  0  0  0  0  0  0
    4.6993   -5.6645    0.0000 O   0  0  0  0  0  0  0  0  0  0  0  0
    5.4138   -6.0770    0.0000 C   0  0  0  0  0  0  0  0  0  0  0  0
    6.1283   -5.6645    0.0000 C   0  0  0  0  0  0  0  0  0  0  0  0
    6.1283   -4.8395    0.0000 C   0  0  0  0  0  0  0  0  0  0  0  0
    6.8427   -4.4270    0.0000 C   0  0  0  0  0  0  0  0  0  0  0  0
    7.5572   -4.8395    0.0000 C   0  0  0  0  0  0  0  0  0  0  0  0
    7.5572   -5.6645    0.0000 C   0  0  0  0  0  0  0  0  0  0  0  0
    8.2717   -6.0770    0.0000 C   0  0  0  0  0  0  0  0  0  0  0  0
    8.9862   -5.6645    0.0000 C   0  0  0  0  0  0  0  0  0  0  0  0
    9.7006   -6.0770    0.0000 C   0  0  0  0  0  0  0  0  0  0  0  0
    9.7006   -6.9020    0.0000 C   0  0  0  0  0  0  0  0  0  0  0  0
    8.9862   -7.3145    0.0000 C   0  0  0  0  0  0  0  0  0  0  0  0
    8.2717   -6.9020    0.0000 C   0  0  0  0  0  0  0  0  0  0  0  0
    6.8427   -6.0770    0.0000 C   0  0  0  0  0  0  0  0  0  0  0  0
    6.8427   -6.9020    0.0000 C   0  0  0  0  0  0  0  0  0  0  0  0
  1  2  1  0  0  0  0
  2  3  1  0  0  0  0
  2  4  1  0  0  0  0
  4  5  1  0  0  0  0
  2  5  1  0  0  0  0
  6  5  1  4  0  0  0
  6  7  2  0  0  0  0
  7  8  1  0  0  0  0
  7  9  1  0  0  0  0
  9 10  1  0  0  0  0
  9 11  1  0  0  0  0
  9 12  1  0  0  0  0
  4 13  1  0  0  0  0
 13 14  2  0  0  0  0
 13 15  1  0  0  0  0
 15 16  1  0  0  0  0
 16 17  1  0  0  0  0
 17 18  2  0  0  0  0
 18 19  1  0  0  0  0
 19 20  2  0  0  0  0
 20 21  1  0  0  0  0
 21 22  1  0  0  0  0
 22 23  1  0  0  0  0
 23 24  2  0  0  0  0
 24 25  1  0  0  0  0
 25 26  2  0  0  0  0
 26 27  1  0  0  0  0
 22 27  2  0  0  0  0
 21 28  2  0  0  0  0
 17 28  1  0  0  0  0
 28 29  1  0  0  0  0
M  END
> <ChemID>
10511

> <CAS>
82657-04-3

> <Original_SMILES>
CC1(C)[C@@H]([C@@H]1/C=C(\Cl)/C(F)(F)F)C(=O)OCc1cccc(-c2ccccc2)c1C

> <preferred_name>
Bifenthrin

> <dsstox_substance_id>
DTXSID9020160

> <dsstox_compound_id>
DTXCID9032402

> <Canonical_QSARr>
CC1(C)C(C1C=C(Cl)C(F)(F)F)C(=O)OCC1=CC=CC(C2C=CC=CC=2)=C1C

> <InChI_Code_QSARr>
InChI=1S/C23H22ClF3O2/c1-14-16(10-7-11-17(14)15-8-5-4-6-9-15)13-29-21(28)20-18(22(20,2)3)12-19(24)23(25,26)27/h4-12,18,20H,13H2,1-3H3

> <InChI Key_QSARr>
OMFRMAHOUUJSGP-UHFFFAOYSA-N

> <Salt_Solvent>


> <Salt_Solvent_ID>
0

> <Clint>
0.8286598965353197

> <Tr_1_Tst_0>
0

$$$$
Row340
  Mrv171c012261910192D          

 15 16  0  0  0  0            999 V2000
    0.7124   -2.3379    0.0000 O   0  0  0  0  0  0  0  0  0  0  0  0
    1.4268   -2.7504    0.0000 C   0  0  0  0  0  0  0  0  0  0  0  0
    1.4268   -3.5754    0.0000 N   0  0  0  0  0  0  0  0  0  0  0  0
    0.7124   -3.9879    0.0000 C   0  0  0  0  0  0  0  0  0  0  0  0
    2.1413   -2.3379    0.0000 O   0  0  0  0  0  0  0  0  0  0  0  0
    2.1413   -1.5129    0.0000 C   0  0  0  0  0  0  0  0  0  0  0  0
    1.4268   -1.1004    0.0000 C   0  0  0  0  0  0  0  0  0  0  0  0
    1.4268   -0.2754    0.0000 C   0  0  0  0  0  0  0  0  0  0  0  0
    2.1413    0.1371    0.0000 C   0  0  0  0  0  0  0  0  0  0  0  0
    2.8558   -0.2754    0.0000 C   0  0  0  0  0  0  0  0  0  0  0  0
    3.5703    0.1371    0.0000 C   0  0  0  0  0  0  0  0  0  0  0  0
    4.2847   -0.2754    0.0000 C   0  0  0  0  0  0  0  0  0  0  0  0
    4.2847   -1.1004    0.0000 C   0  0  0  0  0  0  0  0  0  0  0  0
    3.5703   -1.5129    0.0000 C   0  0  0  0  0  0  0  0  0  0  0  0
    2.8558   -1.1004    0.0000 C   0  0  0  0  0  0  0  0  0  0  0  0
  1  2  2  0  0  0  0
  2  3  1  0  0  0  0
  3  4  1  0  0  0  0
  2  5  1  0  0  0  0
  5  6  1  0  0  0  0
  7  6  1  0  0  0  0
  8  7  2  0  0  0  0
  9  8  1  0  0  0  0
 10  9  2  0  0  0  0
 10 11  1  0  0  0  0
 11 12  2  0  0  0  0
 12 13  1  0  0  0  0
 13 14  2  0  0  0  0
 14 15  1  0  0  0  0
  6 15  2  0  0  0  0
 15 10  1  0  0  0  0
M  END
> <ChemID>
10512

> <CAS>
63-25-2

> <Original_SMILES>
CNC(=O)Oc1cccc2ccccc21

> <preferred_name>
Carbaryl

> <dsstox_substance_id>
DTXSID9020247

> <dsstox_compound_id>
DTXCID10247

> <Canonical_QSARr>
CNC(=O)OC1C=CC=C2C=CC=CC2=1

> <InChI_Code_QSARr>
InChI=1S/C12H11NO2/c1-13-12(14)15-11-8-4-6-9-5-2-3-7-10(9)11/h2-8H,1H3,(H,13,14)

> <InChI Key_QSARr>
CVXBEEMKQHEXEN-UHFFFAOYSA-N

> <Salt_Solvent>


> <Salt_Solvent_ID>
0

> <Clint>
1.4356851379416298

> <Tr_1_Tst_0>
1

$$$$
Row423
  Mrv171c012261910192D          

 16 17  0  0  0  0            999 V2000
    1.2851   -1.3903    0.0000 O   0  0  0  0  0  0  0  0  0  0  0  0
    1.9996   -0.9778    0.0000 C   0  0  0  0  0  0  0  0  0  0  0  0
    2.7140   -1.3903    0.0000 O   0  0  0  0  0  0  0  0  0  0  0  0
    2.7140   -2.2153    0.0000 C   0  0  0  0  0  0  0  0  0  0  0  0
    1.9996   -2.6278    0.0000 C   0  0  0  0  0  0  0  0  0  0  0  0
    1.2149   -2.3728    0.0000 O   0  0  0  0  0  0  0  0  0  0  0  0
    0.7300   -3.0403    0.0000 C   0  0  0  0  0  0  0  0  0  0  0  0
    0.1169   -2.4882    0.0000 C   0  0  0  0  0  0  0  0  0  0  0  0
    0.1169   -3.5923    0.0000 C   0  0  0  0  0  0  0  0  0  0  0  0
    1.2149   -3.7077    0.0000 C   0  0  0  0  0  0  0  0  0  0  0  0
    1.9996   -3.4528    0.0000 C   0  0  0  0  0  0  0  0  0  0  0  0
    2.7140   -3.8653    0.0000 C   0  0  0  0  0  0  0  0  0  0  0  0
    3.4285   -3.4528    0.0000 C   0  0  0  0  0  0  0  0  0  0  0  0
    3.4285   -2.6278    0.0000 C   0  0  0  0  0  0  0  0  0  0  0  0
    1.9996   -0.1528    0.0000 N   0  0  0  0  0  0  0  0  0  0  0  0
    1.2851    0.2597    0.0000 C   0  0  0  0  0  0  0  0  0  0  0  0
  1  2  2  0  0  0  0
  2  3  1  0  0  0  0
  3  4  1  0  0  0  0
  5  4  1  0  0  0  0
  5  6  1  0  0  0  0
  6  7  1  0  0  0  0
  7  8  1  0  0  0  0
  7  9  1  0  0  0  0
  7 10  1  0  0  0  0
 10 11  1  0  0  0  0
 11  5  2  0  0  0  0
 12 11  1  0  0  0  0
 13 12  2  0  0  0  0
 14 13  1  0  0  0  0
  4 14  2  0  0  0  0
  2 15  1  0  0  0  0
 15 16  1  0  0  0  0
M  END
> <ChemID>
10513

> <CAS>
1563-66-2

> <Original_SMILES>
CC1(C)Cc2cccc(OC(=O)NC)c2O1

> <preferred_name>
Carbofuran

> <dsstox_substance_id>
DTXSID9020249

> <dsstox_compound_id>
DTXCID70249

> <Canonical_QSARr>
CNC(=O)OC1=CC=CC2CC(C)(C)OC1=2

> <InChI_Code_QSARr>
InChI=1S/C12H15NO3/c1-12(2)7-8-5-4-6-9(10(8)16-12)15-11(14)13-3/h4-6H,7H2,1-3H3,(H,13,14)

> <InChI Key_QSARr>
DUEPRVBVGDRKAG-UHFFFAOYSA-N

> <Salt_Solvent>


> <Salt_Solvent_ID>
0

> <Clint>
-7.0

> <Tr_1_Tst_0>
0

$$$$
Row379
  Mrv171c012261910192D          

 19 19  0  0  0  0            999 V2000
    4.2721   -2.8811    0.0000 S   0  0  0  0  0  0  0  0  0  0  0  0
    3.8596   -2.1666    0.0000 P   0  0  0  0  0  0  0  0  0  0  0  0
    4.5741   -1.7541    0.0000 O   0  0  0  0  0  0  0  0  0  0  0  0
    5.2885   -2.1666    0.0000 C   0  0  0  0  0  0  0  0  0  0  0  0
    6.0030   -1.7541    0.0000 C   0  0  0  0  0  0  0  0  0  0  0  0
    3.4471   -1.4522    0.0000 O   0  0  0  0  0  0  0  0  0  0  0  0
    3.8596   -0.7377    0.0000 C   0  0  0  0  0  0  0  0  0  0  0  0
    4.6846   -0.7377    0.0000 C   0  0  0  0  0  0  0  0  0  0  0  0
    3.1451   -2.5791    0.0000 O   0  0  0  0  0  0  0  0  0  0  0  0
    2.4307   -2.1666    0.0000 C   0  0  0  0  0  0  0  0  0  0  0  0
    2.4307   -1.3416    0.0000 C   0  0  0  0  0  0  0  0  0  0  0  0
    1.7162   -0.9291    0.0000 C   0  0  0  0  0  0  0  0  0  0  0  0
    1.7162   -0.1041    0.0000 C   0  0  0  0  0  0  0  0  0  0  0  0
    1.0017   -1.3416    0.0000 N   0  0  0  0  0  0  0  0  0  0  0  0
    1.0017   -2.1666    0.0000 C   0  0  0  0  0  0  0  0  0  0  0  0
    0.2872   -2.5791    0.0000 C   0  0  0  0  0  0  0  0  0  0  0  0
    0.2872   -3.4041    0.0000 C   0  0  0  0  0  0  0  0  0  0  0  0
   -0.4272   -2.1666    0.0000 C   0  0  0  0  0  0  0  0  0  0  0  0
    1.7162   -2.5791    0.0000 N   0  0  0  0  0  0  0  0  0  0  0  0
  1  2  2  0  0  0  0
  2  3  1  0  0  0  0
  3  4  1  0  0  0  0
  4  5  1  0  0  0  0
  2  6  1  0  0  0  0
  6  7  1  0  0  0  0
  7  8  1  0  0  0  0
  2  9  1  0  0  0  0
  9 10  1  0  0  0  0
 11 10  1  0  0  0  0
 12 11  2  0  0  0  0
 12 13  1  0  0  0  0
 14 12  1  0  0  0  0
 15 14  2  0  0  0  0
 15 16  1  0  0  0  0
 16 17  1  0  0  0  0
 16 18  1  0  0  0  0
 19 15  1  0  0  0  0
 10 19  2  0  0  0  0
M  END
> <ChemID>
10514

> <CAS>
333-41-5

> <Original_SMILES>
Cc1cc([n]c([n]1)C(C)C)OP(=S)(OCC)OCC

> <preferred_name>
Diazinon

> <dsstox_substance_id>
DTXSID9020407

> <dsstox_compound_id>
DTXCID50407

> <Canonical_QSARr>
CC1=CC(=NC(=N1)C(C)C)OP(=S)(OCC)OCC

> <InChI_Code_QSARr>
InChI=1S/C12H21N2O3PS/c1-6-15-18(19,16-7-2)17-11-8-10(5)13-12(14-11)9(3)4/h8-9H,6-7H2,1-5H3

> <InChI Key_QSARr>
FHIVAFMUCKRCQO-UHFFFAOYSA-N

> <Salt_Solvent>


> <Salt_Solvent_ID>
0

> <Clint>
1.718584720027436

> <Tr_1_Tst_0>
1

$$$$
Row273
  Mrv171c012261910192D          

 16 17  0  0  0  0            999 V2000
    2.3669    0.1826    0.0000 C   0  0  0  0  0  0  0  0  0  0  0  0
    2.3669   -0.6424    0.0000 C   0  0  0  0  0  0  0  0  0  0  0  0
    3.0814   -1.0549    0.0000 C   0  0  0  0  0  0  0  0  0  0  0  0
    3.7959   -0.6424    0.0000 C   0  0  0  0  0  0  0  0  0  0  0  0
    4.5103   -1.0549    0.0000 C   0  0  0  0  0  0  0  0  0  0  0  0
    5.2248   -0.6424    0.0000 O   0  0  0  0  0  0  0  0  0  0  0  0
    5.9393   -1.0549    0.0000 C   0  0  0  0  0  0  0  0  0  0  0  0
    6.6538   -0.6424    0.0000 C   0  0  0  0  0  0  0  0  0  0  0  0
    4.5103   -1.8799    0.0000 C   0  0  0  0  0  0  0  0  0  0  0  0
    3.7959   -2.2924    0.0000 C   0  0  0  0  0  0  0  0  0  0  0  0
    3.0814   -1.8799    0.0000 C   0  0  0  0  0  0  0  0  0  0  0  0
    2.3669   -2.2924    0.0000 N   0  0  0  0  0  0  0  0  0  0  0  0
    1.6525   -1.8799    0.0000 C   0  0  0  0  0  0  0  0  0  0  0  0
    1.3703   -2.6551    0.0000 C   0  0  0  0  0  0  0  0  0  0  0  0
    0.8400   -1.7366    0.0000 C   0  0  0  0  0  0  0  0  0  0  0  0
    1.6525   -1.0549    0.0000 C   0  0  0  0  0  0  0  0  0  0  0  0
  1  2  1  0  0  0  0
  3  2  1  0  0  0  0
  3  4  1  0  0  0  0
  4  5  2  0  0  0  0
  5  6  1  0  0  0  0
  6  7  1  0  0  0  0
  7  8  1  0  0  0  0
  5  9  1  0  0  0  0
  9 10  2  0  0  0  0
 10 11  1  0  0  0  0
 11  3  2  0  0  0  0
 12 11  1  0  0  0  0
 13 12  1  0  0  0  0
 13 14  1  0  0  0  0
 13 15  1  0  0  0  0
 16 13  1  0  0  0  0
  2 16  2  0  0  0  0
M  END
> <ChemID>
10516

> <CAS>
91-53-2

> <Original_SMILES>
CC1=CC(C)(C)Nc2ccc(cc12)OCC

> <preferred_name>
Ethoxyquin

> <dsstox_substance_id>
DTXSID9020582

> <dsstox_compound_id>
DTXCID70582

> <Canonical_QSARr>
CC1=CC(C)(C)NC2C=CC(=CC1=2)OCC

> <InChI_Code_QSARr>
InChI=1S/C14H19NO/c1-5-16-11-6-7-13-12(8-11)10(2)9-14(3,4)15-13/h6-9,15H,5H2,1-4H3

> <InChI Key_QSARr>
DECIPOUIJURFOJ-UHFFFAOYSA-N

> <Salt_Solvent>


> <Salt_Solvent_ID>
0

> <Clint>
1.1805845966029553

> <Tr_1_Tst_0>
1

$$$$
Row399
  Mrv171c012261910192D          

 12 12  0  0  0  0            999 V2000
    2.8597   -2.8898    0.0000 O   0  0  0  0  0  0  0  0  0  0  0  0
    2.8597   -2.0648    0.0000 C   0  0  0  0  0  0  0  0  0  0  0  0
    3.5741   -1.6523    0.0000 C   0  0  0  0  0  0  0  0  0  0  0  0
    3.5741   -0.8273    0.0000 C   0  0  0  0  0  0  0  0  0  0  0  0
    2.8597   -0.4148    0.0000 C   0  0  0  0  0  0  0  0  0  0  0  0
    2.8597    0.4102    0.0000 C   0  0  0  0  0  0  0  0  0  0  0  0
    3.5741    0.8227    0.0000 C   0  0  0  0  0  0  0  0  0  0  0  0
    3.5741    1.6477    0.0000 C   0  0  0  0  0  0  0  0  0  0  0  0
    2.1452   -0.8273    0.0000 C   0  0  0  0  0  0  0  0  0  0  0  0
    2.1452   -1.6523    0.0000 C   0  0  0  0  0  0  0  0  0  0  0  0
    1.4307   -2.0648    0.0000 O   0  0  0  0  0  0  0  0  0  0  0  0
    1.4307   -2.8898    0.0000 C   0  0  0  0  0  0  0  0  0  0  0  0
  1  2  1  0  0  0  0
  3  2  1  0  0  0  0
  4  3  2  0  0  0  0
  5  4  1  0  0  0  0
  5  6  1  0  0  0  0
  6  7  1  0  0  0  0
  7  8  2  0  0  0  0
  9  5  2  0  0  0  0
 10  9  1  0  0  0  0
  2 10  2  0  0  0  0
 10 11  1  0  0  0  0
 11 12  1  0  0  0  0
M  END
> <ChemID>
10517

> <CAS>
97-53-0

> <Original_SMILES>
COc1cc(CC=C)ccc1O

> <preferred_name>
Eugenol

> <dsstox_substance_id>
DTXSID9020617

> <dsstox_compound_id>
DTXCID90617

> <Canonical_QSARr>
COC1C=C(CC=C)C=CC=1O

> <InChI_Code_QSARr>
InChI=1S/C10H12O2/c1-3-4-8-5-6-9(11)10(7-8)12-2/h3,5-7,11H,1,4H2,2H3

> <InChI Key_QSARr>
RRAFCDWBNXTKKO-UHFFFAOYSA-N

> <Salt_Solvent>


> <Salt_Solvent_ID>
0

> <Clint>
2.015443587951102

> <Tr_1_Tst_0>
1

$$$$
Row406
  Mrv171c012261910192D          

 21 22  0  0  0  0            999 V2000
    1.9311   -2.2305    0.0000 Cl  0  0  0  0  0  0  0  0  0  0  0  0
    2.3436   -2.9449    0.0000 C   0  0  0  0  0  0  0  0  0  0  0  0
    2.7561   -3.6594    0.0000 Cl  0  0  0  0  0  0  0  0  0  0  0  0
    1.6292   -3.3574    0.0000 Cl  0  0  0  0  0  0  0  0  0  0  0  0
    3.0581   -2.5324    0.0000 C   0  0  0  0  0  0  0  0  0  0  0  0
    3.0581   -1.7074    0.0000 C   0  0  0  0  0  0  0  0  0  0  0  0
    3.7726   -1.2949    0.0000 C   0  0  0  0  0  0  0  0  0  0  0  0
    3.7726   -0.4699    0.0000 C   0  0  0  0  0  0  0  0  0  0  0  0
    3.0581   -0.0574    0.0000 C   0  0  0  0  0  0  0  0  0  0  0  0
    3.0581    0.7676    0.0000 O   0  0  0  0  0  0  0  0  0  0  0  0
    2.3436    1.1801    0.0000 C   0  0  0  0  0  0  0  0  0  0  0  0
    2.3436   -0.4699    0.0000 C   0  0  0  0  0  0  0  0  0  0  0  0
    2.3436   -1.2949    0.0000 C   0  0  0  0  0  0  0  0  0  0  0  0
    3.7726   -2.9449    0.0000 C   0  0  0  0  0  0  0  0  0  0  0  0
    3.7726   -3.7699    0.0000 C   0  0  0  0  0  0  0  0  0  0  0  0
    4.4871   -4.1824    0.0000 C   0  0  0  0  0  0  0  0  0  0  0  0
    5.2015   -3.7699    0.0000 C   0  0  0  0  0  0  0  0  0  0  0  0
    5.9160   -4.1824    0.0000 O   0  0  0  0  0  0  0  0  0  0  0  0
    6.6305   -3.7699    0.0000 C   0  0  0  0  0  0  0  0  0  0  0  0
    5.2015   -2.9449    0.0000 C   0  0  0  0  0  0  0  0  0  0  0  0
    4.4871   -2.5324    0.0000 C   0  0  0  0  0  0  0  0  0  0  0  0
  1  2  1  0  0  0  0
  2  3  1  0  0  0  0
  2  4  1  0  0  0  0
  2  5  1  0  0  0  0
  5  6  1  0  0  0  0
  7  6  1  0  0  0  0
  8  7  2  0  0  0  0
  9  8  1  0  0  0  0
  9 10  1  0  0  0  0
 10 11  1  0  0  0  0
 12  9  2  0  0  0  0
 13 12  1  0  0  0  0
  6 13  2  0  0  0  0
  5 14  1  0  0  0  0
 15 14  1  0  0  0  0
 16 15  2  0  0  0  0
 17 16  1  0  0  0  0
 17 18  1  0  0  0  0
 18 19  1  0  0  0  0
 20 17  2  0  0  0  0
 21 20  1  0  0  0  0
 14 21  2  0  0  0  0
M  END
> <ChemID>
10518

> <CAS>
72-43-5

> <Original_SMILES>
COc1ccc(cc1)C(c1ccc(cc1)OC)C(Cl)(Cl)Cl

> <preferred_name>
Methoxychlor

> <dsstox_substance_id>
DTXSID9020827

> <dsstox_compound_id>
DTXCID30827

> <Canonical_QSARr>
COC1C=CC(=CC=1)C(C1C=CC(=CC=1)OC)C(Cl)(Cl)Cl

> <InChI_Code_QSARr>
InChI=1S/C16H15Cl3O2/c1-20-13-7-3-11(4-8-13)15(16(17,18)19)12-5-9-14(21-2)10-6-12/h3-10,15H,1-2H3

> <InChI Key_QSARr>
IAKOZHOLGAGEJT-UHFFFAOYSA-N

> <Salt_Solvent>


> <Salt_Solvent_ID>
0

> <Clint>
2.2314695904306814

> <Tr_1_Tst_0>
1

$$$$
Row226
  Mrv171c012261910192D          

 26 29  0  0  0  0            999 V2000
    2.3518   -1.9444    0.0000 C   0  0  0  0  0  0  0  0  0  0  0  0
    1.9919   -1.2020    0.0000 C   0  0  0  0  0  0  0  0  0  0  0  0
    2.8836   -1.3137    0.0000 C   0  0  0  0  0  0  0  0  0  0  0  0
    3.6957   -1.4589    0.0000 C   0  0  0  0  0  0  0  0  0  0  0  0
    4.2276   -0.8282    0.0000 O   0  0  0  0  0  0  0  0  0  0  0  0
    3.9760   -2.2348    0.0000 C   0  0  0  0  0  0  0  0  0  0  0  0
    3.4442   -2.8655    0.0000 C   0  0  0  0  0  0  0  0  0  0  0  0
    3.7245   -3.6415    0.0000 C   0  0  0  0  0  0  0  0  0  0  0  0
    4.5366   -3.7867    0.0000 C   0  0  0  0  0  0  0  0  0  0  0  0
    5.0685   -3.1560    0.0000 C   0  0  0  0  0  0  0  0  0  0  0  0
    5.8806   -3.3012    0.0000 C   0  0  0  0  0  0  0  0  0  0  0  0
    6.4124   -2.6705    0.0000 C   0  0  0  0  0  0  0  0  0  0  0  0
    7.2245   -2.8157    0.0000 O   0  0  0  0  0  0  0  0  0  0  0  0
    6.1321   -1.8946    0.0000 C   0  0  0  0  0  0  0  0  0  0  0  0
    5.3200   -1.7493    0.0000 C   0  0  0  0  0  0  0  0  0  0  0  0
    4.7882   -2.3801    0.0000 C   0  0  0  0  0  0  0  0  0  0  0  0
    4.5079   -1.6041    0.0000 C   0  0  0  0  0  0  0  0  0  0  0  0
    2.6321   -2.7203    0.0000 C   0  0  0  0  0  0  0  0  0  0  0  0
    1.9808   -3.2267    0.0000 C   0  0  0  0  0  0  0  0  0  0  0  0
    1.2979   -2.7637    0.0000 C   0  0  0  0  0  0  0  0  0  0  0  0
    1.5272   -1.9712    0.0000 C   0  0  0  0  0  0  0  0  0  0  0  0
    0.7663   -1.6523    0.0000 O   0  0  0  0  0  0  0  0  0  0  0  0
    1.4058   -1.1552    0.0000 C   0  0  0  0  0  0  0  0  0  0  0  0
    0.6384   -0.8523    0.0000 C   0  0  0  0  0  0  0  0  0  0  0  0
    0.5170   -0.0363    0.0000 O   0  0  0  0  0  0  0  0  0  0  0  0
    2.0518   -0.6421    0.0000 O   0  0  0  0  0  0  0  0  0  0  0  0
  1  2  1  0  0  0  0
  3  1  1  0  0  0  0
  4  3  1  0  0  0  0
  4  5  1  0  0  0  0
  6  4  1  0  0  0  0
  6  7  1  0  0  0  0
  7  8  1  0  0  0  0
  8  9  1  0  0  0  0
  9 10  1  0  0  0  0
 11 10  2  0  0  0  0
 12 11  1  0  0  0  0
 12 13  2  0  0  0  0
 14 12  1  0  0  0  0
 15 14  2  0  0  0  0
 16 15  1  0  0  0  0
 10 16  1  0  0  0  0
 16  6  1  0  0  0  0
 16 17  1  0  0  0  0
 18  7  1  0  0  0  0
 18  1  1  0  0  0  0
 19 18  1  0  0  0  0
 20 19  1  0  0  0  0
 21 20  1  0  0  0  0
  1 21  1  0  0  0  0
 21 22  1  0  0  0  0
 21 23  1  0  0  0  0
 23 24  1  0  0  0  0
 24 25  1  0  0  0  0
 23 26  2  0  0  0  0
M  END
> <ChemID>
10519

> <CAS>
50-24-8

> <Original_SMILES>
C[C@]12C=CC(=O)C=C1CC[C@@H]1[C@@H]2[C@@H](O)C[C@@]2(C)[C@H]1CC[C@]2(O)C(=O)CO

> <preferred_name>
Prednisolone

> <dsstox_substance_id>
DTXSID9021184

> <dsstox_compound_id>
DTXCID301184

> <Canonical_QSARr>
CC12C=CC(=O)C=C1CCC1C2C(O)CC2(C)C1CCC2(O)C(=O)CO

> <InChI_Code_QSARr>
InChI=1S/C21H28O5/c1-19-7-5-13(23)9-12(19)3-4-14-15-6-8-21(26,17(25)11-22)20(15,2)10-16(24)18(14)19/h5,7,9,14-16,18,22,24,26H,3-4,6,8,10-11H2,1-2H3

> <InChI Key_QSARr>
OIGNJSKKLXVSLS-UHFFFAOYSA-N

> <Salt_Solvent>


> <Salt_Solvent_ID>
0

> <Clint>
0.9867717342662446

> <Tr_1_Tst_0>
1

$$$$
Row141
  Mrv171c012261910192D          

 17 18  0  0  0  0            999 V2000
    3.8661   -1.1151    0.0000 N   0  0  0  0  0  0  0  0  0  0  0  0
    3.1516   -0.7026    0.0000 C   0  0  0  0  0  0  0  0  0  0  0  0
    3.1516    0.1224    0.0000 N   0  0  0  0  0  0  0  0  0  0  0  0
    2.4371    0.5349    0.0000 C   0  0  0  0  0  0  0  0  0  0  0  0
    2.4371    1.3599    0.0000 N   0  0  0  0  0  0  0  0  0  0  0  0
    1.7227    0.1224    0.0000 N   0  0  0  0  0  0  0  0  0  0  0  0
    1.7227   -0.7026    0.0000 C   0  0  0  0  0  0  0  0  0  0  0  0
    1.0082   -1.1151    0.0000 C   0  0  0  0  0  0  0  0  0  0  0  0
    1.0082   -1.9401    0.0000 C   0  0  0  0  0  0  0  0  0  0  0  0
    2.4371   -1.1151    0.0000 C   0  0  0  0  0  0  0  0  0  0  0  0
    2.4371   -1.9401    0.0000 C   0  0  0  0  0  0  0  0  0  0  0  0
    1.7227   -2.3526    0.0000 C   0  0  0  0  0  0  0  0  0  0  0  0
    1.7227   -3.1776    0.0000 C   0  0  0  0  0  0  0  0  0  0  0  0
    2.4371   -3.5901    0.0000 C   0  0  0  0  0  0  0  0  0  0  0  0
    2.4371   -4.4151    0.0000 Cl  0  0  0  0  0  0  0  0  0  0  0  0
    3.1516   -3.1776    0.0000 C   0  0  0  0  0  0  0  0  0  0  0  0
    3.1516   -2.3526    0.0000 C   0  0  0  0  0  0  0  0  0  0  0  0
  1  2  1  0  0  0  0
  3  2  1  0  0  0  0
  4  3  2  0  0  0  0
  4  5  1  0  0  0  0
  6  4  1  0  0  0  0
  7  6  2  0  0  0  0
  7  8  1  0  0  0  0
  8  9  1  0  0  0  0
 10  7  1  0  0  0  0
  2 10  2  0  0  0  0
 10 11  1  0  0  0  0
 12 11  1  0  0  0  0
 13 12  2  0  0  0  0
 14 13  1  0  0  0  0
 14 15  1  0  0  0  0
 16 14  2  0  0  0  0
 17 16  1  0  0  0  0
 11 17  2  0  0  0  0
M  END
> <ChemID>
10520

> <CAS>
58-14-0

> <Original_SMILES>
CCc1[n]c(N)[n]c(N)c1-c1ccc(Cl)cc1

> <preferred_name>
Pyrimethamine

> <dsstox_substance_id>
DTXSID9021217

> <dsstox_compound_id>
DTXCID601217

> <Canonical_QSARr>
CCC1=NC(N)=NC(N)=C1C1C=CC(Cl)=CC=1

> <InChI_Code_QSARr>
InChI=1S/C12H13ClN4/c1-2-9-10(11(14)17-12(15)16-9)7-3-5-8(13)6-4-7/h3-6H,2H2,1H3,(H4,14,15,16,17)

> <InChI Key_QSARr>
WKSAUQYGYAYLPV-UHFFFAOYSA-N

> <Salt_Solvent>


> <Salt_Solvent_ID>
0

> <Clint>
0.44216608578472005

> <Tr_1_Tst_0>
1

$$$$
Row290
  Mrv171c012261910192D          

 10 10  0  0  0  0            999 V2000
    2.5716   -1.4035    0.0000 C   0  0  0  0  0  0  0  0  0  0  0  0
    1.8571   -0.9910    0.0000 C   0  0  0  0  0  0  0  0  0  0  0  0
    1.8571   -0.1660    0.0000 O   0  0  0  0  0  0  0  0  0  0  0  0
    1.1427    0.2465    0.0000 C   0  0  0  0  0  0  0  0  0  0  0  0
    1.1427    1.0715    0.0000 C   0  0  0  0  0  0  0  0  0  0  0  0
    0.4282    1.4840    0.0000 O   0  0  0  0  0  0  0  0  0  0  0  0
    1.1427   -1.4035    0.0000 C   0  0  0  0  0  0  0  0  0  0  0  0
    1.1427   -2.2285    0.0000 C   0  0  0  0  0  0  0  0  0  0  0  0
    1.8571   -2.6410    0.0000 C   0  0  0  0  0  0  0  0  0  0  0  0
    2.5716   -2.2285    0.0000 C   0  0  0  0  0  0  0  0  0  0  0  0
  2  1  1  0  0  0  0
  2  3  1  0  0  0  0
  3  4  1  0  0  0  0
  4  5  1  0  0  0  0
  5  6  1  0  0  0  0
  7  2  2  0  0  0  0
  8  7  1  0  0  0  0
  9  8  2  0  0  0  0
 10  9  1  0  0  0  0
  1 10  2  0  0  0  0
M  END
> <ChemID>
10521

> <CAS>
122-99-6

> <Original_SMILES>
OCCOc1ccccc1

> <preferred_name>
2-Phenoxyethanol

> <dsstox_substance_id>
DTXSID9021976

> <dsstox_compound_id>
DTXCID401976

> <Canonical_QSARr>
OCCOC1C=CC=CC=1

> <InChI_Code_QSARr>
InChI=1S/C8H10O2/c9-6-7-10-8-4-2-1-3-5-8/h1-5,9H,6-7H2

> <InChI Key_QSARr>
QCDWFXQBSFUVSP-UHFFFAOYSA-N

> <Salt_Solvent>


> <Salt_Solvent_ID>
0

> <Clint>
1.252610340567373

> <Tr_1_Tst_0>
1

$$$$
Row504
  Mrv171c012261910192D          

 15 15  0  0  0  0            999 V2000
    1.0583   -0.8415    0.0000 C   0  0  0  0  0  0  0  0  0  0  0  0
    0.3439   -0.4290    0.0000 O   0  0  0  0  0  0  0  0  0  0  0  0
    1.0583   -1.6665    0.0000 C   0  0  0  0  0  0  0  0  0  0  0  0
    1.7728   -2.0790    0.0000 C   0  0  0  0  0  0  0  0  0  0  0  0
    2.4873   -1.6665    0.0000 C   0  0  0  0  0  0  0  0  0  0  0  0
    3.2017   -2.0790    0.0000 C   0  0  0  0  0  0  0  0  0  0  0  0
    3.9162   -1.6665    0.0000 C   0  0  0  0  0  0  0  0  0  0  0  0
    4.6307   -2.0790    0.0000 C   0  0  0  0  0  0  0  0  0  0  0  0
    5.3452   -1.6665    0.0000 C   0  0  0  0  0  0  0  0  0  0  0  0
    6.0596   -2.0790    0.0000 C   0  0  0  0  0  0  0  0  0  0  0  0
    6.7741   -1.6665    0.0000 C   0  0  0  0  0  0  0  0  0  0  0  0
    7.4886   -2.0790    0.0000 C   0  0  0  0  0  0  0  0  0  0  0  0
    8.2030   -1.6665    0.0000 C   0  0  0  0  0  0  0  0  0  0  0  0
    2.4873   -0.8415    0.0000 C   0  0  0  0  0  0  0  0  0  0  0  0
    1.7728   -0.4290    0.0000 C   0  0  0  0  0  0  0  0  0  0  0  0
  1  2  1  0  0  0  0
  3  1  1  0  0  0  0
  4  3  2  0  0  0  0
  5  4  1  0  0  0  0
  5  6  1  0  0  0  0
  6  7  1  0  0  0  0
  7  8  1  0  0  0  0
  8  9  1  0  0  0  0
  9 10  1  0  0  0  0
 10 11  1  0  0  0  0
 11 12  1  0  0  0  0
 12 13  1  0  0  0  0
 14  5  2  0  0  0  0
 15 14  1  0  0  0  0
  1 15  2  0  0  0  0
M  END
> <ChemID>
10522

> <CAS>
1806-26-4

> <Original_SMILES>
CCCCCCCCc1ccc(O)cc1

> <preferred_name>
4-Octylphenol

> <dsstox_substance_id>
DTXSID9022312

> <dsstox_compound_id>
DTXCID902312

> <Canonical_QSARr>
CCCCCCCCC1C=CC(O)=CC=1

> <InChI_Code_QSARr>
InChI=1S/C14H22O/c1-2-3-4-5-6-7-8-13-9-11-14(15)12-10-13/h9-12,15H,2-8H2,1H3

> <InChI Key_QSARr>
NTDQQZYCCIDJRK-UHFFFAOYSA-N

> <Salt_Solvent>


> <Salt_Solvent_ID>
0

> <Clint>
1.1946253294838642

> <Tr_1_Tst_0>
0

$$$$
Row525
  Mrv171c012261910192D          

 15 15  0  0  0  0            999 V2000
    2.5833   -1.8191    0.0000 C   0  0  0  0  0  0  0  0  0  0  0  0
    3.4083   -1.8191    0.0000 C   0  0  0  0  0  0  0  0  0  0  0  0
    1.7583   -1.8191    0.0000 C   0  0  0  0  0  0  0  0  0  0  0  0
    2.5833   -2.6441    0.0000 C   0  0  0  0  0  0  0  0  0  0  0  0
    1.8689   -3.0566    0.0000 C   0  0  0  0  0  0  0  0  0  0  0  0
    1.1544   -3.4691    0.0000 C   0  0  0  0  0  0  0  0  0  0  0  0
    2.2814   -3.7711    0.0000 C   0  0  0  0  0  0  0  0  0  0  0  0
    1.4564   -2.3421    0.0000 C   0  0  0  0  0  0  0  0  0  0  0  0
    2.5833   -0.9941    0.0000 C   0  0  0  0  0  0  0  0  0  0  0  0
    3.2978   -0.5816    0.0000 C   0  0  0  0  0  0  0  0  0  0  0  0
    3.2978    0.2434    0.0000 C   0  0  0  0  0  0  0  0  0  0  0  0
    2.5833    0.6559    0.0000 C   0  0  0  0  0  0  0  0  0  0  0  0
    2.5833    1.4809    0.0000 O   0  0  0  0  0  0  0  0  0  0  0  0
    1.8689    0.2434    0.0000 C   0  0  0  0  0  0  0  0  0  0  0  0
    1.8689   -0.5816    0.0000 C   0  0  0  0  0  0  0  0  0  0  0  0
  1  2  1  0  0  0  0
  1  3  1  0  0  0  0
  1  4  1  0  0  0  0
  4  5  1  0  0  0  0
  5  6  1  0  0  0  0
  5  7  1  0  0  0  0
  5  8  1  0  0  0  0
  1  9  1  0  0  0  0
 10  9  1  0  0  0  0
 11 10  2  0  0  0  0
 12 11  1  0  0  0  0
 12 13  1  0  0  0  0
 14 12  2  0  0  0  0
 15 14  1  0  0  0  0
  9 15  2  0  0  0  0
M  END
> <ChemID>
10523

> <CAS>
140-66-9

> <Original_SMILES>
CC(C)(C)CC(C)(C)c1ccc(O)cc1

> <preferred_name>
4-(1,1,3,3-Tetramethylbutyl)phenol

> <dsstox_substance_id>
DTXSID9022360

> <dsstox_compound_id>
DTXCID602360

> <Canonical_QSARr>
CC(C)(C)CC(C)(C)C1C=CC(O)=CC=1

> <InChI_Code_QSARr>
InChI=1S/C14H22O/c1-13(2,3)10-14(4,5)11-6-8-12(15)9-7-11/h6-9,15H,10H2,1-5H3

> <InChI Key_QSARr>
ISAVYTVYFVQUDY-UHFFFAOYSA-N

> <Salt_Solvent>


> <Salt_Solvent_ID>
0

> <Clint>
1.4310419453358854

> <Tr_1_Tst_0>
0

$$$$
Row385
  Mrv171c012261910192D          

 12 12  0  0  0  0            999 V2000
    2.6838   -2.0384    0.0000 C   0  0  0  0  0  0  0  0  0  0  0  0
    1.9693   -2.4509    0.0000 O   0  0  0  0  0  0  0  0  0  0  0  0
    1.9693   -3.2759    0.0000 C   0  0  0  0  0  0  0  0  0  0  0  0
    1.2548   -3.6884    0.0000 C   0  0  0  0  0  0  0  0  0  0  0  0
    3.3982   -2.4509    0.0000 O   0  0  0  0  0  0  0  0  0  0  0  0
    2.6838   -1.2134    0.0000 C   0  0  0  0  0  0  0  0  0  0  0  0
    3.3982   -0.8009    0.0000 C   0  0  0  0  0  0  0  0  0  0  0  0
    3.3982    0.0241    0.0000 C   0  0  0  0  0  0  0  0  0  0  0  0
    2.6838    0.4366    0.0000 C   0  0  0  0  0  0  0  0  0  0  0  0
    2.6838    1.2616    0.0000 O   0  0  0  0  0  0  0  0  0  0  0  0
    1.9693    0.0241    0.0000 C   0  0  0  0  0  0  0  0  0  0  0  0
    1.9693   -0.8009    0.0000 C   0  0  0  0  0  0  0  0  0  0  0  0
  1  2  1  0  0  0  0
  2  3  1  0  0  0  0
  3  4  1  0  0  0  0
  1  5  2  0  0  0  0
  1  6  1  0  0  0  0
  7  6  1  0  0  0  0
  8  7  2  0  0  0  0
  9  8  1  0  0  0  0
  9 10  1  0  0  0  0
 11  9  2  0  0  0  0
 12 11  1  0  0  0  0
  6 12  2  0  0  0  0
M  END
> <ChemID>
10524

> <CAS>
120-47-8

> <Original_SMILES>
CCOC(=O)c1ccc(O)cc1

> <preferred_name>
Ethylparaben

> <dsstox_substance_id>
DTXSID9022528

> <dsstox_compound_id>
DTXCID002528

> <Canonical_QSARr>
CCOC(=O)C1C=CC(O)=CC=1

> <InChI_Code_QSARr>
InChI=1S/C9H10O3/c1-2-12-9(11)7-3-5-8(10)6-4-7/h3-6,10H,2H2,1H3

> <InChI Key_QSARr>
NUVBSKCKDOMJSU-UHFFFAOYSA-N

> <Salt_Solvent>


> <Salt_Solvent_ID>
0

> <Clint>
1.7576996250877388

> <Tr_1_Tst_0>
1

$$$$
Row393
  Mrv171c012261910192D          

 33 34  0  0  0  0            999 V2000
    2.8579   -2.4750    0.0000 C   0  0  0  0  0  0  0  0  0  0  0  0
    2.1434   -2.8875    0.0000 C   0  0  0  0  0  0  0  0  0  0  0  0
    2.1434   -3.7125    0.0000 C   0  0  0  0  0  0  0  0  0  0  0  0
    1.4289   -2.4750    0.0000 C   0  0  0  0  0  0  0  0  0  0  0  0
    0.7145   -2.8875    0.0000 N   0  0  0  0  0  0  0  0  0  0  0  0
    0.0000   -2.4750    0.0000 C   0  0  0  0  0  0  0  0  0  0  0  0
   -0.7145   -2.8875    0.0000 C   0  0  0  0  0  0  0  0  0  0  0  0
   -1.4289   -2.4750    0.0000 C   0  0  0  0  0  0  0  0  0  0  0  0
   -0.7145   -3.7125    0.0000 C   0  0  0  0  0  0  0  0  0  0  0  0
    0.0000   -1.6500    0.0000 C   0  0  0  0  0  0  0  0  0  0  0  0
   -0.7145   -1.2375    0.0000 C   0  0  0  0  0  0  0  0  0  0  0  0
   -1.4289   -1.6500    0.0000 O   0  0  0  0  0  0  0  0  0  0  0  0
   -2.1434   -1.2375    0.0000 C   0  0  0  0  0  0  0  0  0  0  0  0
    0.7145   -1.2375    0.0000 C   0  0  0  0  0  0  0  0  0  0  0  0
    1.4289   -1.6500    0.0000 C   0  0  0  0  0  0  0  0  0  0  0  0
    2.1434   -1.2375    0.0000 C   0  0  0  0  0  0  0  0  0  0  0  0
    2.8579   -1.6500    0.0000 C   0  0  0  0  0  0  0  0  0  0  0  0
    3.5724   -1.2375    0.0000 C   0  0  0  0  0  0  0  0  0  0  0  0
    3.5724   -0.4125    0.0000 O   0  0  0  0  0  0  0  0  0  0  0  0
    4.2868   -1.6500    0.0000 C   0  0  0  0  0  0  0  0  0  0  0  0
    5.0013   -1.2375    0.0000 C   0  0  0  0  0  0  0  0  0  0  0  0
    5.0013   -0.4125    0.0000 O   0  0  0  0  0  0  0  0  0  0  0  0
    5.7158   -1.6500    0.0000 C   0  0  0  0  0  0  0  0  0  0  0  0
    6.4302   -1.2375    0.0000 C   0  0  0  0  0  0  0  0  0  0  0  0
    7.1447   -1.6500    0.0000 O   0  0  0  0  0  0  0  0  0  0  0  0
    6.4302   -0.4125    0.0000 O   0  0  0  0  0  0  0  0  0  0  0  0
    0.7145   -0.4125    0.0000 C   0  0  0  0  0  0  0  0  0  0  0  0
    0.0000    0.0000    0.0000 C   0  0  0  0  0  0  0  0  0  0  0  0
    0.0000    0.8250    0.0000 C   0  0  0  0  0  0  0  0  0  0  0  0
    0.7145    1.2375    0.0000 C   0  0  0  0  0  0  0  0  0  0  0  0
    0.7145    2.0625    0.0000 F   0  0  0  0  0  0  0  0  0  0  0  0
    1.4289    0.8250    0.0000 C   0  0  0  0  0  0  0  0  0  0  0  0
    1.4289    0.0000    0.0000 C   0  0  0  0  0  0  0  0  0  0  0  0
  1  2  1  0  0  0  0
  2  3  1  0  0  0  0
  2  4  1  0  0  0  0
  4  5  1  0  0  0  0
  5  6  2  0  0  0  0
  6  7  1  0  0  0  0
  7  8  1  0  0  0  0
  7  9  1  0  0  0  0
  6 10  1  0  0  0  0
 10 11  1  0  0  0  0
 11 12  1  0  0  0  0
 12 13  1  0  0  0  0
 10 14  2  0  0  0  0
 14 15  1  0  0  0  0
  4 15  2  0  0  0  0
 16 15  1  4  0  0  0
 16 17  2  0  0  0  0
 17 18  1  0  0  0  0
 18 19  1  0  0  0  0
 18 20  1  0  0  0  0
 20 21  1  0  0  0  0
 21 22  1  0  0  0  0
 21 23  1  0  0  0  0
 23 24  1  0  0  0  0
 24 25  1  0  0  0  0
 24 26  2  0  0  0  0
 14 27  1  0  0  0  0
 27 28  1  0  0  0  0
 28 29  2  0  0  0  0
 29 30  1  0  0  0  0
 30 31  1  0  0  0  0
 30 32  2  0  0  0  0
 32 33  1  0  0  0  0
 27 33  2  0  0  0  0
M  END
> <ChemID>
10525

> <CAS>
145599-86-6

> <Original_SMILES>
COCc1c(c(/C=C/[C@@H](O)C[C@@H](O)CC(O)=O)c([n]c1C(C)C)C(C)C)-c1ccc(F)cc1

> <preferred_name>
Cerivastatin

> <dsstox_substance_id>
DTXSID9022786

> <dsstox_compound_id>
DTXCID402786

> <Canonical_QSARr>
CC(C)C1N=C(C(C)C)C(COC)=C(C=1C=CC(O)CC(O)CC(O)=O)C1C=CC(F)=CC=1

> <InChI_Code_QSARr>
InChI=1S/C26H34FNO5/c1-15(2)25-21(11-10-19(29)12-20(30)13-23(31)32)24(17-6-8-18(27)9-7-17)22(14-33-5)26(28-25)16(3)4/h6-11,15-16,19-20,29-30H,12-14H2,1-5H3,(H,31,32)

> <InChI Key_QSARr>
SEERZIQQUAZTOL-UHFFFAOYSA-N

> <Salt_Solvent>


> <Salt_Solvent_ID>
0

> <Clint>
1.9138138523837167

> <Tr_1_Tst_0>
1

$$$$
Row170
  Mrv171c012261910192D          

 29 31  0  0  0  0            999 V2000
    0.5483   -0.1861    0.0000 C   0  0  0  0  0  0  0  0  0  0  0  0
    1.3733   -0.1861    0.0000 O   0  0  0  0  0  0  0  0  0  0  0  0
    1.7858   -0.9005    0.0000 C   0  0  0  0  0  0  0  0  0  0  0  0
    2.6108   -0.9005    0.0000 C   0  0  0  0  0  0  0  0  0  0  0  0
    1.3733   -1.6150    0.0000 O   0  0  0  0  0  0  0  0  0  0  0  0
    0.1904    0.5572    0.0000 C   0  0  0  0  0  0  0  0  0  0  0  0
    0.7048    1.2023    0.0000 C   0  0  0  0  0  0  0  0  0  0  0  0
    1.5206    1.0793    0.0000 C   0  0  0  0  0  0  0  0  0  0  0  0
    2.0349    1.7243    0.0000 C   0  0  0  0  0  0  0  0  0  0  0  0
    1.7335    2.4923    0.0000 C   0  0  0  0  0  0  0  0  0  0  0  0
    2.2479    3.1373    0.0000 O   0  0  0  0  0  0  0  0  0  0  0  0
    3.0637    3.0143    0.0000 C   0  0  0  0  0  0  0  0  0  0  0  0
    0.9177    2.6152    0.0000 C   0  0  0  0  0  0  0  0  0  0  0  0
    0.4034    1.9702    0.0000 C   0  0  0  0  0  0  0  0  0  0  0  0
   -0.6139    0.7408    0.0000 S   0  0  0  0  0  0  0  0  0  0  0  0
   -1.2589    0.2264    0.0000 C   0  0  0  0  0  0  0  0  0  0  0  0
   -1.9734    0.6389    0.0000 C   0  0  0  0  0  0  0  0  0  0  0  0
   -2.6879    0.2264    0.0000 C   0  0  0  0  0  0  0  0  0  0  0  0
   -2.6879   -0.5986    0.0000 C   0  0  0  0  0  0  0  0  0  0  0  0
   -1.9734   -1.0111    0.0000 C   0  0  0  0  0  0  0  0  0  0  0  0
   -1.2589   -0.5986    0.0000 C   0  0  0  0  0  0  0  0  0  0  0  0
   -0.6139   -1.1129    0.0000 N   0  0  0  0  0  0  0  0  0  0  0  0
   -0.7975   -1.9173    0.0000 C   0  0  0  0  0  0  0  0  0  0  0  0
   -0.1927   -2.4784    0.0000 C   0  0  0  0  0  0  0  0  0  0  0  0
   -0.3763   -3.2827    0.0000 N   0  0  0  0  0  0  0  0  0  0  0  0
    0.2284   -3.8439    0.0000 C   0  0  0  0  0  0  0  0  0  0  0  0
   -1.1647   -3.5259    0.0000 C   0  0  0  0  0  0  0  0  0  0  0  0
    0.1904   -0.9294    0.0000 C   0  0  0  0  0  0  0  0  0  0  0  0
    0.7048   -1.5744    0.0000 O   0  0  0  0  0  0  0  0  0  0  0  0
  1  2  1  0  0  0  0
  2  3  1  0  0  0  0
  3  4  1  0  0  0  0
  3  5  2  0  0  0  0
  6  1  1  0  0  0  0
  6  7  1  0  0  0  0
  8  7  2  0  0  0  0
  9  8  1  0  0  0  0
 10  9  2  0  0  0  0
 10 11  1  0  0  0  0
 11 12  1  0  0  0  0
 13 10  1  0  0  0  0
 14 13  2  0  0  0  0
  7 14  1  0  0  0  0
 15  6  1  0  0  0  0
 16 15  1  0  0  0  0
 16 17  2  0  0  0  0
 17 18  1  0  0  0  0
 18 19  2  0  0  0  0
 19 20  1  0  0  0  0
 20 21  2  0  0  0  0
 21 16  1  0  0  0  0
 22 21  1  0  0  0  0
 22 23  1  0  0  0  0
 23 24  1  0  0  0  0
 24 25  1  0  0  0  0
 25 26  1  0  0  0  0
 25 27  1  0  0  0  0
 28 22  1  0  0  0  0
  1 28  1  0  0  0  0
 28 29  2  0  0  0  0
M  END
> <ChemID>
10526

> <CAS>
42399-41-7

> <Original_SMILES>
CN(C)CCN1C(=O)[C@H](OC(C)=O)[C@@H](Sc2ccccc12)c1ccc(cc1)OC

> <preferred_name>
(+)-Diltiazem

> <dsstox_substance_id>
DTXSID9022940

> <dsstox_compound_id>
DTXCID202940

> <Canonical_QSARr>
CN(C)CCN1C(=O)C(OC(C)=O)C(SC2=CC=CC=C12)C1C=CC(=CC=1)OC

> <InChI_Code_QSARr>
InChI=1S/C22H26N2O4S/c1-15(25)28-20-21(16-9-11-17(27-4)12-10-16)29-19-8-6-5-7-18(19)24(22(20)26)14-13-23(2)3/h5-12,20-21H,13-14H2,1-4H3

> <InChI Key_QSARr>
HSUGRBWQSSZJOP-UHFFFAOYSA-N

> <Salt_Solvent>


> <Salt_Solvent_ID>
0

> <Clint>
0.6720978579357174

> <Tr_1_Tst_0>
1

$$$$
Row305
  Mrv171c012261910192D          

 17 18  0  0  0  0            999 V2000
    1.3491   -1.9224    0.0000 C   0  0  0  0  0  0  0  0  0  0  0  0
    1.3491   -2.7474    0.0000 N   0  0  0  0  0  0  0  0  0  0  0  0
    0.6347   -3.1599    0.0000 C   0  0  0  0  0  0  0  0  0  0  0  0
    2.0636   -3.1599    0.0000 C   0  0  0  0  0  0  0  0  0  0  0  0
    2.0636   -3.9849    0.0000 O   0  0  0  0  0  0  0  0  0  0  0  0
    2.7781   -2.7474    0.0000 N   0  0  0  0  0  0  0  0  0  0  0  0
    2.7781   -1.9224    0.0000 C   0  0  0  0  0  0  0  0  0  0  0  0
    3.4926   -1.5099    0.0000 O   0  0  0  0  0  0  0  0  0  0  0  0
    2.0636   -1.5099    0.0000 C   0  0  0  0  0  0  0  0  0  0  0  0
    2.4509   -0.7815    0.0000 C   0  0  0  0  0  0  0  0  0  0  0  0
    3.2754   -0.7527    0.0000 C   0  0  0  0  0  0  0  0  0  0  0  0
    3.6627   -0.0243    0.0000 C   0  0  0  0  0  0  0  0  0  0  0  0
    3.2256    0.6754    0.0000 C   0  0  0  0  0  0  0  0  0  0  0  0
    2.4011    0.6466    0.0000 C   0  0  0  0  0  0  0  0  0  0  0  0
    2.0137   -0.0818    0.0000 C   0  0  0  0  0  0  0  0  0  0  0  0
    1.6763   -0.7815    0.0000 C   0  0  0  0  0  0  0  0  0  0  0  0
    0.6347   -1.5099    0.0000 O   0  0  0  0  0  0  0  0  0  0  0  0
  2  1  1  0  0  0  0
  2  3  1  0  0  0  0
  4  2  1  0  0  0  0
  4  5  1  0  0  0  0
  6  4  2  0  0  0  0
  7  6  1  0  0  0  0
  7  8  2  0  0  0  0
  9  7  1  0  0  0  0
  1  9  1  0  0  0  0
  9 10  1  0  0  0  0
 11 10  2  0  0  0  0
 12 11  1  0  0  0  0
 13 12  1  0  0  0  0
 14 13  1  0  0  0  0
 15 14  1  0  0  0  0
 10 15  1  0  0  0  0
  9 16  1  0  0  0  0
  1 17  2  0  0  0  0
M  END
> <ChemID>
10527

> <CAS>
56-29-1

> <Original_SMILES>
CN1C(O)=NC(=O)C(C)(C2CCCCC=2)C1=O

> <preferred_name>
Hexobarbital

> <dsstox_substance_id>
DTXSID9023122

> <dsstox_compound_id>
DTXCID903122

> <Canonical_QSARr>
CN1C(O)=NC(=O)C(C)(C2CCCCC=2)C1=O

> <InChI_Code_QSARr>
InChI=1S/C12H16N2O3/c1-12(8-6-4-3-5-7-8)9(15)13-11(17)14(2)10(12)16/h6H,3-5,7H2,1-2H3,(H,13,15,17)

> <InChI Key_QSARr>
UYXAWHWODHRRMR-UHFFFAOYSA-N

> <Salt_Solvent>


> <Salt_Solvent_ID>
0

> <Clint>
1.2966651902615312

> <Tr_1_Tst_0>
1

$$$$
Row326
  Mrv171c012261910192D          

 21 25  0  0  0  0            999 V2000
    1.5962   -2.0726    0.0000 C   0  0  0  0  0  0  0  0  0  0  0  0
    0.7324   -1.8503    0.0000 C   0  0  0  0  0  0  0  0  0  0  0  0
   -0.0765   -2.3807    0.0000 C   0  0  0  0  0  0  0  0  0  0  0  0
    0.1655   -3.2166    0.0000 N   0  0  0  0  0  0  0  0  0  0  0  0
   -0.4073   -3.8103    0.0000 C   0  0  0  0  0  0  0  0  0  0  0  0
    1.0130   -3.4295    0.0000 C   0  0  0  0  0  0  0  0  0  0  0  0
    1.8089   -3.7497    0.0000 C   0  0  0  0  0  0  0  0  0  0  0  0
    2.5089   -3.2348    0.0000 C   0  0  0  0  0  0  0  0  0  0  0  0
    3.3243   -3.4045    0.0000 C   0  0  0  0  0  0  0  0  0  0  0  0
    3.9069   -2.8065    0.0000 C   0  0  0  0  0  0  0  0  0  0  0  0
    3.6769   -2.0040    0.0000 C   0  0  0  0  0  0  0  0  0  0  0  0
    4.2617   -1.4220    0.0000 O   0  0  0  0  0  0  0  0  0  0  0  0
    2.8788   -1.7712    0.0000 C   0  0  0  0  0  0  0  0  0  0  0  0
    2.4315   -1.0492    0.0000 O   0  0  0  0  0  0  0  0  0  0  0  0
    1.6011   -1.2313    0.0000 C   0  0  0  0  0  0  0  0  0  0  0  0
    0.7796   -0.9847    0.0000 C   0  0  0  0  0  0  0  0  0  0  0  0
    0.6006   -0.1793    0.0000 O   0  0  0  0  0  0  0  0  0  0  0  0
    0.1426   -1.5536    0.0000 C   0  0  0  0  0  0  0  0  0  0  0  0
    0.4649   -2.4112    0.0000 C   0  0  0  0  0  0  0  0  0  0  0  0
    1.2513   -2.6693    0.0000 C   0  0  0  0  0  0  0  0  0  0  0  0
    2.3456   -2.3981    0.0000 C   0  0  0  0  0  0  0  0  0  0  0  0
  2  1  1  0  0  0  0
  3  2  1  0  0  0  0
  4  3  1  0  0  0  0
  4  5  1  0  0  0  0
  6  4  1  0  0  0  0
  6  7  1  0  0  0  0
  7  8  1  0  0  0  0
  8  9  1  0  0  0  0
  9 10  2  0  0  0  0
 10 11  1  0  0  0  0
 11 12  1  0  0  0  0
 11 13  2  0  0  0  0
 13 14  1  0  0  0  0
 14 15  1  0  0  0  0
 15  1  1  0  0  0  0
 15 16  1  0  0  0  0
 16 17  1  0  0  0  0
 16 18  1  0  0  0  0
 18 19  2  0  0  0  0
 19 20  1  0  0  0  0
 20  1  1  0  0  0  0
 20  6  1  0  0  0  0
 13 21  1  0  0  0  0
  1 21  1  0  0  0  0
 21  8  2  0  0  0  0
M  END
> <ChemID>
10528

> <CAS>
57-27-2

> <Original_SMILES>
CN1CC[C@@]23[C@H]4Oc5c2c(C[C@@H]1[C@@H]3C=C[C@@H]4O)ccc5O

> <preferred_name>
Morphine

> <dsstox_substance_id>
DTXSID9023336

> <dsstox_compound_id>
DTXCID203336

> <Canonical_QSARr>
CN1CCC23C4OC5C2=C(CC1C3C=CC4O)C=CC=5O

> <InChI_Code_QSARr>
InChI=1S/C17H19NO3/c1-18-7-6-17-10-3-5-13(20)16(17)21-15-12(19)4-2-9(14(15)17)8-11(10)18/h2-5,10-11,13,16,19-20H,6-8H2,1H3

> <InChI Key_QSARr>
BQJCRHHNABKAKU-UHFFFAOYSA-N

> <Salt_Solvent>


> <Salt_Solvent_ID>
0

> <Clint>
1.380211241711606

> <Tr_1_Tst_0>
1

$$$$
Row66
  Mrv171c012261910192D          

 20 22  0  0  0  0            999 V2000
   -0.0148   -0.9213    0.0000 C   0  0  0  0  0  0  0  0  0  0  0  0
    0.5899   -0.3602    0.0000 C   0  0  0  0  0  0  0  0  0  0  0  0
    1.3783   -0.6033    0.0000 C   0  0  0  0  0  0  0  0  0  0  0  0
    1.8927    0.0417    0.0000 C   0  0  0  0  0  0  0  0  0  0  0  0
    2.7177    0.0417    0.0000 C   0  0  0  0  0  0  0  0  0  0  0  0
    3.2320   -0.6033    0.0000 C   0  0  0  0  0  0  0  0  0  0  0  0
    4.0204   -0.3602    0.0000 C   0  0  0  0  0  0  0  0  0  0  0  0
    4.6252   -0.9213    0.0000 C   0  0  0  0  0  0  0  0  0  0  0  0
    4.4416   -1.7256    0.0000 C   0  0  0  0  0  0  0  0  0  0  0  0
    3.6532   -1.9688    0.0000 C   0  0  0  0  0  0  0  0  0  0  0  0
    3.0485   -1.4076    0.0000 C   0  0  0  0  0  0  0  0  0  0  0  0
    2.3052   -1.7656    0.0000 C   0  0  0  0  0  0  0  0  0  0  0  0
    2.3052   -2.5906    0.0000 C   0  0  0  0  0  0  0  0  0  0  0  0
    3.0196   -3.0031    0.0000 C   0  0  0  0  0  0  0  0  0  0  0  0
    3.7341   -2.5906    0.0000 C   0  0  0  0  0  0  0  0  0  0  0  0
    4.4486   -3.0031    0.0000 N   0  0  0  0  0  0  0  0  0  0  0  0
    5.1631   -2.5906    0.0000 C   0  0  0  0  0  0  0  0  0  0  0  0
    1.5619   -1.4076    0.0000 C   0  0  0  0  0  0  0  0  0  0  0  0
    0.9571   -1.9688    0.0000 C   0  0  0  0  0  0  0  0  0  0  0  0
    0.1688   -1.7256    0.0000 C   0  0  0  0  0  0  0  0  0  0  0  0
  2  1  2  0  0  0  0
  3  2  1  0  0  0  0
  3  4  1  0  0  0  0
  4  5  1  0  0  0  0
  5  6  1  0  0  0  0
  7  6  1  0  0  0  0
  8  7  2  0  0  0  0
  9  8  1  0  0  0  0
 10  9  2  0  0  0  0
 11 10  1  0  0  0  0
  6 11  2  0  0  0  0
 11 12  1  0  0  0  0
 12 13  2  0  0  0  0
 13 14  1  0  0  0  0
 14 15  1  0  0  0  0
 15 16  1  0  0  0  0
 16 17  1  0  0  0  0
 12 18  1  0  0  0  0
 18  3  2  0  0  0  0
 19 18  1  0  0  0  0
 20 19  2  0  0  0  0
  1 20  1  0  0  0  0
M  END
> <ChemID>
10529

> <CAS>
72-69-5

> <Original_SMILES>
CNCCC=C1c2ccccc2CCc2ccccc21

> <preferred_name>
Nortriptyline

> <dsstox_substance_id>
DTXSID9023384

> <dsstox_compound_id>
DTXCID903384

> <Canonical_QSARr>
CNCCC=C1C2C=CC=CC=2CCC2C=CC=CC=21

> <InChI_Code_QSARr>
InChI=1S/C19H21N/c1-20-14-6-11-19-17-9-4-2-7-15(17)12-13-16-8-3-5-10-18(16)19/h2-5,7-11,20H,6,12-14H2,1H3

> <InChI Key_QSARr>
PHVGLTMQBUFIQQ-UHFFFAOYSA-N

> <Salt_Solvent>


> <Salt_Solvent_ID>
0

> <Clint>
-5.0056828473303625

> <Tr_1_Tst_0>
1

$$$$
Row124
  Mrv171c012261910192D          

 16 17  0  0  0  0            999 V2000
    2.2482   -1.5601    0.0000 C   0  0  0  0  0  0  0  0  0  0  0  0
    2.7332   -0.8927    0.0000 C   0  0  0  0  0  0  0  0  0  0  0  0
    3.5178   -1.1476    0.0000 C   0  0  0  0  0  0  0  0  0  0  0  0
    4.2322   -0.7351    0.0000 C   0  0  0  0  0  0  0  0  0  0  0  0
    4.9467   -1.1476    0.0000 C   0  0  0  0  0  0  0  0  0  0  0  0
    4.9467   -1.9726    0.0000 C   0  0  0  0  0  0  0  0  0  0  0  0
    4.2322   -2.3851    0.0000 C   0  0  0  0  0  0  0  0  0  0  0  0
    3.5178   -1.9726    0.0000 C   0  0  0  0  0  0  0  0  0  0  0  0
    2.7332   -2.2276    0.0000 S   0  0  0  0  0  0  0  0  0  0  0  0
    1.4232   -1.5601    0.0000 C   0  0  0  0  0  0  0  0  0  0  0  0
    1.0107   -2.2746    0.0000 N   0  0  0  0  0  0  0  0  0  0  0  0
    0.1857   -2.2746    0.0000 C   0  0  0  0  0  0  0  0  0  0  0  0
   -0.2268   -2.9891    0.0000 N   0  0  0  0  0  0  0  0  0  0  0  0
   -0.2268   -1.5601    0.0000 O   0  0  0  0  0  0  0  0  0  0  0  0
    1.4232   -2.9891    0.0000 O   0  0  0  0  0  0  0  0  0  0  0  0
    1.0107   -0.8457    0.0000 C   0  0  0  0  0  0  0  0  0  0  0  0
  2  1  2  0  0  0  0
  3  2  1  0  0  0  0
  3  4  1  0  0  0  0
  4  5  2  0  0  0  0
  5  6  1  0  0  0  0
  6  7  2  0  0  0  0
  7  8  1  0  0  0  0
  8  3  2  0  0  0  0
  9  8  1  0  0  0  0
  1  9  1  0  0  0  0
  1 10  1  0  0  0  0
 10 11  1  0  0  0  0
 11 12  1  0  0  0  0
 12 13  1  0  0  0  0
 12 14  2  0  0  0  0
 11 15  1  0  0  0  0
 10 16  1  0  0  0  0
M  END
> <ChemID>
10530

> <CAS>
111406-87-2

> <Original_SMILES>
CC(c1cc2ccccc2[s]1)N(O)C(N)=O

> <preferred_name>
Zileuton

> <dsstox_substance_id>
DTXSID9023752

> <dsstox_compound_id>
DTXCID003752

> <Canonical_QSARr>
CC(C1=CC2C=CC=CC=2S1)N(O)C(N)=O

> <InChI_Code_QSARr>
InChI=1S/C11H12N2O2S/c1-7(13(15)11(12)14)10-6-8-4-2-3-5-9(8)16-10/h2-7,15H,1H3,(H2,12,14)

> <InChI Key_QSARr>
MWLSOWXNZPKENC-UHFFFAOYSA-N

> <Salt_Solvent>


> <Salt_Solvent_ID>
0

> <Clint>
0.32221929473391925

> <Tr_1_Tst_0>
1

$$$$
Row472
  Mrv171c012261910192D          

 20 22  0  0  0  0            999 V2000
    4.0157   -1.7302    0.0000 C   0  0  0  0  0  0  0  0  0  0  0  0
    4.7302   -2.1427    0.0000 C   0  0  0  0  0  0  0  0  0  0  0  0
    4.7302   -2.9677    0.0000 C   0  0  0  0  0  0  0  0  0  0  0  0
    5.4446   -3.3802    0.0000 C   0  0  0  0  0  0  0  0  0  0  0  0
    6.1591   -2.9677    0.0000 C   0  0  0  0  0  0  0  0  0  0  0  0
    6.1591   -2.1427    0.0000 C   0  0  0  0  0  0  0  0  0  0  0  0
    5.4446   -1.7302    0.0000 C   0  0  0  0  0  0  0  0  0  0  0  0
    5.4446   -0.9052    0.0000 Cl  0  0  0  0  0  0  0  0  0  0  0  0
    4.0157   -0.9052    0.0000 N   0  0  0  0  0  0  0  0  0  0  0  0
    3.3012   -0.4927    0.0000 N   0  0  0  0  0  0  0  0  0  0  0  0
    2.5867   -0.9052    0.0000 C   0  0  0  0  0  0  0  0  0  0  0  0
    1.8723   -0.4927    0.0000 C   0  0  0  0  0  0  0  0  0  0  0  0
    1.8723    0.3323    0.0000 C   0  0  0  0  0  0  0  0  0  0  0  0
    1.1578    0.7448    0.0000 C   0  0  0  0  0  0  0  0  0  0  0  0
    0.4433    0.3323    0.0000 C   0  0  0  0  0  0  0  0  0  0  0  0
    0.4433   -0.4927    0.0000 C   0  0  0  0  0  0  0  0  0  0  0  0
    1.1578   -0.9052    0.0000 C   0  0  0  0  0  0  0  0  0  0  0  0
    1.1578   -1.7302    0.0000 Cl  0  0  0  0  0  0  0  0  0  0  0  0
    2.5867   -1.7302    0.0000 N   0  0  0  0  0  0  0  0  0  0  0  0
    3.3012   -2.1427    0.0000 N   0  0  0  0  0  0  0  0  0  0  0  0
  1  2  1  0  0  0  0
  3  2  2  0  0  0  0
  4  3  1  0  0  0  0
  5  4  2  0  0  0  0
  6  5  1  0  0  0  0
  7  6  2  0  0  0  0
  2  7  1  0  0  0  0
  7  8  1  0  0  0  0
  9  1  2  0  0  0  0
 10  9  1  0  0  0  0
 11 10  2  0  0  0  0
 11 12  1  0  0  0  0
 13 12  1  0  0  0  0
 14 13  2  0  0  0  0
 15 14  1  0  0  0  0
 16 15  2  0  0  0  0
 17 16  1  0  0  0  0
 12 17  2  0  0  0  0
 17 18  1  0  0  0  0
 19 11  1  0  0  0  0
 20 19  2  0  0  0  0
  1 20  1  0  0  0  0
M  END
> <ChemID>
10531

> <CAS>
74115-24-5

> <Original_SMILES>
Clc1ccccc1-c1[n][n]c([n][n]1)-c1ccccc1Cl

> <preferred_name>
Clofentezine

> <dsstox_substance_id>
DTXSID9023881

> <dsstox_compound_id>
DTXCID703881

> <Canonical_QSARr>
ClC1C=CC=CC=1C1N=NC(=NN=1)C1=CC=CC=C1Cl

> <InChI_Code_QSARr>
InChI=1S/C14H8Cl2N4/c15-11-7-3-1-5-9(11)13-17-19-14(20-18-13)10-6-2-4-8-12(10)16/h1-8H

> <InChI Key_QSARr>
UXADOQPNKNTIHB-UHFFFAOYSA-N

> <Salt_Solvent>


> <Salt_Solvent_ID>
0

> <Clint>
0.7347998295888468

> <Tr_1_Tst_0>
0

$$$$
Row118
  Mrv171c012261910192D          

 15 14  0  0  0  0            999 V2000
    1.2375   -0.7145    0.0000 C   0  0  0  0  0  0  0  0  0  0  0  0
    0.8250    0.0000    0.0000 C   0  0  0  0  0  0  0  0  0  0  0  0
    0.0000    0.0000    0.0000 C   0  0  0  0  0  0  0  0  0  0  0  0
   -0.4125   -0.7145    0.0000 C   0  0  0  0  0  0  0  0  0  0  0  0
    0.0000   -1.4289    0.0000 O   0  0  0  0  0  0  0  0  0  0  0  0
   -1.2375   -0.7145    0.0000 N   0  0  0  0  0  0  0  0  0  0  0  0
   -1.6500   -1.4289    0.0000 C   0  0  0  0  0  0  0  0  0  0  0  0
   -1.6500   -0.0000    0.0000 C   0  0  0  0  0  0  0  0  0  0  0  0
    1.2375    0.7145    0.0000 O   0  0  0  0  0  0  0  0  0  0  0  0
    2.0625    0.7145    0.0000 P   0  0  0  0  0  0  0  0  0  0  0  0
    2.0625   -0.1105    0.0000 O   0  0  0  0  0  0  0  0  0  0  0  0
    2.8875    0.7145    0.0000 O   0  0  0  0  0  0  0  0  0  0  0  0
    3.3000    1.4289    0.0000 C   0  0  0  0  0  0  0  0  0  0  0  0
    2.0625    1.5395    0.0000 O   0  0  0  0  0  0  0  0  0  0  0  0
    2.7770    1.9520    0.0000 C   0  0  0  0  0  0  0  0  0  0  0  0
  1  2  1  0  0  0  0
  2  3  2  0  0  0  0
  3  4  1  4  0  0  0
  4  5  2  0  0  0  0
  4  6  1  0  0  0  0
  6  7  1  0  0  0  0
  6  8  1  0  0  0  0
  2  9  1  0  0  0  0
  9 10  1  0  0  0  0
 10 11  2  0  0  0  0
 10 12  1  0  0  0  0
 12 13  1  0  0  0  0
 10 14  1  0  0  0  0
 14 15  1  0  0  0  0
M  END
> <ChemID>
10532

> <CAS>
141-66-2

> <Original_SMILES>
C/C(=C\C(=O)N(C)C)/OP(=O)(OC)OC

> <preferred_name>
Dicrotophos

> <dsstox_substance_id>
DTXSID9023914

> <dsstox_compound_id>
DTXCID003914

> <Canonical_QSARr>
CC(=CC(=O)N(C)C)OP(=O)(OC)OC

> <InChI_Code_QSARr>
InChI=1S/C8H16NO5P/c1-7(6-8(10)9(2)3)14-15(11,12-4)13-5/h6H,1-5H3

> <InChI Key_QSARr>
VEENJGZXVHKXNB-UHFFFAOYSA-N

> <Salt_Solvent>


> <Salt_Solvent_ID>
0

> <Clint>
0.2764618041732441

> <Tr_1_Tst_0>
1

$$$$
Row309
  Mrv171c012261910192D          

  9  9  0  0  0  0            999 V2000
    2.1401   -1.2328    0.0000 C   0  0  0  0  0  0  0  0  0  0  0  0
    2.8545   -0.8203    0.0000 C   0  0  0  0  0  0  0  0  0  0  0  0
    1.4256   -0.8203    0.0000 C   0  0  0  0  0  0  0  0  0  0  0  0
    1.4256    0.0047    0.0000 O   0  0  0  0  0  0  0  0  0  0  0  0
    0.7111   -1.2328    0.0000 C   0  0  0  0  0  0  0  0  0  0  0  0
   -0.0034   -0.8203    0.0000 C   0  0  0  0  0  0  0  0  0  0  0  0
    0.7111   -2.0578    0.0000 C   0  0  0  0  0  0  0  0  0  0  0  0
    1.4256   -2.4703    0.0000 C   0  0  0  0  0  0  0  0  0  0  0  0
    2.1401   -2.0578    0.0000 C   0  0  0  0  0  0  0  0  0  0  0  0
  1  2  1  0  0  0  0
  3  1  2  0  0  0  0
  3  4  1  0  0  0  0
  5  3  1  0  0  0  0
  5  6  1  0  0  0  0
  7  5  2  0  0  0  0
  8  7  1  0  0  0  0
  9  8  2  0  0  0  0
  1  9  1  0  0  0  0
M  END
> <ChemID>
10533

> <CAS>
576-26-1

> <Original_SMILES>
Cc1cccc(C)c1O

> <preferred_name>
2,6-Dimethylphenol

> <dsstox_substance_id>
DTXSID9024063

> <dsstox_compound_id>
DTXCID404063

> <Canonical_QSARr>
CC1C=CC=C(C)C=1O

> <InChI_Code_QSARr>
InChI=1S/C8H10O/c1-6-4-3-5-7(2)8(6)9/h3-5,9H,1-2H3

> <InChI Key_QSARr>
NXXYKOUNUYWIHA-UHFFFAOYSA-N

> <Salt_Solvent>


> <Salt_Solvent_ID>
0

> <Clint>
1.3121773564397785

> <Tr_1_Tst_0>
1

$$$$
Row243
  Mrv171c012261910192D          

 22 22  0  0  0  0            999 V2000
    0.0000   -2.4750    0.0000 C   0  0  0  0  0  0  0  0  0  0  0  0
    0.0000   -1.6500    0.0000 C   0  0  0  0  0  0  0  0  0  0  0  0
   -0.7145   -1.2375    0.0000 C   0  0  0  0  0  0  0  0  0  0  0  0
   -1.4289   -1.6500    0.0000 C   0  0  0  0  0  0  0  0  0  0  0  0
   -1.4289   -2.4750    0.0000 C   0  0  0  0  0  0  0  0  0  0  0  0
   -2.1434   -2.8875    0.0000 C   0  0  0  0  0  0  0  0  0  0  0  0
   -2.1434   -3.7125    0.0000 O   0  0  0  0  0  0  0  0  0  0  0  0
   -2.8579   -2.4750    0.0000 C   0  0  0  0  0  0  0  0  0  0  0  0
   -3.5724   -2.8875    0.0000 C   0  0  0  0  0  0  0  0  0  0  0  0
   -3.5724   -3.7125    0.0000 C   0  0  0  0  0  0  0  0  0  0  0  0
   -2.8579   -4.1250    0.0000 C   0  0  0  0  0  0  0  0  0  0  0  0
   -2.8579   -4.9500    0.0000 C   0  0  0  0  0  0  0  0  0  0  0  0
   -4.2868   -2.4750    0.0000 N   0  0  0  0  0  0  0  0  0  0  0  0
   -5.0013   -2.8875    0.0000 O   0  0  0  0  0  0  0  0  0  0  0  0
   -5.7158   -2.4750    0.0000 C   0  0  0  0  0  0  0  0  0  0  0  0
   -6.4302   -2.8875    0.0000 C   0  0  0  0  0  0  0  0  0  0  0  0
   -2.8579   -1.6500    0.0000 C   0  0  0  0  0  0  0  0  0  0  0  0
   -3.5724   -1.2375    0.0000 O   0  0  0  0  0  0  0  0  0  0  0  0
   -2.1434   -1.2375    0.0000 C   0  0  0  0  0  0  0  0  0  0  0  0
    0.7145   -1.2375    0.0000 S   0  0  0  0  0  0  0  0  0  0  0  0
    1.4289   -1.6500    0.0000 C   0  0  0  0  0  0  0  0  0  0  0  0
    2.1434   -1.2375    0.0000 C   0  0  0  0  0  0  0  0  0  0  0  0
  1  2  1  0  0  0  0
  2  3  1  0  0  0  0
  3  4  1  0  0  0  0
  4  5  1  0  0  0  0
  5  6  1  0  0  0  0
  6  7  2  0  0  0  0
  6  8  1  0  0  0  0
  8  9  1  0  0  0  0
  9 10  1  0  0  0  0
 10 11  1  0  0  0  0
 11 12  1  0  0  0  0
  9 13  2  0  0  0  0
 13 14  1  4  0  0  0
 14 15  1  0  0  0  0
 15 16  1  0  0  0  0
  8 17  1  0  0  0  0
 17 18  2  0  0  0  0
 17 19  1  0  0  0  0
  4 19  1  0  0  0  0
  2 20  1  0  0  0  0
 20 21  1  0  0  0  0
 21 22  1  0  0  0  0
M  END
> <ChemID>
10534

> <CAS>
74051-80-2

> <Original_SMILES>
CC(CC1CC(O)=C(C(=O)C1)C(CCC)=NOCC)SCC

> <preferred_name>
Sethoxydim

> <dsstox_substance_id>
DTXSID9024304

> <dsstox_compound_id>
DTXCID604304

> <Canonical_QSARr>
CC(CC1CC(=O)C(C(CCC)=NOCC)C(=O)C1)SCC

> <InChI_Code_QSARr>
InChI=1S/C17H29NO3S/c1-5-8-14(18-21-6-2)17-15(19)10-13(11-16(17)20)9-12(4)22-7-3/h12-13,17H,5-11H2,1-4H3

> <InChI Key_QSARr>
NMHGOXYVOKDNHF-UHFFFAOYSA-N

> <Salt_Solvent>


> <Salt_Solvent_ID>
0

> <Clint>
1.074450718954591

> <Tr_1_Tst_0>
1

$$$$
Row175
  Mrv171c012261910192D          

 20 19  0  0  0  0            999 V2000
    4.5936   -3.9095    0.0000 O   0  0  0  0  0  0  0  0  0  0  0  0
    4.1811   -4.6240    0.0000 P   0  0  0  0  0  0  0  0  0  0  0  0
    3.4667   -4.2115    0.0000 O   0  0  0  0  0  0  0  0  0  0  0  0
    3.4667   -3.3865    0.0000 C   0  0  0  0  0  0  0  0  0  0  0  0
    4.1811   -2.9740    0.0000 C   0  0  0  0  0  0  0  0  0  0  0  0
    4.1811   -2.1490    0.0000 Cl  0  0  0  0  0  0  0  0  0  0  0  0
    2.7522   -2.9740    0.0000 C   0  0  0  0  0  0  0  0  0  0  0  0
    2.7522   -2.1490    0.0000 Cl  0  0  0  0  0  0  0  0  0  0  0  0
    4.8956   -5.0365    0.0000 O   0  0  0  0  0  0  0  0  0  0  0  0
    5.6101   -4.6240    0.0000 C   0  0  0  0  0  0  0  0  0  0  0  0
    6.3245   -5.0365    0.0000 C   0  0  0  0  0  0  0  0  0  0  0  0
    7.0390   -4.6240    0.0000 Cl  0  0  0  0  0  0  0  0  0  0  0  0
    5.6101   -3.7990    0.0000 C   0  0  0  0  0  0  0  0  0  0  0  0
    6.3245   -3.3865    0.0000 Cl  0  0  0  0  0  0  0  0  0  0  0  0
    3.7686   -5.3385    0.0000 O   0  0  0  0  0  0  0  0  0  0  0  0
    2.9436   -5.3385    0.0000 C   0  0  0  0  0  0  0  0  0  0  0  0
    2.5311   -4.6240    0.0000 C   0  0  0  0  0  0  0  0  0  0  0  0
    2.9436   -3.9095    0.0000 Cl  0  0  0  0  0  0  0  0  0  0  0  0
    2.5311   -6.0530    0.0000 C   0  0  0  0  0  0  0  0  0  0  0  0
    1.7061   -6.0530    0.0000 Cl  0  0  0  0  0  0  0  0  0  0  0  0
  1  2  2  0  0  0  0
  2  3  1  0  0  0  0
  3  4  1  0  0  0  0
  4  5  1  0  0  0  0
  5  6  1  0  0  0  0
  4  7  1  0  0  0  0
  7  8  1  0  0  0  0
  2  9  1  0  0  0  0
  9 10  1  0  0  0  0
 10 11  1  0  0  0  0
 11 12  1  0  0  0  0
 10 13  1  0  0  0  0
 13 14  1  0  0  0  0
  2 15  1  0  0  0  0
 15 16  1  0  0  0  0
 16 17  1  0  0  0  0
 17 18  1  0  0  0  0
 16 19  1  0  0  0  0
 19 20  1  0  0  0  0
M  END
> <ChemID>
10535

> <CAS>
13674-87-8

> <Original_SMILES>
O=P(OC(CCl)CCl)(OC(CCl)CCl)OC(CCl)CCl

> <preferred_name>
Tris(1,3-dichloro-2-propyl) phosphate

> <dsstox_substance_id>
DTXSID9026261

> <dsstox_compound_id>
DTXCID206261

> <Canonical_QSARr>
O=P(OC(CCl)CCl)(OC(CCl)CCl)OC(CCl)CCl

> <InChI_Code_QSARr>
InChI=1S/C9H15Cl6O4P/c10-1-7(2-11)17-20(16,18-8(3-12)4-13)19-9(5-14)6-15/h7-9H,1-6H2

> <InChI Key_QSARr>
ASLWPAWFJZFCKF-UHFFFAOYSA-N

> <Salt_Solvent>


> <Salt_Solvent_ID>
0

> <Clint>
0.7068883949816177

> <Tr_1_Tst_0>
1

$$$$
Row378
  Mrv171c012261910192D          

 24 25  0  0  0  0            999 V2000
    4.2846   -2.8208    0.0000 C   0  0  0  0  0  0  0  0  0  0  0  0
    3.5701   -2.4083    0.0000 C   0  0  0  0  0  0  0  0  0  0  0  0
    3.5701   -1.5833    0.0000 C   0  0  0  0  0  0  0  0  0  0  0  0
    2.8557   -1.1708    0.0000 C   0  0  0  0  0  0  0  0  0  0  0  0
    2.1412   -1.5833    0.0000 C   0  0  0  0  0  0  0  0  0  0  0  0
    2.1412   -2.4083    0.0000 C   0  0  0  0  0  0  0  0  0  0  0  0
    2.8557   -2.8208    0.0000 C   0  0  0  0  0  0  0  0  0  0  0  0
    4.9991   -2.4083    0.0000 C   0  0  0  0  0  0  0  0  0  0  0  0
    5.7136   -2.8208    0.0000 C   0  0  0  0  0  0  0  0  0  0  0  0
    6.4280   -2.4083    0.0000 C   0  0  0  0  0  0  0  0  0  0  0  0
    6.4280   -1.5833    0.0000 C   0  0  0  0  0  0  0  0  0  0  0  0
    7.1425   -1.1708    0.0000 O   0  0  0  0  0  0  0  0  0  0  0  0
    7.8570   -1.5833    0.0000 C   0  0  0  0  0  0  0  0  0  0  0  0
    8.5714   -1.1708    0.0000 C   0  0  0  0  0  0  0  0  0  0  0  0
    9.2859   -1.5833    0.0000 C   0  0  0  0  0  0  0  0  0  0  0  0
   10.0004   -1.1708    0.0000 C   0  0  0  0  0  0  0  0  0  0  0  0
   10.7148   -1.5833    0.0000 C   0  0  0  0  0  0  0  0  0  0  0  0
   11.4293   -1.1708    0.0000 C   0  0  0  0  0  0  0  0  0  0  0  0
   12.1438   -1.5833    0.0000 C   0  0  0  0  0  0  0  0  0  0  0  0
   12.8583   -1.1708    0.0000 C   0  0  0  0  0  0  0  0  0  0  0  0
    5.7136   -1.1708    0.0000 C   0  0  0  0  0  0  0  0  0  0  0  0
    4.9991   -1.5833    0.0000 C   0  0  0  0  0  0  0  0  0  0  0  0
    4.2846   -1.1708    0.0000 O   0  0  0  0  0  0  0  0  0  0  0  0
    4.2846   -3.6458    0.0000 O   0  0  0  0  0  0  0  0  0  0  0  0
  1  2  1  0  0  0  0
  3  2  1  0  0  0  0
  4  3  2  0  0  0  0
  5  4  1  0  0  0  0
  6  5  2  0  0  0  0
  7  6  1  0  0  0  0
  2  7  2  0  0  0  0
  1  8  1  0  0  0  0
  9  8  1  0  0  0  0
 10  9  2  0  0  0  0
 11 10  1  0  0  0  0
 11 12  1  0  0  0  0
 12 13  1  0  0  0  0
 13 14  1  0  0  0  0
 14 15  1  0  0  0  0
 15 16  1  0  0  0  0
 16 17  1  0  0  0  0
 17 18  1  0  0  0  0
 18 19  1  0  0  0  0
 19 20  1  0  0  0  0
 21 11  2  0  0  0  0
 22 21  1  0  0  0  0
  8 22  2  0  0  0  0
 22 23  1  0  0  0  0
  1 24  2  0  0  0  0
M  END
> <ChemID>
10536

> <CAS>
1843-05-6

> <Original_SMILES>
CCCCCCCCOc1cc(O)c(cc1)C(=O)c1ccccc1

> <preferred_name>
Octabenzone

> <dsstox_substance_id>
DTXSID9027441

> <dsstox_compound_id>
DTXCID107441

> <Canonical_QSARr>
CCCCCCCCOC1=CC(O)=C(C=C1)C(=O)C1C=CC=CC=1

> <InChI_Code_QSARr>
InChI=1S/C21H26O3/c1-2-3-4-5-6-10-15-24-18-13-14-19(20(22)16-18)21(23)17-11-8-7-9-12-17/h7-9,11-14,16,22H,2-6,10,15H2,1H3

> <InChI Key_QSARr>
QUAMTGJKVDWJEQ-UHFFFAOYSA-N

> <Salt_Solvent>


> <Salt_Solvent_ID>
0

> <Clint>
1.7087607236903166

> <Tr_1_Tst_0>
1

$$$$
Row227
  Mrv171c012261910192D          

 24 26  0  0  0  0            999 V2000
    2.0394   -1.4168    0.0000 C   0  0  0  0  0  0  0  0  0  0  0  0
    1.2144   -1.4168    0.0000 C   0  0  0  0  0  0  0  0  0  0  0  0
    0.8019   -2.1313    0.0000 C   0  0  0  0  0  0  0  0  0  0  0  0
    1.2144   -2.8457    0.0000 C   0  0  0  0  0  0  0  0  0  0  0  0
    0.8019   -3.5602    0.0000 C   0  0  0  0  0  0  0  0  0  0  0  0
    1.5164   -3.9727    0.0000 C   0  0  0  0  0  0  0  0  0  0  0  0
    0.0874   -3.1477    0.0000 C   0  0  0  0  0  0  0  0  0  0  0  0
    0.3894   -4.2747    0.0000 C   0  0  0  0  0  0  0  0  0  0  0  0
   -0.4356   -4.2747    0.0000 C   0  0  0  0  0  0  0  0  0  0  0  0
   -1.2606   -4.2747    0.0000 C   0  0  0  0  0  0  0  0  0  0  0  0
   -0.4356   -5.0997    0.0000 C   0  0  0  0  0  0  0  0  0  0  0  0
   -0.4356   -3.4497    0.0000 C   0  0  0  0  0  0  0  0  0  0  0  0
    2.0394   -2.8457    0.0000 C   0  0  0  0  0  0  0  0  0  0  0  0
    2.4519   -2.1313    0.0000 C   0  0  0  0  0  0  0  0  0  0  0  0
    3.2769   -2.1313    0.0000 N   0  0  0  0  0  0  0  0  0  0  0  0
    3.7618   -1.4638    0.0000 N   0  0  0  0  0  0  0  0  0  0  0  0
    4.5464   -1.7188    0.0000 C   0  0  0  0  0  0  0  0  0  0  0  0
    5.2609   -1.3063    0.0000 C   0  0  0  0  0  0  0  0  0  0  0  0
    5.9754   -1.7188    0.0000 C   0  0  0  0  0  0  0  0  0  0  0  0
    5.9754   -2.5438    0.0000 C   0  0  0  0  0  0  0  0  0  0  0  0
    5.2609   -2.9563    0.0000 C   0  0  0  0  0  0  0  0  0  0  0  0
    4.5464   -2.5438    0.0000 C   0  0  0  0  0  0  0  0  0  0  0  0
    3.7618   -2.7987    0.0000 N   0  0  0  0  0  0  0  0  0  0  0  0
    2.4519   -0.7023    0.0000 O   0  0  0  0  0  0  0  0  0  0  0  0
  2  1  1  0  0  0  0
  3  2  2  0  0  0  0
  4  3  1  0  0  0  0
  4  5  1  0  0  0  0
  5  6  1  0  0  0  0
  5  7  1  0  0  0  0
  5  8  1  0  0  0  0
  8  9  1  0  0  0  0
  9 10  1  0  0  0  0
  9 11  1  0  0  0  0
  9 12  1  0  0  0  0
 13  4  2  0  0  0  0
 14 13  1  0  0  0  0
  1 14  2  0  0  0  0
 14 15  1  0  0  0  0
 16 15  1  0  0  0  0
 17 16  2  0  0  0  0
 17 18  1  0  0  0  0
 18 19  2  0  0  0  0
 19 20  1  0  0  0  0
 20 21  2  0  0  0  0
 21 22  1  0  0  0  0
 22 17  1  0  0  0  0
 23 22  2  0  0  0  0
 15 23  1  0  0  0  0
  1 24  1  0  0  0  0
M  END
> <ChemID>
10537

> <CAS>
3147-75-9

> <Original_SMILES>
CC(C)(C)CC(C)(C)c1cc(c(O)cc1)-[n]1[n]c2ccccc2[n]1

> <preferred_name>
Octrizole

> <dsstox_substance_id>
DTXSID9027522

> <dsstox_compound_id>
DTXCID107522

> <Canonical_QSARr>
CC(C)(C)CC(C)(C)C1=CC(=C(O)C=C1)N1N=C2C=CC=CC2=N1

> <InChI_Code_QSARr>
InChI=1S/C20H25N3O/c1-19(2,3)13-20(4,5)14-10-11-18(24)17(12-14)23-21-15-8-6-7-9-16(15)22-23/h6-12,24H,13H2,1-5H3

> <InChI Key_QSARr>
IYAZLDLPUNDVAG-UHFFFAOYSA-N

> <Salt_Solvent>


> <Salt_Solvent_ID>
0

> <Clint>
0.9913146981766108

> <Tr_1_Tst_0>
1

$$$$
Row178
  Mrv171c012261910192D          

 21 22  0  0  0  0            999 V2000
    3.2789   -0.4833    0.0000 C   0  0  0  0  0  0  0  0  0  0  0  0
    3.9934   -0.0708    0.0000 C   0  0  0  0  0  0  0  0  0  0  0  0
    4.7079   -0.4833    0.0000 C   0  0  0  0  0  0  0  0  0  0  0  0
    5.4223   -0.0708    0.0000 C   0  0  0  0  0  0  0  0  0  0  0  0
    5.4223    0.7542    0.0000 C   0  0  0  0  0  0  0  0  0  0  0  0
    6.1368    1.1667    0.0000 Cl  0  0  0  0  0  0  0  0  0  0  0  0
    4.7079    1.1667    0.0000 C   0  0  0  0  0  0  0  0  0  0  0  0
    3.9934    0.7542    0.0000 C   0  0  0  0  0  0  0  0  0  0  0  0
    3.2789   -1.3083    0.0000 C   0  0  0  0  0  0  0  0  0  0  0  0
    2.5644   -1.7208    0.0000 C   0  0  0  0  0  0  0  0  0  0  0  0
    1.8500   -2.1333    0.0000 C   0  0  0  0  0  0  0  0  0  0  0  0
    1.8500   -2.9583    0.0000 N   0  0  0  0  0  0  0  0  0  0  0  0
    1.1825   -3.4432    0.0000 C   0  0  0  0  0  0  0  0  0  0  0  0
    1.4375   -4.2279    0.0000 N   0  0  0  0  0  0  0  0  0  0  0  0
    2.2625   -4.2279    0.0000 C   0  0  0  0  0  0  0  0  0  0  0  0
    2.5174   -3.4432    0.0000 N   0  0  0  0  0  0  0  0  0  0  0  0
    2.1519   -1.0063    0.0000 O   0  0  0  0  0  0  0  0  0  0  0  0
    2.9769   -2.4353    0.0000 C   0  0  0  0  0  0  0  0  0  0  0  0
    3.3894   -3.1498    0.0000 C   0  0  0  0  0  0  0  0  0  0  0  0
    2.2625   -2.8478    0.0000 C   0  0  0  0  0  0  0  0  0  0  0  0
    3.6914   -2.0228    0.0000 C   0  0  0  0  0  0  0  0  0  0  0  0
  1  2  1  0  0  0  0
  3  2  1  0  0  0  0
  4  3  2  0  0  0  0
  5  4  1  0  0  0  0
  5  6  1  0  0  0  0
  7  5  2  0  0  0  0
  8  7  1  0  0  0  0
  2  8  2  0  0  0  0
  1  9  1  0  0  0  0
  9 10  1  0  0  0  0
 10 11  1  0  0  0  0
 11 12  1  0  0  0  0
 13 12  1  0  0  0  0
 14 13  2  0  0  0  0
 15 14  1  0  0  0  0
 16 15  2  0  0  0  0
 12 16  1  0  0  0  0
 10 17  1  0  0  0  0
 10 18  1  0  0  0  0
 18 19  1  0  0  0  0
 18 20  1  0  0  0  0
 18 21  1  0  0  0  0
M  END
> <ChemID>
10538

> <CAS>
107534-96-3

> <Original_SMILES>
CC(C)(C)C(O)(C[n]1c[n]c[n]1)CCc1ccc(Cl)cc1

> <preferred_name>
Tebuconazole

> <dsstox_substance_id>
DTXSID9032113

> <dsstox_compound_id>
DTXCID7012113

> <Canonical_QSARr>
CC(C)(C)C(O)(CN1C=NC=N1)CCC1C=CC(Cl)=CC=1

> <InChI_Code_QSARr>
InChI=1S/C16H22ClN3O/c1-15(2,3)16(21,10-20-12-18-11-19-20)9-8-13-4-6-14(17)7-5-13/h4-7,11-12,21H,8-10H2,1-3H3

> <InChI Key_QSARr>
PXMNMQRDXWABCY-UHFFFAOYSA-N

> <Salt_Solvent>


> <Salt_Solvent_ID>
0

> <Clint>
0.7224693858840308

> <Tr_1_Tst_0>
1

$$$$
Row517
  Mrv171c012261910192D          

 16 17  0  0  0  0            999 V2000
    0.6888   -1.6016    0.0000 O   0  0  0  0  0  0  0  0  0  0  0  0
    1.4734   -1.8565    0.0000 C   0  0  0  0  0  0  0  0  0  0  0  0
    2.1879   -1.4440    0.0000 C   0  0  0  0  0  0  0  0  0  0  0  0
    2.1879   -0.6190    0.0000 O   0  0  0  0  0  0  0  0  0  0  0  0
    2.9023   -0.2065    0.0000 C   0  0  0  0  0  0  0  0  0  0  0  0
    2.9023    0.6185    0.0000 N   0  0  0  0  0  0  0  0  0  0  0  0
    3.6168    1.0310    0.0000 C   0  0  0  0  0  0  0  0  0  0  0  0
    3.6168   -0.6190    0.0000 O   0  0  0  0  0  0  0  0  0  0  0  0
    2.9023   -1.8565    0.0000 C   0  0  0  0  0  0  0  0  0  0  0  0
    2.9023   -2.6815    0.0000 C   0  0  0  0  0  0  0  0  0  0  0  0
    2.1879   -3.0940    0.0000 C   0  0  0  0  0  0  0  0  0  0  0  0
    1.4734   -2.6815    0.0000 C   0  0  0  0  0  0  0  0  0  0  0  0
    0.6888   -2.9365    0.0000 O   0  0  0  0  0  0  0  0  0  0  0  0
    0.2039   -2.2690    0.0000 C   0  0  0  0  0  0  0  0  0  0  0  0
   -0.5149   -2.6740    0.0000 C   0  0  0  0  0  0  0  0  0  0  0  0
   -0.5149   -1.8640    0.0000 C   0  0  0  0  0  0  0  0  0  0  0  0
  2  1  1  0  0  0  0
  2  3  1  0  0  0  0
  3  4  1  0  0  0  0
  4  5  1  0  0  0  0
  5  6  1  0  0  0  0
  6  7  1  0  0  0  0
  5  8  2  0  0  0  0
  3  9  2  0  0  0  0
  9 10  1  0  0  0  0
 10 11  2  0  0  0  0
 11 12  1  0  0  0  0
 12  2  2  0  0  0  0
 13 12  1  0  0  0  0
 14 13  1  0  0  0  0
  1 14  1  0  0  0  0
 14 15  1  0  0  0  0
 14 16  1  0  0  0  0
M  END
> <ChemID>
10539

> <CAS>
22781-23-3

> <Original_SMILES>
CNC(=O)Oc1cccc2OC(C)(C)Oc21

> <preferred_name>
Bendiocarb

> <dsstox_substance_id>
DTXSID9032327

> <dsstox_compound_id>
DTXCID7012327

> <Canonical_QSARr>
CC1(C)OC2C=CC=C(OC(=O)NC)C=2O1

> <InChI_Code_QSARr>
InChI=1S/C11H13NO4/c1-11(2)15-8-6-4-5-7(9(8)16-11)14-10(13)12-3/h4-6H,1-3H3,(H,12,13)

> <InChI Key_QSARr>
XEGGRYVFLWGFHI-UHFFFAOYSA-N

> <Salt_Solvent>


> <Salt_Solvent_ID>
0

> <Clint>
1.3356584522893014

> <Tr_1_Tst_0>
0

$$$$
Row408
  Mrv171c012261910192D          

 23 23  0  0  0  0            999 V2000
    4.8556    0.0363    0.0000 P   0  0  0  0  0  0  0  0  0  0  0  0
    4.8556   -0.7887    0.0000 S   0  0  0  0  0  0  0  0  0  0  0  0
    4.1411   -1.2012    0.0000 C   0  0  0  0  0  0  0  0  0  0  0  0
    4.1411   -2.0262    0.0000 C   0  0  0  0  0  0  0  0  0  0  0  0
    3.4267   -2.4387    0.0000 N   0  0  0  0  0  0  0  0  0  0  0  0
    3.4267   -3.2637    0.0000 S   0  0  0  0  0  0  0  0  0  0  0  0
    3.4267   -4.0887    0.0000 C   0  0  0  0  0  0  0  0  0  0  0  0
    2.7122   -4.5012    0.0000 C   0  0  0  0  0  0  0  0  0  0  0  0
    2.7122   -5.3262    0.0000 C   0  0  0  0  0  0  0  0  0  0  0  0
    3.4267   -5.7387    0.0000 C   0  0  0  0  0  0  0  0  0  0  0  0
    4.1411   -5.3262    0.0000 C   0  0  0  0  0  0  0  0  0  0  0  0
    4.1411   -4.5012    0.0000 C   0  0  0  0  0  0  0  0  0  0  0  0
    4.2517   -3.2637    0.0000 O   0  0  0  0  0  0  0  0  0  0  0  0
    2.6017   -3.2637    0.0000 O   0  0  0  0  0  0  0  0  0  0  0  0
    5.6806    0.0363    0.0000 S   0  0  0  0  0  0  0  0  0  0  0  0
    4.8556    0.8613    0.0000 O   0  0  0  0  0  0  0  0  0  0  0  0
    5.5701    1.2738    0.0000 C   0  0  0  0  0  0  0  0  0  0  0  0
    5.5701    2.0988    0.0000 C   0  0  0  0  0  0  0  0  0  0  0  0
    6.2845    0.8613    0.0000 C   0  0  0  0  0  0  0  0  0  0  0  0
    4.0306    0.0363    0.0000 O   0  0  0  0  0  0  0  0  0  0  0  0
    3.6181    0.7508    0.0000 C   0  0  0  0  0  0  0  0  0  0  0  0
    4.0306    1.4653    0.0000 C   0  0  0  0  0  0  0  0  0  0  0  0
    2.7931    0.7508    0.0000 C   0  0  0  0  0  0  0  0  0  0  0  0
  1  2  1  0  0  0  0
  2  3  1  0  0  0  0
  3  4  1  0  0  0  0
  4  5  1  0  0  0  0
  5  6  1  0  0  0  0
  6  7  1  0  0  0  0
  8  7  1  0  0  0  0
  9  8  2  0  0  0  0
 10  9  1  0  0  0  0
 11 10  2  0  0  0  0
 12 11  1  0  0  0  0
  7 12  2  0  0  0  0
  6 13  2  0  0  0  0
  6 14  2  0  0  0  0
  1 15  2  0  0  0  0
  1 16  1  0  0  0  0
 16 17  1  0  0  0  0
 17 18  1  0  0  0  0
 17 19  1  0  0  0  0
  1 20  1  0  0  0  0
 20 21  1  0  0  0  0
 21 22  1  0  0  0  0
 21 23  1  0  0  0  0
M  END
> <ChemID>
10540

> <CAS>
741-58-2

> <Original_SMILES>
CC(C)OP(=S)(OC(C)C)SCCNS(=O)(=O)c1ccccc1

> <preferred_name>
Bensulide

> <dsstox_substance_id>
DTXSID9032329

> <dsstox_compound_id>
DTXCID7012329

> <Canonical_QSARr>
CC(C)OP(=S)(OC(C)C)SCCNS(=O)(=O)C1C=CC=CC=1

> <InChI_Code_QSARr>
InChI=1S/C14H24NO4PS3/c1-12(2)18-20(21,19-13(3)4)22-11-10-15-23(16,17)14-8-6-5-7-9-14/h5-9,12-13,15H,10-11H2,1-4H3

> <InChI Key_QSARr>
RRNIZKPFKNDSRS-UHFFFAOYSA-N

> <Salt_Solvent>


> <Salt_Solvent_ID>
0

> <Clint>
2.398460849608223

> <Tr_1_Tst_0>
1

$$$$
Row256
  Mrv171c012261910192D          

 25 25  0  0  0  0            999 V2000
    3.8996   -1.8093    0.0000 N   0  0  0  0  0  0  0  0  0  0  0  0
    3.1851   -1.3968    0.0000 C   0  0  0  0  0  0  0  0  0  0  0  0
    3.1851   -0.5718    0.0000 C   0  0  0  0  0  0  0  0  0  0  0  0
    2.4706   -0.1593    0.0000 F   0  0  0  0  0  0  0  0  0  0  0  0
    3.8996   -0.1593    0.0000 F   0  0  0  0  0  0  0  0  0  0  0  0
    2.4706   -1.8093    0.0000 C   0  0  0  0  0  0  0  0  0  0  0  0
    1.7561   -1.3968    0.0000 C   0  0  0  0  0  0  0  0  0  0  0  0
    1.0417   -1.8093    0.0000 S   0  0  0  0  0  0  0  0  0  0  0  0
    0.3272   -1.3968    0.0000 C   0  0  0  0  0  0  0  0  0  0  0  0
    1.7561   -0.5718    0.0000 O   0  0  0  0  0  0  0  0  0  0  0  0
    2.4706   -2.6343    0.0000 C   0  0  0  0  0  0  0  0  0  0  0  0
    1.7561   -3.0468    0.0000 C   0  0  0  0  0  0  0  0  0  0  0  0
    1.0417   -2.6343    0.0000 C   0  0  0  0  0  0  0  0  0  0  0  0
    0.3272   -3.0468    0.0000 C   0  0  0  0  0  0  0  0  0  0  0  0
    0.5567   -1.9668    0.0000 C   0  0  0  0  0  0  0  0  0  0  0  0
    3.1851   -3.0468    0.0000 C   0  0  0  0  0  0  0  0  0  0  0  0
    3.1851   -3.8718    0.0000 C   0  0  0  0  0  0  0  0  0  0  0  0
    2.4706   -4.2843    0.0000 S   0  0  0  0  0  0  0  0  0  0  0  0
    2.4706   -5.1093    0.0000 C   0  0  0  0  0  0  0  0  0  0  0  0
    3.8996   -4.2843    0.0000 O   0  0  0  0  0  0  0  0  0  0  0  0
    3.8996   -2.6343    0.0000 C   0  0  0  0  0  0  0  0  0  0  0  0
    4.6140   -3.0468    0.0000 C   0  0  0  0  0  0  0  0  0  0  0  0
    5.3285   -3.4593    0.0000 F   0  0  0  0  0  0  0  0  0  0  0  0
    5.0265   -2.3323    0.0000 F   0  0  0  0  0  0  0  0  0  0  0  0
    4.2015   -3.7612    0.0000 F   0  0  0  0  0  0  0  0  0  0  0  0
  2  1  1  0  0  0  0
  2  3  1  0  0  0  0
  3  4  1  0  0  0  0
  3  5  1  0  0  0  0
  6  2  2  0  0  0  0
  6  7  1  0  0  0  0
  7  8  1  0  0  0  0
  8  9  1  0  0  0  0
  7 10  2  0  0  0  0
 11  6  1  0  0  0  0
 11 12  1  0  0  0  0
 12 13  1  0  0  0  0
 13 14  1  0  0  0  0
 13 15  1  0  0  0  0
 16 11  2  0  0  0  0
 16 17  1  0  0  0  0
 17 18  1  0  0  0  0
 18 19  1  0  0  0  0
 17 20  2  0  0  0  0
 21 16  1  0  0  0  0
  1 21  2  0  0  0  0
 21 22  1  0  0  0  0
 22 23  1  0  0  0  0
 22 24  1  0  0  0  0
 22 25  1  0  0  0  0
M  END
> <ChemID>
10541

> <CAS>
97886-45-8

> <Original_SMILES>
CC(C)Cc1c(c([n]c(c1C(=O)SC)C(F)(F)F)C(F)F)C(=O)SC

> <preferred_name>
Dithiopyr

> <dsstox_substance_id>
DTXSID9032379

> <dsstox_compound_id>
DTXCID7012379

> <Canonical_QSARr>
CC(C)CC1C(=C(N=C(C=1C(=O)SC)C(F)(F)F)C(F)F)C(=O)SC

> <InChI_Code_QSARr>
InChI=1S/C15H16F5NO2S2/c1-6(2)5-7-8(13(22)24-3)10(12(16)17)21-11(15(18,19)20)9(7)14(23)25-4/h6,12H,5H2,1-4H3

> <InChI Key_QSARr>
YUBJPYNSGLJZPQ-UHFFFAOYSA-N

> <Salt_Solvent>


> <Salt_Solvent_ID>
0

> <Clint>
1.1222158782728264

> <Tr_1_Tst_0>
1

$$$$
Row297
  Mrv171c001112020422D          

 23 22  0  0  0  0            999 V2000
    0.0000    0.1131    0.0000 N   0  3  0  0  0  0  0  0  0  0  0  0
    0.4125    0.8275    0.0000 C   0  0  0  0  0  0  0  0  0  0  0  0
   -0.7145    0.5256    0.0000 C   0  0  0  0  0  0  0  0  0  0  0  0
   -1.4289    0.1131    0.0000 C   0  0  0  0  0  0  0  0  0  0  0  0
   -2.1434    0.5256    0.0000 C   0  0  0  0  0  0  0  0  0  0  0  0
   -2.8579    0.1131    0.0000 C   0  0  0  0  0  0  0  0  0  0  0  0
   -3.5723    0.5256    0.0000 C   0  0  0  0  0  0  0  0  0  0  0  0
   -4.2868    0.1131    0.0000 C   0  0  0  0  0  0  0  0  0  0  0  0
   -5.0013    0.5256    0.0000 C   0  0  0  0  0  0  0  0  0  0  0  0
   -5.7158    0.1131    0.0000 C   0  0  0  0  0  0  0  0  0  0  0  0
   -6.4302    0.5256    0.0000 C   0  0  0  0  0  0  0  0  0  0  0  0
   -7.1447    0.1131    0.0000 C   0  0  0  0  0  0  0  0  0  0  0  0
    0.7145   -0.2994    0.0000 C   0  0  0  0  0  0  0  0  0  0  0  0
    1.4290    0.1131    0.0000 C   0  0  0  0  0  0  0  0  0  0  0  0
    2.1434   -0.2994    0.0000 C   0  0  0  0  0  0  0  0  0  0  0  0
    2.8579    0.1131    0.0000 C   0  0  0  0  0  0  0  0  0  0  0  0
    3.5724   -0.2994    0.0000 C   0  0  0  0  0  0  0  0  0  0  0  0
    4.2868    0.1131    0.0000 C   0  0  0  0  0  0  0  0  0  0  0  0
    5.0013   -0.2994    0.0000 C   0  0  0  0  0  0  0  0  0  0  0  0
    5.7158    0.1131    0.0000 C   0  0  0  0  0  0  0  0  0  0  0  0
    6.4303   -0.2994    0.0000 C   0  0  0  0  0  0  0  0  0  0  0  0
    7.1447    0.1131    0.0000 C   0  0  0  0  0  0  0  0  0  0  0  0
   -0.4125   -0.6014    0.0000 C   0  0  0  0  0  0  0  0  0  0  0  0
  1  2  1  0  0  0  0
  1  3  1  0  0  0  0
  3  4  1  0  0  0  0
  4  5  1  0  0  0  0
  5  6  1  0  0  0  0
  6  7  1  0  0  0  0
  7  8  1  0  0  0  0
  8  9  1  0  0  0  0
  9 10  1  0  0  0  0
 10 11  1  0  0  0  0
 11 12  1  0  0  0  0
  1 13  1  0  0  0  0
 13 14  1  0  0  0  0
 14 15  1  0  0  0  0
 15 16  1  0  0  0  0
 16 17  1  0  0  0  0
 17 18  1  0  0  0  0
 18 19  1  0  0  0  0
 19 20  1  0  0  0  0
 20 21  1  0  0  0  0
 21 22  1  0  0  0  0
  1 23  1  0  0  0  0
M  CHG  1   1   1
M  END
> <ChemID>
10542

> <CAS>
7173-51-5

> <Original_SMILES>
[Cl-].C[N+](C)(CCCCCCCCCC)CCCCCCCCCC

> <preferred_name>
Didecyldimethylammonium chloride

> <dsstox_substance_id>
DTXSID9032537

> <dsstox_compound_id>
DTXCID7012537

> <Canonical_QSARr>
C[N+](C)(CCCCCCCCCC)CCCCCCCCCC

> <InChI_Code_QSARr>
InChI=1S/C22H48N/c1-5-7-9-11-13-15-17-19-21-23(3,4)22-20-18-16-14-12-10-8-6-2/h5-22H2,1-4H3/q+1

> <InChI Key_QSARr>
JGFDZZLUDWMUQH-UHFFFAOYSA-N

> <Salt_Solvent>
[Cl-]

> <Salt_Solvent_ID>
170

> <Clint>
1.2706788361447063

> <Tr_1_Tst_0>
1

$$$$
Row165
  Mrv171c012261910192D          

 20 20  0  0  0  0            999 V2000
    3.4131   -1.2685    0.0000 C   0  0  0  0  0  0  0  0  0  0  0  0
    3.4131   -2.0935    0.0000 N   0  0  0  0  0  0  0  0  0  0  0  0
    4.1275   -2.5060    0.0000 C   0  0  0  0  0  0  0  0  0  0  0  0
    4.5400   -1.7915    0.0000 C   0  0  0  0  0  0  0  0  0  0  0  0
    3.7150   -3.2205    0.0000 C   0  0  0  0  0  0  0  0  0  0  0  0
    4.1275   -3.9349    0.0000 C   0  0  0  0  0  0  0  0  0  0  0  0
    4.8420   -2.9185    0.0000 C   0  0  0  0  0  0  0  0  0  0  0  0
    5.5565   -2.5060    0.0000 O   0  0  0  0  0  0  0  0  0  0  0  0
    4.8420   -3.7435    0.0000 C   0  0  0  0  0  0  0  0  0  0  0  0
    5.5565   -4.1560    0.0000 Cl  0  0  0  0  0  0  0  0  0  0  0  0
    2.6986   -0.8560    0.0000 C   0  0  0  0  0  0  0  0  0  0  0  0
    2.6986   -0.0310    0.0000 C   0  0  0  0  0  0  0  0  0  0  0  0
    1.9841    0.3815    0.0000 C   0  0  0  0  0  0  0  0  0  0  0  0
    1.9841    1.2065    0.0000 Cl  0  0  0  0  0  0  0  0  0  0  0  0
    1.2697   -0.0310    0.0000 C   0  0  0  0  0  0  0  0  0  0  0  0
    0.5552    0.3815    0.0000 C   0  0  0  0  0  0  0  0  0  0  0  0
    1.2697   -0.8560    0.0000 C   0  0  0  0  0  0  0  0  0  0  0  0
    0.5552   -1.2685    0.0000 Cl  0  0  0  0  0  0  0  0  0  0  0  0
    1.9841   -1.2685    0.0000 C   0  0  0  0  0  0  0  0  0  0  0  0
    4.1275   -0.8560    0.0000 O   0  0  0  0  0  0  0  0  0  0  0  0
  1  2  1  0  0  0  0
  2  3  1  0  0  0  0
  3  4  1  0  0  0  0
  3  5  1  0  0  0  0
  5  6  1  0  0  0  0
  3  7  1  0  0  0  0
  7  8  2  0  0  0  0
  7  9  1  0  0  0  0
  9 10  1  0  0  0  0
  1 11  1  0  0  0  0
 12 11  1  0  0  0  0
 13 12  2  0  0  0  0
 13 14  1  0  0  0  0
 15 13  1  0  0  0  0
 15 16  1  0  0  0  0
 17 15  2  0  0  0  0
 17 18  1  0  0  0  0
 19 17  1  0  0  0  0
 11 19  2  0  0  0  0
  1 20  2  0  0  0  0
M  END
> <ChemID>
10543

> <CAS>
156052-68-5

> <Original_SMILES>
Cc1c(Cl)cc(cc1Cl)C(=O)NC(C)(CC)C(=O)CCl

> <preferred_name>
Zoxamide

> <dsstox_substance_id>
DTXSID9032581

> <dsstox_compound_id>
DTXCID7012581

> <Canonical_QSARr>
CC1C(Cl)=CC(=CC=1Cl)C(=O)NC(C)(CC)C(=O)CCl

> <InChI_Code_QSARr>
InChI=1S/C14H16Cl3NO2/c1-4-14(3,12(19)7-15)18-13(20)9-5-10(16)8(2)11(17)6-9/h5-6H,4,7H2,1-3H3,(H,18,20)

> <InChI Key_QSARr>
SOUGWDPPRBKJEX-UHFFFAOYSA-N

> <Salt_Solvent>


> <Salt_Solvent_ID>
0

> <Clint>
0.6222140229662954

> <Tr_1_Tst_0>
1

$$$$
Row6
  Mrv171c012261910192D          

 13 13  0  0  0  0            999 V2000
    0.5947   -1.5545    0.0000 C   0  0  0  0  0  0  0  0  0  0  0  0
   -0.1197   -1.1420    0.0000 O   0  0  0  0  0  0  0  0  0  0  0  0
    0.5947   -2.3795    0.0000 O   0  0  0  0  0  0  0  0  0  0  0  0
    1.3092   -1.1420    0.0000 C   0  0  0  0  0  0  0  0  0  0  0  0
    2.0237   -1.5545    0.0000 O   0  0  0  0  0  0  0  0  0  0  0  0
    2.7382   -1.1420    0.0000 C   0  0  0  0  0  0  0  0  0  0  0  0
    3.4526   -1.5545    0.0000 C   0  0  0  0  0  0  0  0  0  0  0  0
    4.1671   -1.1420    0.0000 C   0  0  0  0  0  0  0  0  0  0  0  0
    4.1671   -0.3170    0.0000 C   0  0  0  0  0  0  0  0  0  0  0  0
    3.4526    0.0955    0.0000 C   0  0  0  0  0  0  0  0  0  0  0  0
    3.4526    0.9205    0.0000 Cl  0  0  0  0  0  0  0  0  0  0  0  0
    2.7382   -0.3170    0.0000 C   0  0  0  0  0  0  0  0  0  0  0  0
    1.3092   -0.3170    0.0000 C   0  0  0  0  0  0  0  0  0  0  0  0
  1  2  2  0  0  0  0
  1  3  1  0  0  0  0
  1  4  1  0  0  0  0
  4  5  1  0  0  0  0
  5  6  1  0  0  0  0
  7  6  1  0  0  0  0
  8  7  2  0  0  0  0
  9  8  1  0  0  0  0
 10  9  2  0  0  0  0
 10 11  1  0  0  0  0
 12 10  1  0  0  0  0
  6 12  2  0  0  0  0
  4 13  1  0  0  0  0
M  END
> <ChemID>
10544

> <CAS>
101-10-0

> <Original_SMILES>
CC(Oc1cccc(Cl)c1)C(O)=O

> <preferred_name>
Cloprop

> <dsstox_substance_id>
DTXSID9034232

> <dsstox_compound_id>
DTXCID7014232

> <Canonical_QSARr>
CC(OC1C=CC=C(Cl)C=1)C(O)=O

> <InChI_Code_QSARr>
InChI=1S/C9H9ClO3/c1-6(9(11)12)13-8-4-2-3-7(10)5-8/h2-6H,1H3,(H,11,12)

> <InChI Key_QSARr>
YNTJKQDWYXUTLZ-UHFFFAOYSA-N

> <Salt_Solvent>


> <Salt_Solvent_ID>
0

> <Clint>
-7.0

> <Tr_1_Tst_0>
1

$$$$
Row98
  Mrv171c012261910192D          

 28 29  0  0  0  0            999 V2000
    3.8832   -4.7102    0.0000 C   0  0  0  0  0  0  0  0  0  0  0  0
    3.1688   -5.1227    0.0000 O   0  0  0  0  0  0  0  0  0  0  0  0
    2.4543   -4.7102    0.0000 C   0  0  0  0  0  0  0  0  0  0  0  0
    4.5977   -5.1227    0.0000 C   0  0  0  0  0  0  0  0  0  0  0  0
    4.5977   -5.9477    0.0000 C   0  0  0  0  0  0  0  0  0  0  0  0
    5.3122   -6.3602    0.0000 C   0  0  0  0  0  0  0  0  0  0  0  0
    6.0266   -5.9477    0.0000 C   0  0  0  0  0  0  0  0  0  0  0  0
    6.0266   -5.1227    0.0000 C   0  0  0  0  0  0  0  0  0  0  0  0
    5.3122   -4.7102    0.0000 C   0  0  0  0  0  0  0  0  0  0  0  0
    5.3122   -3.8852    0.0000 S   0  0  0  0  0  0  0  0  0  0  0  0
    5.3122   -3.0602    0.0000 N   0  0  0  0  0  0  0  0  0  0  0  0
    4.5977   -2.6477    0.0000 C   0  0  0  0  0  0  0  0  0  0  0  0
    4.5977   -1.8227    0.0000 N   0  0  0  0  0  0  0  0  0  0  0  0
    3.8832   -1.4102    0.0000 C   0  0  0  0  0  0  0  0  0  0  0  0
    3.8832   -0.5852    0.0000 N   0  0  0  0  0  0  0  0  0  0  0  0
    3.1688   -0.1727    0.0000 C   0  0  0  0  0  0  0  0  0  0  0  0
    3.1688    0.6523    0.0000 O   0  0  0  0  0  0  0  0  0  0  0  0
    3.8832    1.0648    0.0000 C   0  0  0  0  0  0  0  0  0  0  0  0
    3.8832    1.8898    0.0000 C   0  0  0  0  0  0  0  0  0  0  0  0
    2.4543   -0.5852    0.0000 N   0  0  0  0  0  0  0  0  0  0  0  0
    2.4543   -1.4102    0.0000 C   0  0  0  0  0  0  0  0  0  0  0  0
    1.7398   -1.8227    0.0000 N   0  0  0  0  0  0  0  0  0  0  0  0
    1.7398   -2.6477    0.0000 C   0  0  0  0  0  0  0  0  0  0  0  0
    3.1688   -1.8227    0.0000 N   0  0  0  0  0  0  0  0  0  0  0  0
    3.8832   -3.0602    0.0000 O   0  0  0  0  0  0  0  0  0  0  0  0
    6.1372   -3.8852    0.0000 O   0  0  0  0  0  0  0  0  0  0  0  0
    4.4872   -3.8852    0.0000 O   0  0  0  0  0  0  0  0  0  0  0  0
    3.8832   -3.8852    0.0000 O   0  0  0  0  0  0  0  0  0  0  0  0
  1  2  1  0  0  0  0
  2  3  1  0  0  0  0
  1  4  1  0  0  0  0
  5  4  1  0  0  0  0
  6  5  2  0  0  0  0
  7  6  1  0  0  0  0
  8  7  2  0  0  0  0
  9  8  1  0  0  0  0
  4  9  2  0  0  0  0
  9 10  1  0  0  0  0
 10 11  1  0  0  0  0
 11 12  1  0  0  0  0
 12 13  1  0  0  0  0
 13 14  1  0  0  0  0
 15 14  2  0  0  0  0
 16 15  1  0  0  0  0
 16 17  1  0  0  0  0
 17 18  1  0  0  0  0
 18 19  1  0  0  0  0
 20 16  2  0  0  0  0
 21 20  1  0  0  0  0
 21 22  1  0  0  0  0
 22 23  1  0  0  0  0
 24 21  2  0  0  0  0
 14 24  1  0  0  0  0
 12 25  2  0  0  0  0
 10 26  2  0  0  0  0
 10 27  2  0  0  0  0
  1 28  2  0  0  0  0
M  END
> <ChemID>
10545

> <CAS>
97780-06-8

> <Original_SMILES>
COC(=O)c1ccccc1S(=O)(=O)NC(=O)Nc1[n]c(NC)[n]c([n]1)OCC

> <preferred_name>
Ethametsulfuron-methyl

> <dsstox_substance_id>
DTXSID9034573

> <dsstox_compound_id>
DTXCID7014573

> <Canonical_QSARr>
COC(=O)C1C=CC=CC=1S(=O)(=O)NC(=O)NC1N=C(NC)N=C(N=1)OCC

> <InChI_Code_QSARr>
InChI=1S/C15H18N6O6S/c1-4-27-15-19-12(16-2)17-13(20-15)18-14(23)21-28(24,25)10-8-6-5-7-9(10)11(22)26-3/h5-8H,4H2,1-3H3,(H3,16,17,18,19,20,21,23)

> <InChI Key_QSARr>
ZINJLDJMHCUBIP-UHFFFAOYSA-N

> <Salt_Solvent>


> <Salt_Solvent_ID>
0

> <Clint>
0.03342375548694973

> <Tr_1_Tst_0>
1

$$$$
Row11
  Mrv171c012261910192D          

 28 29  0  0  0  0            999 V2000
    2.8133   -3.4904    0.0000 C   0  0  0  0  0  0  0  0  0  0  0  0
    2.1458   -3.0055    0.0000 N   0  0  0  0  0  0  0  0  0  0  0  0
    2.1458   -2.1805    0.0000 C   0  0  0  0  0  0  0  0  0  0  0  0
    1.4784   -3.4904    0.0000 N   0  0  0  0  0  0  0  0  0  0  0  0
    1.7333   -4.2750    0.0000 C   0  0  0  0  0  0  0  0  0  0  0  0
    1.2484   -4.9425    0.0000 Cl  0  0  0  0  0  0  0  0  0  0  0  0
    2.5583   -4.2750    0.0000 C   0  0  0  0  0  0  0  0  0  0  0  0
    3.0433   -4.9425    0.0000 C   0  0  0  0  0  0  0  0  0  0  0  0
    3.8637   -4.8562    0.0000 O   0  0  0  0  0  0  0  0  0  0  0  0
    2.7077   -5.6962    0.0000 O   0  0  0  0  0  0  0  0  0  0  0  0
    3.1926   -6.3636    0.0000 C   0  0  0  0  0  0  0  0  0  0  0  0
    3.5979   -3.2355    0.0000 S   0  0  0  0  0  0  0  0  0  0  0  0
    3.8528   -4.0201    0.0000 O   0  0  0  0  0  0  0  0  0  0  0  0
    3.3430   -2.4509    0.0000 O   0  0  0  0  0  0  0  0  0  0  0  0
    4.3825   -2.9805    0.0000 N   0  0  0  0  0  0  0  0  0  0  0  0
    4.5540   -2.1736    0.0000 C   0  0  0  0  0  0  0  0  0  0  0  0
    3.9409   -1.6215    0.0000 O   0  0  0  0  0  0  0  0  0  0  0  0
    5.3387   -1.9186    0.0000 N   0  0  0  0  0  0  0  0  0  0  0  0
    5.5102   -1.1117    0.0000 C   0  0  0  0  0  0  0  0  0  0  0  0
    6.2948   -0.8567    0.0000 N   0  0  0  0  0  0  0  0  0  0  0  0
    6.4663   -0.0498    0.0000 C   0  0  0  0  0  0  0  0  0  0  0  0
    7.2510    0.2052    0.0000 O   0  0  0  0  0  0  0  0  0  0  0  0
    7.4225    1.0122    0.0000 C   0  0  0  0  0  0  0  0  0  0  0  0
    5.8532    0.5023    0.0000 C   0  0  0  0  0  0  0  0  0  0  0  0
    5.0686    0.2473    0.0000 C   0  0  0  0  0  0  0  0  0  0  0  0
    4.4555    0.7994    0.0000 O   0  0  0  0  0  0  0  0  0  0  0  0
    3.6709    0.5444    0.0000 C   0  0  0  0  0  0  0  0  0  0  0  0
    4.8971   -0.5596    0.0000 N   0  0  0  0  0  0  0  0  0  0  0  0
  2  1  1  0  0  0  0
  2  3  1  0  0  0  0
  4  2  1  0  0  0  0
  5  4  2  0  0  0  0
  5  6  1  0  0  0  0
  7  5  1  0  0  0  0
  1  7  2  0  0  0  0
  7  8  1  0  0  0  0
  8  9  2  0  0  0  0
  8 10  1  0  0  0  0
 10 11  1  0  0  0  0
  1 12  1  0  0  0  0
 12 13  2  0  0  0  0
 12 14  2  0  0  0  0
 12 15  1  0  0  0  0
 15 16  1  0  0  0  0
 16 17  2  0  0  0  0
 16 18  1  0  0  0  0
 18 19  1  0  0  0  0
 20 19  1  0  0  0  0
 21 20  2  0  0  0  0
 21 22  1  0  0  0  0
 22 23  1  0  0  0  0
 24 21  1  0  0  0  0
 25 24  2  0  0  0  0
 25 26  1  0  0  0  0
 26 27  1  0  0  0  0
 28 25  1  0  0  0  0
 19 28  2  0  0  0  0
M  END
> <ChemID>
10546

> <CAS>
100784-20-1

> <Original_SMILES>
C[n]1[n]c(Cl)c(c1S(=O)(=O)NC(=O)Nc1[n]c(cc([n]1)OC)OC)C(=O)OC

> <preferred_name>
Halosulfuron-methyl

> <dsstox_substance_id>
DTXSID9034650

> <dsstox_compound_id>
DTXCID7014650

> <Canonical_QSARr>
COC1=CC(=NC(NC(=O)NS(=O)(=O)C2=C(C(Cl)=NN2C)C(=O)OC)=N1)OC

> <InChI_Code_QSARr>
InChI=1S/C13H15ClN6O7S/c1-20-10(8(9(14)18-20)11(21)27-4)28(23,24)19-13(22)17-12-15-6(25-2)5-7(16-12)26-3/h5H,1-4H3,(H2,15,16,17,19,22)

> <InChI Key_QSARr>
FMGZEUWROYGLAY-UHFFFAOYSA-N

> <Salt_Solvent>


> <Salt_Solvent_ID>
0

> <Clint>
-7.0

> <Tr_1_Tst_0>
1

$$$$
Row233
  Mrv171c012261910192D          

 28 29  0  0  0  0            999 V2000
    4.4177   -1.8408    0.0000 C   0  0  0  0  0  0  0  0  0  0  0  0
    3.7033   -2.2533    0.0000 S   0  0  0  0  0  0  0  0  0  0  0  0
    3.2908   -1.5388    0.0000 O   0  0  0  0  0  0  0  0  0  0  0  0
    2.9888   -2.6658    0.0000 N   0  0  0  0  0  0  0  0  0  0  0  0
    2.2743   -2.2533    0.0000 C   0  0  0  0  0  0  0  0  0  0  0  0
    1.5599   -2.6658    0.0000 N   0  0  0  0  0  0  0  0  0  0  0  0
    0.8454   -2.2533    0.0000 C   0  0  0  0  0  0  0  0  0  0  0  0
    0.8454   -1.4283    0.0000 N   0  0  0  0  0  0  0  0  0  0  0  0
    0.1309   -1.0158    0.0000 C   0  0  0  0  0  0  0  0  0  0  0  0
    0.1309   -0.1908    0.0000 O   0  0  0  0  0  0  0  0  0  0  0  0
   -0.5836    0.2217    0.0000 C   0  0  0  0  0  0  0  0  0  0  0  0
   -0.5836   -1.4283    0.0000 N   0  0  0  0  0  0  0  0  0  0  0  0
   -0.5836   -2.2533    0.0000 C   0  0  0  0  0  0  0  0  0  0  0  0
   -1.2980   -2.6658    0.0000 C   0  0  0  0  0  0  0  0  0  0  0  0
    0.1309   -2.6658    0.0000 N   0  0  0  0  0  0  0  0  0  0  0  0
    2.2743   -1.4283    0.0000 O   0  0  0  0  0  0  0  0  0  0  0  0
    4.1158   -2.9678    0.0000 O   0  0  0  0  0  0  0  0  0  0  0  0
    5.1322   -2.2533    0.0000 C   0  0  0  0  0  0  0  0  0  0  0  0
    5.1322   -3.0783    0.0000 C   0  0  0  0  0  0  0  0  0  0  0  0
    5.8467   -3.4908    0.0000 C   0  0  0  0  0  0  0  0  0  0  0  0
    6.5612   -3.0783    0.0000 C   0  0  0  0  0  0  0  0  0  0  0  0
    7.2756   -2.6658    0.0000 F   0  0  0  0  0  0  0  0  0  0  0  0
    6.9737   -3.7928    0.0000 F   0  0  0  0  0  0  0  0  0  0  0  0
    6.1487   -2.3638    0.0000 F   0  0  0  0  0  0  0  0  0  0  0  0
    5.8467   -1.8408    0.0000 C   0  0  0  0  0  0  0  0  0  0  0  0
    5.8467   -1.0158    0.0000 C   0  0  0  0  0  0  0  0  0  0  0  0
    5.1322   -0.6033    0.0000 C   0  0  0  0  0  0  0  0  0  0  0  0
    4.4177   -1.0158    0.0000 C   0  0  0  0  0  0  0  0  0  0  0  0
  1  2  1  0  0  0  0
  2  3  2  0  0  0  0
  2  4  1  0  0  0  0
  4  5  1  0  0  0  0
  5  6  1  0  0  0  0
  6  7  1  0  0  0  0
  8  7  2  0  0  0  0
  9  8  1  0  0  0  0
  9 10  1  0  0  0  0
 10 11  1  0  0  0  0
 12  9  2  0  0  0  0
 13 12  1  0  0  0  0
 13 14  1  0  0  0  0
 15 13  2  0  0  0  0
  7 15  1  0  0  0  0
  5 16  2  0  0  0  0
  2 17  2  0  0  0  0
 18  1  2  0  0  0  0
 18 19  1  0  0  0  0
 19 20  1  0  0  0  0
 20 21  1  0  0  0  0
 21 22  1  0  0  0  0
 21 23  1  0  0  0  0
 21 24  1  0  0  0  0
 25 18  1  0  0  0  0
 26 25  2  0  0  0  0
 27 26  1  0  0  0  0
 28 27  2  0  0  0  0
  1 28  1  0  0  0  0
M  END
> <ChemID>
10547

> <CAS>
94125-34-5

> <Original_SMILES>
Cc1[n]c(NC(=O)NS(=O)(=O)c2ccccc2CCC(F)(F)F)[n]c([n]1)OC

> <preferred_name>
Prosulfuron

> <dsstox_substance_id>
DTXSID9034868

> <dsstox_compound_id>
DTXCID7014868

> <Canonical_QSARr>
CC1N=C(N=C(NC(=O)NS(=O)(=O)C2C=CC=CC=2CCC(F)(F)F)N=1)OC

> <InChI_Code_QSARr>
InChI=1S/C15H16F3N5O4S/c1-9-19-12(22-14(20-9)27-2)21-13(24)23-28(25,26)11-6-4-3-5-10(11)7-8-15(16,17)18/h3-6H,7-8H2,1-2H3,(H2,19,20,21,22,23,24)

> <InChI Key_QSARr>
LTUNNEGNEKBSEH-UHFFFAOYSA-N

> <Salt_Solvent>


> <Salt_Solvent_ID>
0

> <Clint>
1.0157787563890408

> <Tr_1_Tst_0>
1

$$$$
Row468
  Mrv171c012261910192D          

 33 34  0  0  0  0            999 V2000
    2.7539   -2.3293    0.0000 C   0  0  0  0  0  0  0  0  0  0  0  0
    2.3414   -1.6148    0.0000 C   0  0  0  0  0  0  0  0  0  0  0  0
    1.9289   -0.9003    0.0000 N   0  0  0  0  0  0  0  0  0  0  0  0
    3.1664   -3.0437    0.0000 C   0  0  0  0  0  0  0  0  0  0  0  0
    2.7539   -3.7582    0.0000 C   0  0  0  0  0  0  0  0  0  0  0  0
    3.9914   -3.0437    0.0000 C   0  0  0  0  0  0  0  0  0  0  0  0
    3.4684   -1.9168    0.0000 C   0  0  0  0  0  0  0  0  0  0  0  0
    4.1829   -2.3293    0.0000 C   0  0  0  0  0  0  0  0  0  0  0  0
    4.8973   -1.9168    0.0000 C   0  0  0  0  0  0  0  0  0  0  0  0
    5.6118   -2.3293    0.0000 N   0  0  0  0  0  0  0  0  0  0  0  0
    5.6118   -3.1543    0.0000 C   0  0  0  0  0  0  0  0  0  0  0  0
    6.3263   -1.9168    0.0000 C   0  0  0  0  0  0  0  0  0  0  0  0
    7.0407   -2.3293    0.0000 C   0  0  0  0  0  0  0  0  0  0  0  0
    7.7552   -1.9168    0.0000 C   0  0  0  0  0  0  0  0  0  0  0  0
    8.4697   -2.3293    0.0000 C   0  0  0  0  0  0  0  0  0  0  0  0
    9.1842   -1.9168    0.0000 C   0  0  0  0  0  0  0  0  0  0  0  0
    9.1842   -1.0918    0.0000 C   0  0  0  0  0  0  0  0  0  0  0  0
    9.8986   -0.6793    0.0000 O   0  0  0  0  0  0  0  0  0  0  0  0
    9.8986    0.1457    0.0000 C   0  0  0  0  0  0  0  0  0  0  0  0
    8.4697   -0.6793    0.0000 C   0  0  0  0  0  0  0  0  0  0  0  0
    8.4697    0.1457    0.0000 O   0  0  0  0  0  0  0  0  0  0  0  0
    7.7552    0.5582    0.0000 C   0  0  0  0  0  0  0  0  0  0  0  0
    7.7552   -1.0918    0.0000 C   0  0  0  0  0  0  0  0  0  0  0  0
    2.0395   -2.7418    0.0000 C   0  0  0  0  0  0  0  0  0  0  0  0
    1.3250   -2.3293    0.0000 C   0  0  0  0  0  0  0  0  0  0  0  0
    0.6105   -2.7418    0.0000 C   0  0  0  0  0  0  0  0  0  0  0  0
    0.6105   -3.5668    0.0000 C   0  0  0  0  0  0  0  0  0  0  0  0
   -0.1040   -3.9793    0.0000 O   0  0  0  0  0  0  0  0  0  0  0  0
   -0.1040   -4.8043    0.0000 C   0  0  0  0  0  0  0  0  0  0  0  0
    1.3250   -3.9793    0.0000 C   0  0  0  0  0  0  0  0  0  0  0  0
    1.3250   -4.8043    0.0000 O   0  0  0  0  0  0  0  0  0  0  0  0
    2.0395   -5.2168    0.0000 C   0  0  0  0  0  0  0  0  0  0  0  0
    2.0395   -3.5668    0.0000 C   0  0  0  0  0  0  0  0  0  0  0  0
  1  2  1  0  0  0  0
  2  3  3  0  0  0  0
  1  4  1  0  0  0  0
  4  5  1  0  0  0  0
  4  6  1  0  0  0  0
  1  7  1  0  0  0  0
  7  8  1  0  0  0  0
  8  9  1  0  0  0  0
  9 10  1  0  0  0  0
 10 11  1  0  0  0  0
 10 12  1  0  0  0  0
 12 13  1  0  0  0  0
 13 14  1  0  0  0  0
 15 14  2  0  0  0  0
 16 15  1  0  0  0  0
 17 16  2  0  0  0  0
 17 18  1  0  0  0  0
 18 19  1  0  0  0  0
 20 17  1  0  0  0  0
 20 21  1  0  0  0  0
 21 22  1  0  0  0  0
 23 20  2  0  0  0  0
 14 23  1  0  0  0  0
  1 24  1  0  0  0  0
 25 24  2  0  0  0  0
 26 25  1  0  0  0  0
 27 26  2  0  0  0  0
 27 28  1  0  0  0  0
 28 29  1  0  0  0  0
 30 27  1  0  0  0  0
 30 31  1  0  0  0  0
 31 32  1  0  0  0  0
 33 30  2  0  0  0  0
 24 33  1  0  0  0  0
M  END
> <ChemID>
10548

> <CAS>
52-53-9

> <Original_SMILES>
CN(CCc1cc(OC)c(cc1)OC)CCCC(C#N)(C(C)C)c1cc(OC)c(cc1)OC

> <preferred_name>
Verapamil

> <dsstox_substance_id>
DTXSID9041152

> <dsstox_compound_id>
DTXCID7021152

> <Canonical_QSARr>
CN(CCCC(C#N)(C(C)C)C1C=C(OC)C(=CC=1)OC)CCC1C=C(OC)C(=CC=1)OC

> <InChI_Code_QSARr>
InChI=1S/C27H38N2O4/c1-20(2)27(19-28,22-10-12-24(31-5)26(18-22)33-7)14-8-15-29(3)16-13-21-9-11-23(30-4)25(17-21)32-6/h9-12,17-18,20H,8,13-16H2,1-7H3

> <InChI Key_QSARr>
SGTNSNPWRIOYBX-UHFFFAOYSA-N

> <Salt_Solvent>


> <Salt_Solvent_ID>
0

> <Clint>
0.6674529528899539

> <Tr_1_Tst_0>
0

$$$$
Row36
  Mrv171c012261910192D          

 19 20  0  0  0  0            999 V2000
    3.7994   -1.6917    0.0000 C   0  0  0  0  0  0  0  0  0  0  0  0
    3.7994   -2.5167    0.0000 C   0  0  0  0  0  0  0  0  0  0  0  0
    4.5139   -2.9292    0.0000 C   0  0  0  0  0  0  0  0  0  0  0  0
    5.2284   -2.5167    0.0000 C   0  0  0  0  0  0  0  0  0  0  0  0
    5.2284   -1.6917    0.0000 C   0  0  0  0  0  0  0  0  0  0  0  0
    4.5139   -1.2792    0.0000 C   0  0  0  0  0  0  0  0  0  0  0  0
    4.5139   -0.4542    0.0000 C   0  0  0  0  0  0  0  0  0  0  0  0
    3.7994   -0.0417    0.0000 O   0  0  0  0  0  0  0  0  0  0  0  0
    5.2284   -0.0417    0.0000 O   0  0  0  0  0  0  0  0  0  0  0  0
    3.0850   -1.2792    0.0000 C   0  0  0  0  0  0  0  0  0  0  0  0
    2.3705   -1.6917    0.0000 O   0  0  0  0  0  0  0  0  0  0  0  0
    1.6560   -1.2792    0.0000 C   0  0  0  0  0  0  0  0  0  0  0  0
    0.9416   -1.6917    0.0000 C   0  0  0  0  0  0  0  0  0  0  0  0
    0.2271   -1.2792    0.0000 C   0  0  0  0  0  0  0  0  0  0  0  0
   -0.4874   -1.6917    0.0000 C   0  0  0  0  0  0  0  0  0  0  0  0
   -0.4874   -2.5167    0.0000 C   0  0  0  0  0  0  0  0  0  0  0  0
    0.2271   -2.9292    0.0000 C   0  0  0  0  0  0  0  0  0  0  0  0
    0.9416   -2.5167    0.0000 C   0  0  0  0  0  0  0  0  0  0  0  0
    3.0850   -0.4542    0.0000 O   0  0  0  0  0  0  0  0  0  0  0  0
  2  1  1  0  0  0  0
  3  2  2  0  0  0  0
  4  3  1  0  0  0  0
  5  4  2  0  0  0  0
  6  5  1  0  0  0  0
  1  6  2  0  0  0  0
  6  7  1  0  0  0  0
  7  8  1  0  0  0  0
  7  9  2  0  0  0  0
  1 10  1  0  0  0  0
 10 11  1  0  0  0  0
 11 12  1  0  0  0  0
 12 13  1  0  0  0  0
 14 13  1  0  0  0  0
 15 14  2  0  0  0  0
 16 15  1  0  0  0  0
 17 16  2  0  0  0  0
 18 17  1  0  0  0  0
 13 18  2  0  0  0  0
 10 19  2  0  0  0  0
M  END
> <ChemID>
10549

> <CAS>
2528-16-7

> <Original_SMILES>
OC(=O)c1ccccc1C(=O)OCc1ccccc1

> <preferred_name>
Monobenzyl phthalate

> <dsstox_substance_id>
DTXSID9043938

> <dsstox_compound_id>
DTXCID7023938

> <Canonical_QSARr>
OC(=O)C1C=CC=CC=1C(=O)OCC1C=CC=CC=1

> <InChI_Code_QSARr>
InChI=1S/C15H12O4/c16-14(17)12-8-4-5-9-13(12)15(18)19-10-11-6-2-1-3-7-11/h1-9H,10H2,(H,16,17)

> <InChI Key_QSARr>
XIKIUQUXDNHBFR-UHFFFAOYSA-N

> <Salt_Solvent>


> <Salt_Solvent_ID>
0

> <Clint>
-7.0

> <Tr_1_Tst_0>
1

$$$$
Row436
  Mrv171c012261910192D          

 25 26  0  0  0  0            999 V2000
    3.6665   -1.9711    0.0000 C   0  0  0  0  0  0  0  0  0  0  0  0
    2.9520   -2.3836    0.0000 C   0  0  0  0  0  0  0  0  0  0  0  0
    2.9520   -3.2086    0.0000 C   0  0  0  0  0  0  0  0  0  0  0  0
    3.6665   -3.6211    0.0000 C   0  0  0  0  0  0  0  0  0  0  0  0
    4.3810   -3.2086    0.0000 C   0  0  0  0  0  0  0  0  0  0  0  0
    4.3810   -2.3836    0.0000 C   0  0  0  0  0  0  0  0  0  0  0  0
    5.0954   -1.9711    0.0000 O   0  0  0  0  0  0  0  0  0  0  0  0
    5.8099   -2.3836    0.0000 C   0  0  0  0  0  0  0  0  0  0  0  0
    6.5244   -1.9711    0.0000 C   0  0  0  0  0  0  0  0  0  0  0  0
    7.2388   -2.3836    0.0000 C   0  0  0  0  0  0  0  0  0  0  0  0
    7.9533   -1.9711    0.0000 N   0  0  0  0  0  0  0  0  0  0  0  0
    8.6678   -2.3836    0.0000 C   0  0  0  0  0  0  0  0  0  0  0  0
    9.3823   -1.9711    0.0000 C   0  0  0  0  0  0  0  0  0  0  0  0
   10.0967   -2.3836    0.0000 C   0  0  0  0  0  0  0  0  0  0  0  0
    6.5244   -1.1461    0.0000 O   0  0  0  0  0  0  0  0  0  0  0  0
    3.6665   -1.1461    0.0000 C   0  0  0  0  0  0  0  0  0  0  0  0
    2.9520   -0.7336    0.0000 C   0  0  0  0  0  0  0  0  0  0  0  0
    2.9520    0.0914    0.0000 C   0  0  0  0  0  0  0  0  0  0  0  0
    2.2375    0.5039    0.0000 C   0  0  0  0  0  0  0  0  0  0  0  0
    2.2375    1.3289    0.0000 C   0  0  0  0  0  0  0  0  0  0  0  0
    1.5231    1.7414    0.0000 C   0  0  0  0  0  0  0  0  0  0  0  0
    0.8086    1.3289    0.0000 C   0  0  0  0  0  0  0  0  0  0  0  0
    0.8086    0.5039    0.0000 C   0  0  0  0  0  0  0  0  0  0  0  0
    1.5231    0.0914    0.0000 C   0  0  0  0  0  0  0  0  0  0  0  0
    4.3810   -0.7336    0.0000 O   0  0  0  0  0  0  0  0  0  0  0  0
  2  1  1  0  0  0  0
  3  2  2  0  0  0  0
  4  3  1  0  0  0  0
  5  4  2  0  0  0  0
  6  5  1  0  0  0  0
  1  6  2  0  0  0  0
  6  7  1  0  0  0  0
  7  8  1  0  0  0  0
  8  9  1  0  0  0  0
  9 10  1  0  0  0  0
 10 11  1  0  0  0  0
 11 12  1  0  0  0  0
 12 13  1  0  0  0  0
 13 14  1  0  0  0  0
  9 15  1  0  0  0  0
  1 16  1  0  0  0  0
 16 17  1  0  0  0  0
 17 18  1  0  0  0  0
 18 19  1  0  0  0  0
 20 19  2  0  0  0  0
 21 20  1  0  0  0  0
 22 21  2  0  0  0  0
 23 22  1  0  0  0  0
 24 23  2  0  0  0  0
 19 24  1  0  0  0  0
 16 25  2  0  0  0  0
M  END
> <ChemID>
10550

> <CAS>
54063-53-5

> <Original_SMILES>
CCCNCC(O)COc1ccccc1C(=O)CCc1ccccc1

> <preferred_name>
Propafenone

> <dsstox_substance_id>
DTXSID9045184

> <dsstox_compound_id>
DTXCID7025184

> <Canonical_QSARr>
CCCNCC(O)COC1C=CC=CC=1C(=O)CCC1C=CC=CC=1

> <InChI_Code_QSARr>
InChI=1S/C21H27NO3/c1-2-14-22-15-18(23)16-25-21-11-7-6-10-19(21)20(24)13-12-17-8-4-3-5-9-17/h3-11,18,22-23H,2,12-16H2,1H3

> <InChI Key_QSARr>
JWHAUXFOSRPERK-UHFFFAOYSA-N

> <Salt_Solvent>


> <Salt_Solvent_ID>
0

> <Clint>
-3.684029654543082

> <Tr_1_Tst_0>
0

$$$$
Row190
  Mrv171c012261910192D          

 27 29  0  0  0  0            999 V2000
    2.2435   -5.3485    0.0000 C   0  0  0  0  0  0  0  0  0  0  0  0
    2.2435   -6.1735    0.0000 N   0  0  0  0  0  0  0  0  0  0  0  0
    2.9580   -6.5860    0.0000 C   0  0  0  0  0  0  0  0  0  0  0  0
    3.6725   -6.1735    0.0000 C   0  0  0  0  0  0  0  0  0  0  0  0
    3.6725   -5.3485    0.0000 C   0  0  0  0  0  0  0  0  0  0  0  0
    2.9580   -4.9360    0.0000 C   0  0  0  0  0  0  0  0  0  0  0  0
    2.9580   -4.1110    0.0000 N   0  0  0  0  0  0  0  0  0  0  0  0
    3.6725   -3.6985    0.0000 C   0  0  0  0  0  0  0  0  0  0  0  0
    3.6725   -2.8735    0.0000 C   0  0  0  0  0  0  0  0  0  0  0  0
    4.3869   -2.4610    0.0000 C   0  0  0  0  0  0  0  0  0  0  0  0
    4.3869   -1.6360    0.0000 C   0  0  0  0  0  0  0  0  0  0  0  0
    5.1014   -1.2235    0.0000 O   0  0  0  0  0  0  0  0  0  0  0  0
    5.1014   -0.3985    0.0000 C   0  0  0  0  0  0  0  0  0  0  0  0
    5.1014    0.4265    0.0000 F   0  0  0  0  0  0  0  0  0  0  0  0
    4.2764   -0.3985    0.0000 F   0  0  0  0  0  0  0  0  0  0  0  0
    5.9264   -0.3985    0.0000 F   0  0  0  0  0  0  0  0  0  0  0  0
    3.6725   -1.2235    0.0000 C   0  0  0  0  0  0  0  0  0  0  0  0
    2.9580   -1.6360    0.0000 C   0  0  0  0  0  0  0  0  0  0  0  0
    2.9580   -2.4610    0.0000 C   0  0  0  0  0  0  0  0  0  0  0  0
    2.2435   -2.8735    0.0000 O   0  0  0  0  0  0  0  0  0  0  0  0
    2.2435   -3.6985    0.0000 C   0  0  0  0  0  0  0  0  0  0  0  0
    1.5290   -4.9360    0.0000 C   0  0  0  0  0  0  0  0  0  0  0  0
    1.5290   -4.1110    0.0000 C   0  0  0  0  0  0  0  0  0  0  0  0
    0.8146   -3.6985    0.0000 C   0  0  0  0  0  0  0  0  0  0  0  0
    0.1001   -4.1110    0.0000 C   0  0  0  0  0  0  0  0  0  0  0  0
    0.1001   -4.9360    0.0000 C   0  0  0  0  0  0  0  0  0  0  0  0
    0.8146   -5.3485    0.0000 C   0  0  0  0  0  0  0  0  0  0  0  0
  2  1  1  0  0  0  0
  3  2  1  0  0  0  0
  4  3  1  0  0  0  0
  5  4  1  0  0  0  0
  6  5  1  0  0  0  0
  1  6  1  0  0  0  0
  6  7  1  0  0  0  0
  7  8  1  0  0  0  0
  8  9  1  0  0  0  0
 10  9  1  0  0  0  0
 11 10  2  0  0  0  0
 11 12  1  0  0  0  0
 12 13  1  0  0  0  0
 13 14  1  0  0  0  0
 13 15  1  0  0  0  0
 13 16  1  0  0  0  0
 17 11  1  0  0  0  0
 18 17  2  0  0  0  0
 19 18  1  0  0  0  0
  9 19  2  0  0  0  0
 19 20  1  0  0  0  0
 20 21  1  0  0  0  0
  1 22  1  0  0  0  0
 23 22  2  0  0  0  0
 24 23  1  0  0  0  0
 25 24  2  0  0  0  0
 26 25  1  0  0  0  0
 27 26  2  0  0  0  0
 22 27  1  0  0  0  0
M  END
> <ChemID>
10551

> <CAS>
145742-28-5

> <Original_SMILES>
COc1ccc(cc1CN[C@H]1CCCN[C@H]1c1ccccc1)OC(F)(F)F

> <preferred_name>
CP-122721

> <dsstox_substance_id>
DTXSID9047251

> <dsstox_compound_id>
DTXCID7027251

> <Canonical_QSARr>
COC1C=CC(=CC=1CNC1CCCNC1C1C=CC=CC=1)OC(F)(F)F

> <InChI_Code_QSARr>
InChI=1S/C20H23F3N2O2/c1-26-18-10-9-16(27-20(21,22)23)12-15(18)13-25-17-8-5-11-24-19(17)14-6-3-2-4-7-14/h2-4,6-7,9-10,12,17,19,24-25H,5,8,11,13H2,1H3

> <InChI Key_QSARr>
ZIWFCOIGUNPHPM-UHFFFAOYSA-N

> <Salt_Solvent>


> <Salt_Solvent_ID>
0

> <Clint>
0.7915503050273298

> <Tr_1_Tst_0>
1

$$$$
Row285
  Mrv171c012261910192D          

 31 35  0  0  0  0            999 V2000
    5.2733   -4.2438    0.0000 C   0  0  0  0  0  0  0  0  0  0  0  0
    5.9878   -3.8313    0.0000 O   0  0  0  0  0  0  0  0  0  0  0  0
    5.9878   -3.0063    0.0000 C   0  0  0  0  0  0  0  0  0  0  0  0
    6.7023   -2.5938    0.0000 C   0  0  0  0  0  0  0  0  0  0  0  0
    6.7023   -1.7688    0.0000 C   0  0  0  0  0  0  0  0  0  0  0  0
    5.9878   -1.3563    0.0000 C   0  0  0  0  0  0  0  0  0  0  0  0
    5.2733   -1.7688    0.0000 N   0  0  0  0  0  0  0  0  0  0  0  0
    4.5589   -1.3563    0.0000 C   0  0  0  0  0  0  0  0  0  0  0  0
    4.5589   -0.5313    0.0000 C   0  0  0  0  0  0  0  0  0  0  0  0
    3.8444   -0.1188    0.0000 C   0  0  0  0  0  0  0  0  0  0  0  0
    3.8444    0.7062    0.0000 C   0  0  0  0  0  0  0  0  0  0  0  0
    3.1299    1.1187    0.0000 C   0  0  0  0  0  0  0  0  0  0  0  0
    2.4155    0.7062    0.0000 C   0  0  0  0  0  0  0  0  0  0  0  0
    1.6308    0.9612    0.0000 O   0  0  0  0  0  0  0  0  0  0  0  0
    1.1459    0.2937    0.0000 C   0  0  0  0  0  0  0  0  0  0  0  0
    1.6308   -0.3737    0.0000 O   0  0  0  0  0  0  0  0  0  0  0  0
    2.4155   -0.1188    0.0000 C   0  0  0  0  0  0  0  0  0  0  0  0
    3.1299   -0.5313    0.0000 C   0  0  0  0  0  0  0  0  0  0  0  0
    5.2733   -2.5938    0.0000 C   0  0  0  0  0  0  0  0  0  0  0  0
    5.2733   -5.0688    0.0000 C   0  0  0  0  0  0  0  0  0  0  0  0
    4.5589   -5.4813    0.0000 C   0  0  0  0  0  0  0  0  0  0  0  0
    4.5589   -6.3063    0.0000 C   0  0  0  0  0  0  0  0  0  0  0  0
    5.2733   -6.7188    0.0000 C   0  0  0  0  0  0  0  0  0  0  0  0
    5.9878   -6.3063    0.0000 C   0  0  0  0  0  0  0  0  0  0  0  0
    5.9878   -5.4813    0.0000 C   0  0  0  0  0  0  0  0  0  0  0  0
    4.5589   -3.8313    0.0000 C   0  0  0  0  0  0  0  0  0  0  0  0
    4.5589   -3.0063    0.0000 C   0  0  0  0  0  0  0  0  0  0  0  0
    3.8444   -2.5938    0.0000 C   0  0  0  0  0  0  0  0  0  0  0  0
    3.1299   -3.0063    0.0000 C   0  0  0  0  0  0  0  0  0  0  0  0
    3.1299   -3.8313    0.0000 C   0  0  0  0  0  0  0  0  0  0  0  0
    3.8444   -4.2438    0.0000 C   0  0  0  0  0  0  0  0  0  0  0  0
  1  2  1  0  0  0  0
  2  3  1  0  0  0  0
  4  3  1  0  0  0  0
  5  4  1  0  0  0  0
  6  5  1  0  0  0  0
  7  6  1  0  0  0  0
  7  8  1  0  0  0  0
  8  9  1  0  0  0  0
  9 10  1  0  0  0  0
 11 10  1  0  0  0  0
 12 11  2  0  0  0  0
 13 12  1  0  0  0  0
 13 14  1  0  0  0  0
 14 15  1  0  0  0  0
 15 16  1  0  0  0  0
 16 17  1  0  0  0  0
 17 13  2  0  0  0  0
 18 17  1  0  0  0  0
 10 18  2  0  0  0  0
 19  7  1  0  0  0  0
  3 19  1  0  0  0  0
  1 20  1  0  0  0  0
 21 20  1  0  0  0  0
 22 21  2  0  0  0  0
 23 22  1  0  0  0  0
 24 23  2  0  0  0  0
 25 24  1  0  0  0  0
 20 25  2  0  0  0  0
  1 26  1  0  0  0  0
 27 26  1  0  0  0  0
 28 27  2  0  0  0  0
 29 28  1  0  0  0  0
 30 29  2  0  0  0  0
 31 30  1  0  0  0  0
 26 31  2  0  0  0  0
M  END
> <ChemID>
10552

> <CAS>
127308-82-1

> <Original_SMILES>
C1Oc2cc(CCN3C[C@@H](CCC3)OC(c3ccccc3)c3ccccc3)ccc2O1

> <preferred_name>
Zamifenacin

> <dsstox_substance_id>
DTXSID9047257

> <dsstox_compound_id>
DTXCID7027257

> <Canonical_QSARr>
C1C(CCCN1CCC1C=CC2OCOC=2C=1)OC(C1C=CC=CC=1)C1C=CC=CC=1

> <InChI_Code_QSARr>
InChI=1S/C27H29NO3/c1-3-8-22(9-4-1)27(23-10-5-2-6-11-23)31-24-12-7-16-28(19-24)17-15-21-13-14-25-26(18-21)30-20-29-25/h1-6,8-11,13-14,18,24,27H,7,12,15-17,19-20H2

> <InChI Key_QSARr>
BDNFQGRSKSQXRI-UHFFFAOYSA-N

> <Salt_Solvent>


> <Salt_Solvent_ID>
0

> <Clint>
1.2331992415847732

> <Tr_1_Tst_0>
1

$$$$
Row310
  Mrv171c012261910192D          

 14 16  0  0  0  0            999 V2000
    1.3636   -1.7260    0.0000 C   0  0  0  0  0  0  0  0  0  0  0  0
    2.0310   -2.2110    0.0000 C   0  0  0  0  0  0  0  0  0  0  0  0
    2.6985   -1.7260    0.0000 C   0  0  0  0  0  0  0  0  0  0  0  0
    3.5054   -1.8976    0.0000 C   0  0  0  0  0  0  0  0  0  0  0  0
    4.0575   -1.2845    0.0000 C   0  0  0  0  0  0  0  0  0  0  0  0
    3.8025   -0.4999    0.0000 C   0  0  0  0  0  0  0  0  0  0  0  0
    2.9956   -0.3283    0.0000 C   0  0  0  0  0  0  0  0  0  0  0  0
    2.4435   -0.9414    0.0000 C   0  0  0  0  0  0  0  0  0  0  0  0
    1.6185   -0.9414    0.0000 C   0  0  0  0  0  0  0  0  0  0  0  0
    1.0665   -0.3283    0.0000 C   0  0  0  0  0  0  0  0  0  0  0  0
    0.2595   -0.4999    0.0000 C   0  0  0  0  0  0  0  0  0  0  0  0
    0.0046   -1.2845    0.0000 C   0  0  0  0  0  0  0  0  0  0  0  0
    0.5566   -1.8976    0.0000 C   0  0  0  0  0  0  0  0  0  0  0  0
    4.3546    0.1132    0.0000 O   0  0  0  0  0  0  0  0  0  0  0  0
  2  1  1  0  0  0  0
  3  2  1  0  0  0  0
  3  4  1  0  0  0  0
  4  5  2  0  0  0  0
  5  6  1  0  0  0  0
  6  7  2  0  0  0  0
  7  8  1  0  0  0  0
  8  3  2  0  0  0  0
  9  8  1  0  0  0  0
  9  1  1  0  0  0  0
 10  9  2  0  0  0  0
 11 10  1  0  0  0  0
 12 11  2  0  0  0  0
 13 12  1  0  0  0  0
  1 13  2  0  0  0  0
  6 14  1  0  0  0  0
M  END
> <ChemID>
10553

> <CAS>
6344-67-8

> <Original_SMILES>
Oc1cc2c(Cc3ccccc-23)cc1

> <preferred_name>
3-Hydroxyfluorene

> <dsstox_substance_id>
DTXSID9047540

> <dsstox_compound_id>
DTXCID7027540

> <Canonical_QSARr>
OC1=CC2=C(CC3=CC=CC=C23)C=C1

> <InChI_Code_QSARr>
InChI=1S/C13H10O/c14-11-6-5-10-7-9-3-1-2-4-12(9)13(10)8-11/h1-6,8,14H,7H2

> <InChI Key_QSARr>
PVUBSZGNXLNTLX-UHFFFAOYSA-N

> <Salt_Solvent>


> <Salt_Solvent_ID>
0

> <Clint>
1.3130231103232382

> <Tr_1_Tst_0>
1

$$$$
Row313
  Mrv171c012261910192D          

 15 17  0  0  0  0            999 V2000
    1.5465   -2.0867    0.0000 C   0  0  0  0  0  0  0  0  0  0  0  0
    2.3715   -2.0867    0.0000 C   0  0  0  0  0  0  0  0  0  0  0  0
    2.7840   -2.8012    0.0000 C   0  0  0  0  0  0  0  0  0  0  0  0
    3.6090   -2.8012    0.0000 C   0  0  0  0  0  0  0  0  0  0  0  0
    4.0215   -2.0867    0.0000 C   0  0  0  0  0  0  0  0  0  0  0  0
    3.6090   -1.3722    0.0000 C   0  0  0  0  0  0  0  0  0  0  0  0
    2.7840   -1.3722    0.0000 C   0  0  0  0  0  0  0  0  0  0  0  0
    2.3715   -0.6578    0.0000 C   0  0  0  0  0  0  0  0  0  0  0  0
    1.5465   -0.6578    0.0000 C   0  0  0  0  0  0  0  0  0  0  0  0
    1.1340    0.0567    0.0000 O   0  0  0  0  0  0  0  0  0  0  0  0
    1.1340   -1.3722    0.0000 C   0  0  0  0  0  0  0  0  0  0  0  0
    0.3090   -1.3722    0.0000 C   0  0  0  0  0  0  0  0  0  0  0  0
   -0.1035   -2.0867    0.0000 C   0  0  0  0  0  0  0  0  0  0  0  0
    0.3090   -2.8012    0.0000 C   0  0  0  0  0  0  0  0  0  0  0  0
    1.1340   -2.8012    0.0000 C   0  0  0  0  0  0  0  0  0  0  0  0
  2  1  1  0  0  0  0
  2  3  1  0  0  0  0
  3  4  2  0  0  0  0
  4  5  1  0  0  0  0
  5  6  2  0  0  0  0
  6  7  1  0  0  0  0
  7  2  2  0  0  0  0
  8  7  1  0  0  0  0
  9  8  2  0  0  0  0
  9 10  1  0  0  0  0
 11  9  1  0  0  0  0
 11  1  1  0  0  0  0
 12 11  2  0  0  0  0
 13 12  1  0  0  0  0
 14 13  2  0  0  0  0
 15 14  1  0  0  0  0
  1 15  2  0  0  0  0
M  END
> <ChemID>
10554

> <CAS>
484-17-3

> <Original_SMILES>
Oc1cc2ccccc2c2ccccc21

> <preferred_name>
9-Phenanthrol

> <dsstox_substance_id>
DTXSID9047592

> <dsstox_compound_id>
DTXCID7027592

> <Canonical_QSARr>
OC1=CC2C=CC=CC=2C2=CC=CC=C21

> <InChI_Code_QSARr>
InChI=1S/C14H10O/c15-14-9-10-5-1-2-6-11(10)12-7-3-4-8-13(12)14/h1-9,15H

> <InChI Key_QSARr>
DZKIUEHLEXLYKM-UHFFFAOYSA-N

> <Salt_Solvent>


> <Salt_Solvent_ID>
0

> <Clint>
1.321805483857539

> <Tr_1_Tst_0>
1

$$$$
