100001
  Mrv171c012241914302D          

  2  1  0  0  0  0            999 V2000
    0.8250    0.0000    0.0000 C   0  0  0  0  0  0  0  0  0  0  0  0
    0.0000    0.0000    0.0000 O   0  0  0  0  0  0  0  0  0  0  0  0
  1  2  2  0  0  0  0
M  END
> <ChemID>
100001

> <CAS>
50-00-0

> <Original_SMILES>
C=O

> <preferred_name>
Formaldehyde

> <dsstox_substance_id>
DTXSID7020637

> <dsstox_compound_id>
DTXCID30637

> <qc_level>
DSSTox_High

> <Canonical_QSARr>
C=O

> <InChI_Code_QSARr>
InChI=1S/CH2O/c1-2/h1H2

> <InChI Key_QSARr>
WSFSSNUMVMOOMR-UHFFFAOYSA-N

> <Salt_Solvent>


> <Salt_Solvent_ID>
0

> <MPID>
102186

> <HL Reference>
BETTERTON,EA & HOFFMAN,MR (1988)

> <HL Temperature>
25

> <LogHL>
-6.472370099128639

> <Tr_1_Tst_0>
1

$$$$
100003
  Mrv171c012241914302D          

 19 20  0  0  0  0            999 V2000
    1.3190   -2.0632    0.0000 Cl  0  0  0  0  0  0  0  0  0  0  0  0
    1.7315   -2.7776    0.0000 C   0  0  0  0  0  0  0  0  0  0  0  0
    2.1440   -3.4921    0.0000 Cl  0  0  0  0  0  0  0  0  0  0  0  0
    1.0170   -3.1901    0.0000 Cl  0  0  0  0  0  0  0  0  0  0  0  0
    2.4459   -2.3651    0.0000 C   0  0  0  0  0  0  0  0  0  0  0  0
    2.4459   -1.5401    0.0000 C   0  0  0  0  0  0  0  0  0  0  0  0
    3.1604   -1.1276    0.0000 C   0  0  0  0  0  0  0  0  0  0  0  0
    3.1604   -0.3026    0.0000 C   0  0  0  0  0  0  0  0  0  0  0  0
    2.4459    0.1099    0.0000 C   0  0  0  0  0  0  0  0  0  0  0  0
    2.4459    0.9349    0.0000 Cl  0  0  0  0  0  0  0  0  0  0  0  0
    1.7315   -0.3026    0.0000 C   0  0  0  0  0  0  0  0  0  0  0  0
    1.7315   -1.1276    0.0000 C   0  0  0  0  0  0  0  0  0  0  0  0
    3.1604   -2.7776    0.0000 C   0  0  0  0  0  0  0  0  0  0  0  0
    3.1604   -3.6026    0.0000 C   0  0  0  0  0  0  0  0  0  0  0  0
    3.8749   -4.0151    0.0000 C   0  0  0  0  0  0  0  0  0  0  0  0
    4.5894   -3.6026    0.0000 C   0  0  0  0  0  0  0  0  0  0  0  0
    5.3038   -4.0151    0.0000 Cl  0  0  0  0  0  0  0  0  0  0  0  0
    4.5894   -2.7776    0.0000 C   0  0  0  0  0  0  0  0  0  0  0  0
    3.8749   -2.3651    0.0000 C   0  0  0  0  0  0  0  0  0  0  0  0
  1  2  1  0  0  0  0
  2  3  1  0  0  0  0
  2  4  1  0  0  0  0
  2  5  1  0  0  0  0
  5  6  1  0  0  0  0
  7  6  1  0  0  0  0
  8  7  2  0  0  0  0
  9  8  1  0  0  0  0
  9 10  1  0  0  0  0
 11  9  2  0  0  0  0
 12 11  1  0  0  0  0
  6 12  2  0  0  0  0
  5 13  1  0  0  0  0
 14 13  1  0  0  0  0
 15 14  2  0  0  0  0
 16 15  1  0  0  0  0
 16 17  1  0  0  0  0
 18 16  2  0  0  0  0
 19 18  1  0  0  0  0
 13 19  2  0  0  0  0
M  END
> <ChemID>
100003

> <CAS>
50-29-3

> <Original_SMILES>
ClC(Cl)(Cl)C(c1ccc(Cl)cc1)c1ccc(Cl)cc1

> <preferred_name>
p,p'-DDT

> <dsstox_substance_id>
DTXSID4020375

> <dsstox_compound_id>
DTXCID20375

> <qc_level>
DSSTox_High

> <Canonical_QSARr>
ClC(Cl)(Cl)C(C1C=CC(Cl)=CC=1)C1C=CC(Cl)=CC=1

> <InChI_Code_QSARr>
InChI=1S/C14H9Cl5/c15-11-5-1-9(2-6-11)13(14(17,18)19)10-3-7-12(16)8-4-10/h1-8,13H

> <InChI Key_QSARr>
YVGGHNCTFXOJCH-UHFFFAOYSA-N

> <Salt_Solvent>


> <Salt_Solvent_ID>
0

> <MPID>
102187

> <HL Reference>
ALTSCHUH,J ET AL. (1999)

> <HL Temperature>
25

> <LogHL>
-5.079876673709294

> <Tr_1_Tst_0>
1

$$$$
100005
  Mrv171c012241914302D          

 20 24  0  0  0  0            999 V2000
    2.8348   -2.5049    0.0000 C   0  0  0  0  0  0  0  0  0  0  0  0
    3.1048   -1.7254    0.0000 C   0  0  0  0  0  0  0  0  0  0  0  0
    3.9149   -1.5695    0.0000 C   0  0  0  0  0  0  0  0  0  0  0  0
    4.4550   -2.1931    0.0000 C   0  0  0  0  0  0  0  0  0  0  0  0
    5.2652   -2.0372    0.0000 C   0  0  0  0  0  0  0  0  0  0  0  0
    5.5352   -1.2576    0.0000 C   0  0  0  0  0  0  0  0  0  0  0  0
    4.9951   -0.6340    0.0000 C   0  0  0  0  0  0  0  0  0  0  0  0
    4.1850   -0.7899    0.0000 C   0  0  0  0  0  0  0  0  0  0  0  0
    3.6449   -0.1663    0.0000 C   0  0  0  0  0  0  0  0  0  0  0  0
    2.8348   -0.3222    0.0000 C   0  0  0  0  0  0  0  0  0  0  0  0
    2.5647   -1.1017    0.0000 C   0  0  0  0  0  0  0  0  0  0  0  0
    1.7546   -1.2576    0.0000 C   0  0  0  0  0  0  0  0  0  0  0  0
    1.2145   -0.6340    0.0000 C   0  0  0  0  0  0  0  0  0  0  0  0
    1.4845    0.1456    0.0000 C   0  0  0  0  0  0  0  0  0  0  0  0
    2.2947    0.3015    0.0000 C   0  0  0  0  0  0  0  0  0  0  0  0
    0.4043   -0.7899    0.0000 C   0  0  0  0  0  0  0  0  0  0  0  0
    0.1343   -1.5695    0.0000 C   0  0  0  0  0  0  0  0  0  0  0  0
    0.6744   -2.1931    0.0000 C   0  0  0  0  0  0  0  0  0  0  0  0
    1.4845   -2.0372    0.0000 C   0  0  0  0  0  0  0  0  0  0  0  0
    2.0246   -2.6608    0.0000 C   0  0  0  0  0  0  0  0  0  0  0  0
  2  1  1  0  0  0  0
  2  3  2  0  0  0  0
  4  3  1  0  0  0  0
  5  4  2  0  0  0  0
  6  5  1  0  0  0  0
  7  6  2  0  0  0  0
  8  7  1  0  0  0  0
  3  8  1  0  0  0  0
  8  9  2  0  0  0  0
  9 10  1  0  0  0  0
 10 11  1  0  0  0  0
 11  2  1  0  0  0  0
 11 12  2  0  0  0  0
 12 13  1  0  0  0  0
 13 14  2  0  0  0  0
 14 15  1  0  0  0  0
 15 10  2  0  0  0  0
 13 16  1  0  0  0  0
 16 17  2  0  0  0  0
 17 18  1  0  0  0  0
 18 19  2  0  0  0  0
 19 12  1  0  0  0  0
 20 19  1  0  0  0  0
  1 20  2  0  0  0  0
M  END
> <ChemID>
100005

> <CAS>
50-32-8

> <Original_SMILES>
c1c2ccccc2c2ccc3cccc4ccc1c2c34

> <preferred_name>
Benzo(a)pyrene

> <dsstox_substance_id>
DTXSID2020139

> <dsstox_compound_id>
DTXCID40139

> <qc_level>
DSSTox_Low

> <Canonical_QSARr>
C1C2=CC=C3C=CC=C4C=CC(C2=C34)=C2C=CC=CC2=1

> <InChI_Code_QSARr>
InChI=1S/C20H12/c1-2-7-17-15(4-1)12-16-9-8-13-5-3-6-14-10-11-18(17)20(16)19(13)14/h1-12H

> <InChI Key_QSARr>
FMMWHPNWAFZXNH-UHFFFAOYSA-N

> <Salt_Solvent>


> <Salt_Solvent_ID>
0

> <MPID>
102188

> <HL Reference>
TEN HULSCHER,TEM ET AL. (1992)

> <HL Temperature>
25

> <LogHL>
-6.340083799930146

> <Tr_1_Tst_0>
1

$$$$
100009
  Mrv171c012241914302D          

 13 13  0  0  0  0            999 V2000
    2.6359   -2.9487    0.0000 O   0  0  0  0  0  0  0  0  0  0  0  0
    2.6359   -2.1237    0.0000 C   0  0  0  0  0  0  0  0  0  0  0  0
    3.3504   -1.7112    0.0000 C   0  0  0  0  0  0  0  0  0  0  0  0
    3.3504   -0.8862    0.0000 C   0  0  0  0  0  0  0  0  0  0  0  0
    2.6359   -0.4737    0.0000 C   0  0  0  0  0  0  0  0  0  0  0  0
    2.6359    0.3513    0.0000 N   0  3  0  0  0  0  0  0  0  0  0  0
    1.9215    0.7638    0.0000 O   0  5  0  0  0  0  0  0  0  0  0  0
    3.3504    0.7638    0.0000 O   0  0  0  0  0  0  0  0  0  0  0  0
    1.9215   -0.8862    0.0000 C   0  0  0  0  0  0  0  0  0  0  0  0
    1.9215   -1.7112    0.0000 C   0  0  0  0  0  0  0  0  0  0  0  0
    1.2070   -2.1237    0.0000 N   0  3  0  0  0  0  0  0  0  0  0  0
    1.2070   -2.9487    0.0000 O   0  5  0  0  0  0  0  0  0  0  0  0
    0.4925   -1.7112    0.0000 O   0  0  0  0  0  0  0  0  0  0  0  0
  1  2  1  0  0  0  0
  3  2  1  0  0  0  0
  4  3  2  0  0  0  0
  5  4  1  0  0  0  0
  5  6  1  0  0  0  0
  6  7  1  0  0  0  0
  6  8  2  0  0  0  0
  9  5  2  0  0  0  0
 10  9  1  0  0  0  0
  2 10  2  0  0  0  0
 10 11  1  0  0  0  0
 11 12  1  0  0  0  0
 11 13  2  0  0  0  0
M  CHG  4   6   1   7  -1  11   1  12  -1
M  END
> <ChemID>
100009

> <CAS>
51-28-5

> <Original_SMILES>
[O-][N+](=O)c1cc(ccc1O)[N+]([O-])=O

> <preferred_name>
2,4-Dinitrophenol

> <dsstox_substance_id>
DTXSID0020523

> <dsstox_compound_id>
DTXCID80523

> <qc_level>
DSSTox_Low

> <Canonical_QSARr>
[O-][N+](=O)C1C=C(C=CC=1O)[N+]([O-])=O

> <InChI_Code_QSARr>
InChI=1S/C6H4N2O5/c9-6-2-1-4(7(10)11)3-5(6)8(12)13/h1-3,9H

> <InChI Key_QSARr>
UFBJCMHMOXMLKC-UHFFFAOYSA-N

> <Salt_Solvent>


> <Salt_Solvent_ID>
0

> <MPID>
102189

> <HL Reference>
TREMP,J ET AL. (1993)

> <HL Temperature>
20

> <LogHL>
-7.065501548756431

> <Tr_1_Tst_0>
1

$$$$
100016
  Mrv171c012241914302D          

  7  6  0  0  0  0            999 V2000
    2.9435   -1.6746    0.0000 C   0  0  0  0  0  0  0  0  0  0  0  0
    2.5310   -0.9601    0.0000 C   0  0  0  0  0  0  0  0  0  0  0  0
    1.7060   -0.9601    0.0000 N   0  0  0  0  0  0  0  0  0  0  0  0
    1.2935   -0.2456    0.0000 N   0  0  0  0  0  0  0  0  0  0  0  0
    0.4685   -0.2456    0.0000 O   0  0  0  0  0  0  0  0  0  0  0  0
    1.2935   -1.6746    0.0000 C   0  0  0  0  0  0  0  0  0  0  0  0
    0.4685   -1.6746    0.0000 C   0  0  0  0  0  0  0  0  0  0  0  0
  1  2  1  0  0  0  0
  2  3  1  0  0  0  0
  3  4  1  0  0  0  0
  4  5  2  0  0  0  0
  3  6  1  0  0  0  0
  6  7  1  0  0  0  0
M  END
> <ChemID>
100016

> <CAS>
55-18-5

> <Original_SMILES>
CCN(CC)N=O

> <preferred_name>
N-Nitrosodiethylamine

> <dsstox_substance_id>
DTXSID2021028

> <dsstox_compound_id>
DTXCID901028

> <qc_level>
DSSTox_Low

> <Canonical_QSARr>
CCN(CC)N=O

> <InChI_Code_QSARr>
InChI=1S/C4H10N2O/c1-3-6(4-2)5-7/h3-4H2,1-2H3

> <InChI Key_QSARr>
WBNQDOYYEUMPFS-UHFFFAOYSA-N

> <Salt_Solvent>


> <Salt_Solvent_ID>
0

> <MPID>
102190

> <HL Reference>
MIRVISH,SS ET AL. (1976)

> <HL Temperature>
25

> <LogHL>
-5.440093374963881

> <Tr_1_Tst_0>
0

$$$$
100017
  Mrv171c012241914302D          

  9  9  0  0  0  0            999 V2000
    2.1337   -0.9436    0.0000 C   0  0  0  0  0  0  0  0  0  0  0  0
    1.4193   -0.5311    0.0000 C   0  0  0  0  0  0  0  0  0  0  0  0
    1.4193    0.2939    0.0000 C   0  0  0  0  0  0  0  0  0  0  0  0
    0.7048    0.7064    0.0000 N   0  0  0  0  0  0  0  0  0  0  0  0
    2.1337    0.7064    0.0000 O   0  0  0  0  0  0  0  0  0  0  0  0
    0.7048   -0.9436    0.0000 C   0  0  0  0  0  0  0  0  0  0  0  0
    0.7048   -1.7686    0.0000 C   0  0  0  0  0  0  0  0  0  0  0  0
    1.4193   -2.1811    0.0000 C   0  0  0  0  0  0  0  0  0  0  0  0
    2.1337   -1.7686    0.0000 C   0  0  0  0  0  0  0  0  0  0  0  0
  2  1  1  0  0  0  0
  2  3  1  0  0  0  0
  3  4  1  0  0  0  0
  3  5  2  0  0  0  0
  6  2  2  0  0  0  0
  7  6  1  0  0  0  0
  8  7  2  0  0  0  0
  9  8  1  0  0  0  0
  1  9  2  0  0  0  0
M  END
> <ChemID>
100017

> <CAS>
55-21-0

> <Original_SMILES>
NC(=O)c1ccccc1

> <preferred_name>
Benzamide

> <dsstox_substance_id>
DTXSID0021709

> <dsstox_compound_id>
DTXCID101709

> <qc_level>
DSSTox_Low

> <Canonical_QSARr>
NC(=O)C1C=CC=CC=1

> <InChI_Code_QSARr>
InChI=1S/C7H7NO/c8-7(9)6-4-2-1-3-5-6/h1-5H,(H2,8,9)

> <InChI Key_QSARr>
KXDAEFPNCMNJSK-UHFFFAOYSA-N

> <Salt_Solvent>


> <Salt_Solvent_ID>
0

> <MPID>
102191

> <HL Reference>
ABRAHAM,MH ET AL. (1994)

> <HL Temperature>
25

> <LogHL>
-9.610833915635457

> <Tr_1_Tst_0>
1

$$$$
100021
  Mrv171c012241914302D          

  5  4  0  0  0  0            999 V2000
    0.8250   -1.6500    0.0000 Cl  0  0  0  0  0  0  0  0  0  0  0  0
    0.8250   -0.8250    0.0000 C   0  0  0  0  0  0  0  0  0  0  0  0
    0.8250    0.0000    0.0000 Cl  0  0  0  0  0  0  0  0  0  0  0  0
    1.6500   -0.8250    0.0000 Cl  0  0  0  0  0  0  0  0  0  0  0  0
    0.0000   -0.8250    0.0000 Cl  0  0  0  0  0  0  0  0  0  0  0  0
  1  2  1  0  0  0  0
  2  3  1  0  0  0  0
  2  4  1  0  0  0  0
  2  5  1  0  0  0  0
M  END
> <ChemID>
100021

> <CAS>
56-23-5

> <Original_SMILES>
ClC(Cl)(Cl)Cl

> <preferred_name>
Carbon tetrachloride

> <dsstox_substance_id>
DTXSID8020250

> <dsstox_compound_id>
DTXCID20250

> <qc_level>
DSSTox_Low

> <Canonical_QSARr>
ClC(Cl)(Cl)Cl

> <InChI_Code_QSARr>
InChI=1S/CCl4/c2-1(3,4)5

> <InChI Key_QSARr>
VZGDMQKNWNREIO-UHFFFAOYSA-N

> <Salt_Solvent>


> <Salt_Solvent_ID>
0

> <MPID>
102192

> <HL Reference>
LEIGHTON,DTJR & CALO,JM (1981)

> <HL Temperature>
25

> <LogHL>
-1.559090917934781

> <Tr_1_Tst_0>
1

$$$$
100024
  Mrv171c012241914302D          

 18 18  0  0  0  0            999 V2000
    2.3786   -1.4485    0.0000 S   0  0  0  0  0  0  0  0  0  0  0  0
    2.7911   -2.1629    0.0000 P   0  0  0  0  0  0  0  0  0  0  0  0
    2.0766   -2.5754    0.0000 O   0  0  0  0  0  0  0  0  0  0  0  0
    2.0766   -3.4004    0.0000 C   0  0  0  0  0  0  0  0  0  0  0  0
    1.3621   -3.8129    0.0000 C   0  0  0  0  0  0  0  0  0  0  0  0
    3.2036   -2.8774    0.0000 O   0  0  0  0  0  0  0  0  0  0  0  0
    2.7911   -3.5919    0.0000 C   0  0  0  0  0  0  0  0  0  0  0  0
    3.2036   -4.3063    0.0000 C   0  0  0  0  0  0  0  0  0  0  0  0
    3.5055   -1.7504    0.0000 O   0  0  0  0  0  0  0  0  0  0  0  0
    3.5055   -0.9254    0.0000 C   0  0  0  0  0  0  0  0  0  0  0  0
    4.2200   -0.5129    0.0000 C   0  0  0  0  0  0  0  0  0  0  0  0
    4.2200    0.3121    0.0000 C   0  0  0  0  0  0  0  0  0  0  0  0
    3.5055    0.7246    0.0000 C   0  0  0  0  0  0  0  0  0  0  0  0
    3.5055    1.5496    0.0000 N   0  3  0  0  0  0  0  0  0  0  0  0
    2.7911    1.9621    0.0000 O   0  5  0  0  0  0  0  0  0  0  0  0
    4.2200    1.9621    0.0000 O   0  0  0  0  0  0  0  0  0  0  0  0
    2.7911    0.3121    0.0000 C   0  0  0  0  0  0  0  0  0  0  0  0
    2.7911   -0.5129    0.0000 C   0  0  0  0  0  0  0  0  0  0  0  0
  1  2  2  0  0  0  0
  2  3  1  0  0  0  0
  3  4  1  0  0  0  0
  4  5  1  0  0  0  0
  2  6  1  0  0  0  0
  6  7  1  0  0  0  0
  7  8  1  0  0  0  0
  2  9  1  0  0  0  0
  9 10  1  0  0  0  0
 11 10  1  0  0  0  0
 12 11  2  0  0  0  0
 13 12  1  0  0  0  0
 13 14  1  0  0  0  0
 14 15  1  0  0  0  0
 14 16  2  0  0  0  0
 17 13  2  0  0  0  0
 18 17  1  0  0  0  0
 10 18  2  0  0  0  0
M  CHG  2  14   1  15  -1
M  END
> <ChemID>
100024

> <CAS>
56-38-2

> <Original_SMILES>
CCOP(=S)(Oc1ccc(cc1)[N+]([O-])=O)OCC

> <preferred_name>
Parathion

> <dsstox_substance_id>
DTXSID7021100

> <dsstox_compound_id>
DTXCID301100

> <qc_level>
DSSTox_Low

> <Canonical_QSARr>
CCOP(=S)(OC1C=CC(=CC=1)[N+]([O-])=O)OCC

> <InChI_Code_QSARr>
InChI=1S/C10H14NO5PS/c1-3-14-17(18,15-4-2)16-10-7-5-9(6-8-10)11(12)13/h5-8H,3-4H2,1-2H3

> <InChI Key_QSARr>
LCCNCVORNKJIRZ-UHFFFAOYSA-N

> <Salt_Solvent>


> <Salt_Solvent_ID>
0

> <MPID>
102193

> <HL Reference>
TOMLIN,C (1997)

> <HL Temperature>
25

> <LogHL>
-6.525783735923741

> <Tr_1_Tst_0>
1

$$$$
100026
  Mrv171c012241914302D          

 18 21  0  0  0  0            999 V2000
    2.8633   -1.7226    0.0000 C   0  0  0  0  0  0  0  0  0  0  0  0
    3.6734   -1.5667    0.0000 C   0  0  0  0  0  0  0  0  0  0  0  0
    3.9434   -0.7872    0.0000 C   0  0  0  0  0  0  0  0  0  0  0  0
    4.7536   -0.6313    0.0000 C   0  0  0  0  0  0  0  0  0  0  0  0
    5.2937   -1.2549    0.0000 C   0  0  0  0  0  0  0  0  0  0  0  0
    5.0236   -2.0345    0.0000 C   0  0  0  0  0  0  0  0  0  0  0  0
    4.2135   -2.1904    0.0000 C   0  0  0  0  0  0  0  0  0  0  0  0
    3.9434   -2.9699    0.0000 C   0  0  0  0  0  0  0  0  0  0  0  0
    3.1333   -3.1258    0.0000 C   0  0  0  0  0  0  0  0  0  0  0  0
    2.5932   -2.5022    0.0000 C   0  0  0  0  0  0  0  0  0  0  0  0
    1.7831   -2.6581    0.0000 C   0  0  0  0  0  0  0  0  0  0  0  0
    1.2430   -2.0345    0.0000 C   0  0  0  0  0  0  0  0  0  0  0  0
    0.4329   -2.1904    0.0000 C   0  0  0  0  0  0  0  0  0  0  0  0
   -0.1072   -1.5667    0.0000 C   0  0  0  0  0  0  0  0  0  0  0  0
    0.1628   -0.7872    0.0000 C   0  0  0  0  0  0  0  0  0  0  0  0
    0.9730   -0.6313    0.0000 C   0  0  0  0  0  0  0  0  0  0  0  0
    1.5130   -1.2549    0.0000 C   0  0  0  0  0  0  0  0  0  0  0  0
    2.3232   -1.0990    0.0000 C   0  0  0  0  0  0  0  0  0  0  0  0
  2  1  1  0  0  0  0
  2  3  1  0  0  0  0
  3  4  2  0  0  0  0
  4  5  1  0  0  0  0
  5  6  2  0  0  0  0
  6  7  1  0  0  0  0
  7  2  2  0  0  0  0
  8  7  1  0  0  0  0
  9  8  2  0  0  0  0
 10  9  1  0  0  0  0
 10  1  1  0  0  0  0
 11 10  2  0  0  0  0
 12 11  1  0  0  0  0
 12 13  1  0  0  0  0
 13 14  2  0  0  0  0
 14 15  1  0  0  0  0
 15 16  2  0  0  0  0
 16 17  1  0  0  0  0
 17 12  2  0  0  0  0
 18 17  1  0  0  0  0
  1 18  2  0  0  0  0
M  END
> <ChemID>
100026

> <CAS>
56-55-3

> <Original_SMILES>
c1c2c3ccccc3ccc2cc2ccccc21

> <preferred_name>
Benz(a)anthracene

> <dsstox_substance_id>
DTXSID5023902

> <dsstox_compound_id>
DTXCID903902

> <qc_level>
DSSTox_Low

> <Canonical_QSARr>
C1=C2C3C=CC=CC=3C=CC2=CC2C=CC=CC=21

> <InChI_Code_QSARr>
InChI=1S/C18H12/c1-2-7-15-12-18-16(11-14(15)6-1)10-9-13-5-3-4-8-17(13)18/h1-12H

> <InChI Key_QSARr>
DXBHBZVCASKNBY-UHFFFAOYSA-N

> <Salt_Solvent>


> <Salt_Solvent_ID>
0

> <MPID>
102194

> <HL Reference>
BAMFORD,HA ET AL. (1999)

> <HL Temperature>
25

> <LogHL>
-4.920818753952386

> <Tr_1_Tst_0>
0

$$$$
100028
  Mrv171c012241914302D          

  6  5  0  0  0  0            999 V2000
    1.4206   -0.4087    0.0000 C   0  0  0  0  0  0  0  0  0  0  0  0
    1.8331   -1.1232    0.0000 C   0  0  0  0  0  0  0  0  0  0  0  0
    1.4206   -1.8377    0.0000 O   0  0  0  0  0  0  0  0  0  0  0  0
    1.8331    0.3057    0.0000 C   0  0  0  0  0  0  0  0  0  0  0  0
    1.4206    1.0202    0.0000 O   0  0  0  0  0  0  0  0  0  0  0  0
    0.5956   -0.4087    0.0000 O   0  0  0  0  0  0  0  0  0  0  0  0
  1  2  1  0  0  0  0
  2  3  1  0  0  0  0
  1  4  1  0  0  0  0
  4  5  1  0  0  0  0
  1  6  1  0  0  0  0
M  END
> <ChemID>
100028

> <CAS>
56-81-5

> <Original_SMILES>
OC(CO)CO

> <preferred_name>
Glycerol

> <dsstox_substance_id>
DTXSID9020663

> <dsstox_compound_id>
DTXCID40662

> <qc_level>
DSSTox_High

> <Canonical_QSARr>
OC(CO)CO

> <InChI_Code_QSARr>
InChI=1S/C3H8O3/c4-1-3(6)2-5/h3-6H,1-2H2

> <InChI Key_QSARr>
PEDCQBHIVMGVHV-UHFFFAOYSA-N

> <Salt_Solvent>


> <Salt_Solvent_ID>
0

> <MPID>
102195

> <HL Reference>
HINE,J & MOOKERJEE,PK (1975)

> <HL Temperature>
25

> <LogHL>
-7.761953896871213

> <Tr_1_Tst_0>
1

$$$$
100034
  Mrv171c012241914302D          

 18 20  0  0  0  0            999 V2000
    1.3175   -1.5147    0.0000 C   0  0  0  0  0  0  0  0  0  0  0  0
    0.4609   -1.4936    0.0000 Cl  0  0  0  0  0  0  0  0  0  0  0  0
    1.7956   -2.1870    0.0000 C   0  0  0  0  0  0  0  0  0  0  0  0
    1.3151   -2.9094    0.0000 Cl  0  0  0  0  0  0  0  0  0  0  0  0
    2.4995   -2.0217    0.0000 C   0  0  0  0  0  0  0  0  0  0  0  0
    3.2930   -2.3598    0.0000 C   0  0  0  0  0  0  0  0  0  0  0  0
    3.5861   -3.1936    0.0000 Cl  0  0  0  0  0  0  0  0  0  0  0  0
    3.5077   -1.5369    0.0000 C   0  0  0  0  0  0  0  0  0  0  0  0
    2.8824   -2.3390    0.0000 Cl  0  0  0  0  0  0  0  0  0  0  0  0
    2.8734   -0.6796    0.0000 Cl  0  0  0  0  0  0  0  0  0  0  0  0
    3.3098   -0.7099    0.0000 C   0  0  0  0  0  0  0  0  0  0  0  0
    3.5557    0.1537    0.0000 Cl  0  0  0  0  0  0  0  0  0  0  0  0
    2.5912   -1.1151    0.0000 C   0  0  0  0  0  0  0  0  0  0  0  0
    1.8092   -0.8522    0.0000 C   0  0  0  0  0  0  0  0  0  0  0  0
    4.0200   -1.1296    0.0000 C   0  0  0  0  0  0  0  0  0  0  0  0
    4.7861   -0.7240    0.0000 Cl  0  0  0  0  0  0  0  0  0  0  0  0
    4.0117   -1.9546    0.0000 C   0  0  0  0  0  0  0  0  0  0  0  0
    4.7785   -2.3615    0.0000 Cl  0  0  0  0  0  0  0  0  0  0  0  0
  1  2  1  0  0  0  0
  3  1  1  0  0  0  0
  3  4  1  0  0  0  0
  5  3  1  0  0  0  0
  5  6  1  0  0  0  0
  6  7  1  0  0  0  0
  8  6  1  0  0  0  0
  8  9  1  0  0  0  0
  8 10  1  0  0  0  0
 11  8  1  0  0  0  0
 11 12  1  0  0  0  0
 11 13  1  0  0  0  0
 13  5  1  0  0  0  0
 14 13  1  0  0  0  0
  1 14  1  0  0  0  0
 15 11  1  0  0  0  0
 15 16  1  0  0  0  0
 17 15  2  0  0  0  0
  6 17  1  0  0  0  0
 17 18  1  0  0  0  0
M  END
> <ChemID>
100034

> <CAS>
57-74-9|5103-71-9|5103-74-2

> <Original_SMILES>
ClC1(Cl)C2(Cl)C3CC(Cl)C(Cl)C3C1(Cl)C(Cl)=C2Cl

> <preferred_name>
Chlordane|cis-Chlordane|trans-Chlordane

> <dsstox_substance_id>
DTXSID7020267|DTXSID6038326|DTXSID4038346

> <dsstox_compound_id>
DTXCID0028117|DTXCID90809620|DTXCID10809622

> <qc_level>
DSSTox_High

> <Canonical_QSARr>
ClC1(Cl)C2(Cl)C3CC(Cl)C(Cl)C3C1(Cl)C(Cl)=C2Cl

> <InChI_Code_QSARr>
InChI=1S/C10H6Cl8/c11-3-1-2-4(5(3)12)9(16)7(14)6(13)8(2,15)10(9,17)18/h2-5H,1H2

> <InChI Key_QSARr>
BIWJNBZANLAXMG-UHFFFAOYSA-N

> <Salt_Solvent>


> <Salt_Solvent_ID>
0

> <MPID>
102196|102666|102667

> <HL Reference>
WARNER,HP ET AL. (1987)|VP/WSOL

> <HL Temperature>
25

> <LogHL>
-3.5328360340309097

> <Tr_1_Tst_0>
0

$$$$
100036
  Mrv171c012241914302D          

 12 12  0  0  0  0            999 V2000
    2.1693   -1.2482    0.0000 C   0  0  0  0  0  0  0  0  0  0  0  0
    2.8837   -0.8357    0.0000 Cl  0  0  0  0  0  0  0  0  0  0  0  0
    1.4548   -0.8357    0.0000 C   0  0  0  0  0  0  0  0  0  0  0  0
    1.4548   -0.0107    0.0000 Cl  0  0  0  0  0  0  0  0  0  0  0  0
    0.7403   -1.2482    0.0000 C   0  0  0  0  0  0  0  0  0  0  0  0
    0.0258   -0.8357    0.0000 Cl  0  0  0  0  0  0  0  0  0  0  0  0
    0.7403   -2.0732    0.0000 C   0  0  0  0  0  0  0  0  0  0  0  0
    0.0258   -2.4857    0.0000 Cl  0  0  0  0  0  0  0  0  0  0  0  0
    1.4548   -2.4857    0.0000 C   0  0  0  0  0  0  0  0  0  0  0  0
    1.4548   -3.3107    0.0000 Cl  0  0  0  0  0  0  0  0  0  0  0  0
    2.1693   -2.0732    0.0000 C   0  0  0  0  0  0  0  0  0  0  0  0
    2.8837   -2.4857    0.0000 Cl  0  0  0  0  0  0  0  0  0  0  0  0
  1  2  1  0  0  0  0
  3  1  1  0  0  0  0
  3  4  1  0  0  0  0
  5  3  1  0  0  0  0
  5  6  1  0  0  0  0
  7  5  1  0  0  0  0
  7  8  1  0  0  0  0
  9  7  1  0  0  0  0
  9 10  1  0  0  0  0
 11  9  1  0  0  0  0
  1 11  1  0  0  0  0
 11 12  1  0  0  0  0
M  END
> <ChemID>
100036

> <CAS>
58-89-9|319-84-6|319-85-7|319-86-8

> <Original_SMILES>
Cl[C@@H]1[C@@H](Cl)[C@H](Cl)[C@H](Cl)[C@@H](Cl)[C@@H]1Cl

> <preferred_name>
Lindane|alpha-1,2,3,4,5,6-Hexachlorocyclohexane|beta-Hexachlorocyclohexane|delta-Hexachlorocyclohexane

> <dsstox_substance_id>
DTXSID2020686|DTXSID2020684|DTXSID7020685|DTXSID5024134

> <dsstox_compound_id>
DTXCID40196532|DTXCID00196533|DTXCID20196535|DTXCID60196534

> <qc_level>
DSSTox_High

> <Canonical_QSARr>
ClC1C(Cl)C(Cl)C(Cl)C(Cl)C1Cl

> <InChI_Code_QSARr>
InChI=1S/C6H6Cl6/c7-1-2(8)4(10)6(12)5(11)3(1)9/h1-6H

> <InChI Key_QSARr>
JLYXXMFPNIAWKQ-UHFFFAOYSA-N

> <Salt_Solvent>


> <Salt_Solvent_ID>
0

> <MPID>
102197|102539|102540|102541

> <HL Reference>
ALTSCHUH,J ET AL. (1999)|KUCKLICK,JR ET AL. (1991)|VP/WSOL

> <HL Temperature>
25

> <LogHL>
-5.4979486116289795

> <Tr_1_Tst_0>
1

$$$$
100042
  Mrv171c012241914302D          

  9  9  0  0  0  0            999 V2000
    0.9052   -2.0546    0.0000 C   0  0  0  0  0  0  0  0  0  0  0  0
    0.9052   -1.2296    0.0000 C   0  0  0  0  0  0  0  0  0  0  0  0
    1.6197   -0.8171    0.0000 C   0  0  0  0  0  0  0  0  0  0  0  0
    1.6197    0.0079    0.0000 O   0  0  0  0  0  0  0  0  0  0  0  0
    0.1908   -2.4671    0.0000 C   0  0  0  0  0  0  0  0  0  0  0  0
    0.1908   -3.2921    0.0000 C   0  0  0  0  0  0  0  0  0  0  0  0
    0.9052   -3.7046    0.0000 C   0  0  0  0  0  0  0  0  0  0  0  0
    1.6197   -3.2921    0.0000 C   0  0  0  0  0  0  0  0  0  0  0  0
    1.6197   -2.4671    0.0000 C   0  0  0  0  0  0  0  0  0  0  0  0
  1  2  1  0  0  0  0
  2  3  1  0  0  0  0
  3  4  1  0  0  0  0
  5  1  1  0  0  0  0
  6  5  2  0  0  0  0
  7  6  1  0  0  0  0
  8  7  2  0  0  0  0
  9  8  1  0  0  0  0
  1  9  2  0  0  0  0
M  END
> <ChemID>
100042

> <CAS>
60-12-8

> <Original_SMILES>
OCCc1ccccc1

> <preferred_name>
2-Phenylethanol

> <dsstox_substance_id>
DTXSID9026342

> <dsstox_compound_id>
DTXCID206342

> <qc_level>
DSSTox_Low

> <Canonical_QSARr>
OCCC1C=CC=CC=1

> <InChI_Code_QSARr>
InChI=1S/C8H10O/c9-7-6-8-4-2-1-3-5-8/h1-5,9H,6-7H2

> <InChI Key_QSARr>
WRMNZCZEMHIOCP-UHFFFAOYSA-N

> <Salt_Solvent>


> <Salt_Solvent_ID>
0

> <MPID>
102198

> <HL Reference>
ABRAHAM,MH ET AL. (1994)

> <HL Temperature>
25

> <LogHL>
-6.591760034688129

> <Tr_1_Tst_0>
0

$$$$
100044
  Mrv171c012241914302D          

  5  4  0  0  0  0            999 V2000
    1.3473   -0.3899    0.0000 O   0  0  0  0  0  0  0  0  0  0  0  0
    2.1723   -0.3899    0.0000 C   0  0  0  0  0  0  0  0  0  0  0  0
    2.5848   -1.1044    0.0000 C   0  0  0  0  0  0  0  0  0  0  0  0
    0.9348    0.3245    0.0000 C   0  0  0  0  0  0  0  0  0  0  0  0
    0.1098    0.3245    0.0000 C   0  0  0  0  0  0  0  0  0  0  0  0
  1  2  1  0  0  0  0
  2  3  1  0  0  0  0
  1  4  1  0  0  0  0
  4  5  1  0  0  0  0
M  END
> <ChemID>
100044

> <CAS>
60-29-7

> <Original_SMILES>
CCOCC

> <preferred_name>
Diethyl ether

> <dsstox_substance_id>
DTXSID3021720

> <dsstox_compound_id>
DTXCID101720

> <qc_level>
DSSTox_Low

> <Canonical_QSARr>
CCOCC

> <InChI_Code_QSARr>
InChI=1S/C4H10O/c1-3-5-4-2/h3-4H2,1-2H3

> <InChI Key_QSARr>
RTZKZFJDLAIYFH-UHFFFAOYSA-N

> <Salt_Solvent>


> <Salt_Solvent_ID>
0

> <MPID>
102199

> <HL Reference>
BOCEK,K (1976)

> <HL Temperature>
25

> <LogHL>
-2.9100948885606015

> <Tr_1_Tst_0>
1

$$$$
100046
  Mrv171c012241914302D          

 19 23  0  0  0  0            999 V2000
    0.8791   -2.2674    0.0000 C   0  0  0  0  0  0  0  0  0  0  0  0
    1.5936   -2.6799    0.0000 C   0  0  0  0  0  0  0  0  0  0  0  0
    1.7998   -1.8549    0.0000 C   0  0  0  0  0  0  0  0  0  0  0  0
    1.5936   -1.0299    0.0000 C   0  0  0  0  0  0  0  0  0  0  0  0
    2.1954   -1.4726    0.0000 C   0  0  0  0  0  0  0  0  0  0  0  0
    3.0225   -1.0299    0.0000 C   0  0  0  0  0  0  0  0  0  0  0  0
    3.2138   -0.1477    0.0000 Cl  0  0  0  0  0  0  0  0  0  0  0  0
    3.2288   -1.8549    0.0000 C   0  0  0  0  0  0  0  0  0  0  0  0
    2.5237   -0.9691    0.0000 Cl  0  0  0  0  0  0  0  0  0  0  0  0
    2.5404   -2.7583    0.0000 Cl  0  0  0  0  0  0  0  0  0  0  0  0
    3.0225   -2.6799    0.0000 C   0  0  0  0  0  0  0  0  0  0  0  0
    3.2450   -3.5556    0.0000 Cl  0  0  0  0  0  0  0  0  0  0  0  0
    3.7370   -2.2674    0.0000 C   0  0  0  0  0  0  0  0  0  0  0  0
    4.4962   -2.6868    0.0000 Cl  0  0  0  0  0  0  0  0  0  0  0  0
    3.7370   -1.4424    0.0000 C   0  0  0  0  0  0  0  0  0  0  0  0
    4.4973   -1.0254    0.0000 Cl  0  0  0  0  0  0  0  0  0  0  0  0
    2.3081   -2.2674    0.0000 C   0  0  0  0  0  0  0  0  0  0  0  0
    0.8791   -1.4424    0.0000 C   0  0  0  0  0  0  0  0  0  0  0  0
    0.1646   -1.8549    0.0000 O   0  0  0  0  0  0  0  0  0  0  0  0
  2  1  1  0  0  0  0
  2  3  1  0  0  0  0
  3  4  1  0  0  0  0
  4  5  1  0  0  0  0
  6  5  1  0  0  0  0
  6  7  1  0  0  0  0
  6  8  1  0  0  0  0
  8  9  1  0  0  0  0
  8 10  1  0  0  0  0
  8 11  1  0  0  0  0
 11 12  1  0  0  0  0
 11 13  1  0  0  0  0
 13 14  1  0  0  0  0
 13 15  2  0  0  0  0
 15  6  1  0  0  0  0
 15 16  1  0  0  0  0
 17 11  1  0  0  0  0
  5 17  1  0  0  0  0
 17  2  1  0  0  0  0
 18  4  1  0  0  0  0
 18  1  1  0  0  0  0
 19 18  1  0  0  0  0
  1 19  1  0  0  0  0
M  END
> <ChemID>
100046

> <CAS>
60-57-1|72-20-8

> <Original_SMILES>
ClC1(Cl)[C@@]2(Cl)[C@@H]3[C@@H]4C[C@@H]([C@H]5O[C@H]54)[C@@H]3[C@]1(Cl)C(Cl)=C2Cl

> <preferred_name>
Dieldrin|Endrin

> <dsstox_substance_id>
DTXSID9020453|DTXSID6020561

> <dsstox_compound_id>
DTXCID30196607|DTXCID90196608

> <qc_level>
DSSTox_High

> <Canonical_QSARr>
ClC1(Cl)C2(Cl)C3C4CC(C5OC54)C3C1(Cl)C(Cl)=C2Cl

> <InChI_Code_QSARr>
InChI=1S/C12H8Cl6O/c13-8-9(14)11(16)5-3-1-2(6-7(3)19-6)4(5)10(8,15)12(11,17)18/h2-7H,1H2

> <InChI Key_QSARr>
DFBKLUNHFCTMDC-UHFFFAOYSA-N

> <Salt_Solvent>


> <Salt_Solvent_ID>
0

> <MPID>
102200|102218

> <HL Reference>
ALTSCHUH,J ET AL. (1999)

> <HL Temperature>
25

> <LogHL>
-5.087246696328668

> <Tr_1_Tst_0>
0

$$$$
100051
  Mrv171c012241914302D          

  7  7  0  0  0  0            999 V2000
    1.4153    0.7000    0.0000 N   0  0  0  0  0  0  0  0  0  0  0  0
    1.4153   -0.1250    0.0000 C   0  0  0  0  0  0  0  0  0  0  0  0
    0.7009   -0.5375    0.0000 C   0  0  0  0  0  0  0  0  0  0  0  0
    0.7009   -1.3625    0.0000 C   0  0  0  0  0  0  0  0  0  0  0  0
    1.4153   -1.7750    0.0000 C   0  0  0  0  0  0  0  0  0  0  0  0
    2.1298   -1.3625    0.0000 C   0  0  0  0  0  0  0  0  0  0  0  0
    2.1298   -0.5375    0.0000 C   0  0  0  0  0  0  0  0  0  0  0  0
  1  2  1  0  0  0  0
  3  2  1  0  0  0  0
  4  3  2  0  0  0  0
  5  4  1  0  0  0  0
  6  5  2  0  0  0  0
  7  6  1  0  0  0  0
  2  7  2  0  0  0  0
M  END
> <ChemID>
100051

> <CAS>
62-53-3

> <Original_SMILES>
Nc1ccccc1

> <preferred_name>
Aniline

> <dsstox_substance_id>
DTXSID8020090

> <dsstox_compound_id>
DTXCID9090

> <qc_level>
DSSTox_High

> <Canonical_QSARr>
NC1C=CC=CC=1

> <InChI_Code_QSARr>
InChI=1S/C6H7N/c7-6-4-2-1-3-5-6/h1-5H,7H2

> <InChI Key_QSARr>
PAYRUJLWNCNPSJ-UHFFFAOYSA-N

> <Salt_Solvent>


> <Salt_Solvent_ID>
0

> <MPID>
102201

> <HL Reference>
JAYASINGHE,DS ET AL. (1992)

> <HL Temperature>
25

> <LogHL>
-5.6946486305533925

> <Tr_1_Tst_0>
0

$$$$
100056
  Mrv171c012241914302D          

  3  2  0  0  0  0            999 V2000
   -0.0002   -0.1377    0.0000 C   0  0  0  0  0  0  0  0  0  0  0  0
    0.7143   -0.5502    0.0000 C   0  0  0  0  0  0  0  0  0  0  0  0
    1.4287   -0.1377    0.0000 O   0  0  0  0  0  0  0  0  0  0  0  0
  1  2  1  0  0  0  0
  2  3  1  0  0  0  0
M  END
> <ChemID>
100056

> <CAS>
64-17-5

> <Original_SMILES>
CCO

> <preferred_name>
Ethanol

> <dsstox_substance_id>
DTXSID9020584

> <dsstox_compound_id>
DTXCID30584

> <qc_level>
DSSTox_High

> <Canonical_QSARr>
CCO

> <InChI_Code_QSARr>
InChI=1S/C2H6O/c1-2-3/h3H,2H2,1H3

> <InChI Key_QSARr>
LFQSCWFLJHTTHZ-UHFFFAOYSA-N

> <Salt_Solvent>


> <Salt_Solvent_ID>
0

> <MPID>
102202

> <HL Reference>
GAFFNEY,JS ET AL. (1987)

> <HL Temperature>
25

> <LogHL>
-5.301029995663993

> <Tr_1_Tst_0>
1

$$$$
100057
  Mrv171c012241914302D          

  3  2  0  0  0  0            999 V2000
    0.7161   -0.4116    0.0000 C   0  0  0  0  0  0  0  0  0  0  0  0
    0.0016    0.0009    0.0000 O   0  0  0  0  0  0  0  0  0  0  0  0
    1.4306    0.0009    0.0000 O   0  0  0  0  0  0  0  0  0  0  0  0
  1  2  1  0  0  0  0
  1  3  2  0  0  0  0
M  END
> <ChemID>
100057

> <CAS>
64-18-6

> <Original_SMILES>
OC=O

> <preferred_name>
Formic acid

> <dsstox_substance_id>
DTXSID2024115

> <dsstox_compound_id>
DTXCID904115

> <qc_level>
DSSTox_Low

> <Canonical_QSARr>
OC=O

> <InChI_Code_QSARr>
InChI=1S/CH2O2/c2-1-3/h1H,(H,2,3)

> <InChI Key_QSARr>
BDAGIHXWWSANSR-UHFFFAOYSA-N

> <Salt_Solvent>


> <Salt_Solvent_ID>
0

> <MPID>
102203

> <HL Reference>
GAFFNEY,JS ET AL. (1987)

> <HL Temperature>
25

> <LogHL>
-6.777283528852435

> <Tr_1_Tst_0>
1

$$$$
100058
  Mrv171c012241914302D          

  4  3  0  0  0  0            999 V2000
    0.8246   -0.7143    0.0000 C   0  0  0  0  0  0  0  0  0  0  0  0
    1.2371    0.0002    0.0000 O   0  0  0  0  0  0  0  0  0  0  0  0
    1.2371   -1.4287    0.0000 O   0  0  0  0  0  0  0  0  0  0  0  0
   -0.0004   -0.7143    0.0000 C   0  0  0  0  0  0  0  0  0  0  0  0
  1  2  1  0  0  0  0
  1  3  2  0  0  0  0
  1  4  1  0  0  0  0
M  END
> <ChemID>
100058

> <CAS>
64-19-7

> <Original_SMILES>
CC(O)=O

> <preferred_name>
Acetic acid

> <dsstox_substance_id>
DTXSID5024394

> <dsstox_compound_id>
DTXCID304394

> <qc_level>
DSSTox_High

> <Canonical_QSARr>
CC(O)=O

> <InChI_Code_QSARr>
InChI=1S/C2H4O2/c1-2(3)4/h1H3,(H,3,4)

> <InChI Key_QSARr>
QTBSBXVTEAMEQO-UHFFFAOYSA-N

> <Salt_Solvent>


> <Salt_Solvent_ID>
0

> <MPID>
102204

> <HL Reference>
GAFFNEY,JS ET AL. (1987)

> <HL Temperature>
25

> <LogHL>
-6.99999999999999

> <Tr_1_Tst_0>
1

$$$$
100062
  Mrv171c012241914302D          

  7  6  0  0  0  0            999 V2000
   -0.0018   -0.0582    0.0000 C   0  0  0  0  0  0  0  0  0  0  0  0
    0.7127   -0.4707    0.0000 C   0  0  0  0  0  0  0  0  0  0  0  0
    1.4272   -0.0582    0.0000 C   0  0  0  0  0  0  0  0  0  0  0  0
    2.1416   -0.4707    0.0000 C   0  0  0  0  0  0  0  0  0  0  0  0
    2.8561   -0.0582    0.0000 C   0  0  0  0  0  0  0  0  0  0  0  0
    3.5706   -0.4707    0.0000 C   0  0  0  0  0  0  0  0  0  0  0  0
    4.2850   -0.0582    0.0000 O   0  0  0  0  0  0  0  0  0  0  0  0
  1  2  1  0  0  0  0
  2  3  1  0  0  0  0
  3  4  1  0  0  0  0
  4  5  1  0  0  0  0
  5  6  1  0  0  0  0
  6  7  2  0  0  0  0
M  END
> <ChemID>
100062

> <CAS>
66-25-1

> <Original_SMILES>
CCCCCC=O

> <preferred_name>
Hexanal

> <dsstox_substance_id>
DTXSID2021604

> <dsstox_compound_id>
DTXCID901604

> <qc_level>
DSSTox_Low

> <Canonical_QSARr>
CCCCCC=O

> <InChI_Code_QSARr>
InChI=1S/C6H12O/c1-2-3-4-5-6-7/h6H,2-5H2,1H3

> <InChI Key_QSARr>
JARKCYVAAOWBJS-UHFFFAOYSA-N

> <Salt_Solvent>


> <Salt_Solvent_ID>
0

> <MPID>
102205

> <HL Reference>
BUTTERY,RG ET AL. (1969)

> <HL Temperature>
25

> <LogHL>
-3.6716203965612624

> <Tr_1_Tst_0>
1

$$$$
100063
  Mrv171c012241914302D          

  2  1  0  0  0  0            999 V2000
    0.8250    0.0000    0.0000 C   0  0  0  0  0  0  0  0  0  0  0  0
    0.0000    0.0000    0.0000 O   0  0  0  0  0  0  0  0  0  0  0  0
  1  2  1  0  0  0  0
M  END
> <ChemID>
100063

> <CAS>
67-56-1

> <Original_SMILES>
CO

> <preferred_name>
Methanol

> <dsstox_substance_id>
DTXSID2021731

> <dsstox_compound_id>
DTXCID801731

> <qc_level>
DSSTox_Low

> <Canonical_QSARr>
CO

> <InChI_Code_QSARr>
InChI=1S/CH4O/c1-2/h2H,1H3

> <InChI Key_QSARr>
OKKJLVBELUTLKV-UHFFFAOYSA-N

> <Salt_Solvent>


> <Salt_Solvent_ID>
0

> <MPID>
102206

> <HL Reference>
GAFFNEY,JS ET AL. (1987)

> <HL Temperature>
25

> <LogHL>
-5.34198860334288

> <Tr_1_Tst_0>
0

$$$$
100064
  Mrv171c012241914302D          

  4  3  0  0  0  0            999 V2000
    1.1268   -0.1101    0.0000 O   0  0  0  0  0  0  0  0  0  0  0  0
    0.7143   -0.8246    0.0000 C   0  0  0  0  0  0  0  0  0  0  0  0
    1.1268   -1.5391    0.0000 C   0  0  0  0  0  0  0  0  0  0  0  0
   -0.1107   -0.8246    0.0000 C   0  0  0  0  0  0  0  0  0  0  0  0
  1  2  1  0  0  0  0
  2  3  1  0  0  0  0
  2  4  1  0  0  0  0
M  END
> <ChemID>
100064

> <CAS>
67-63-0

> <Original_SMILES>
CC(C)O

> <preferred_name>
Isopropanol

> <dsstox_substance_id>
DTXSID7020762

> <dsstox_compound_id>
DTXCID50762

> <qc_level>
DSSTox_Low

> <Canonical_QSARr>
CC(C)O

> <InChI_Code_QSARr>
InChI=1S/C3H8O/c1-3(2)4/h3-4H,1-2H3

> <InChI Key_QSARr>
KFZMGEQAYNKOFK-UHFFFAOYSA-N

> <Salt_Solvent>


> <Salt_Solvent_ID>
0

> <MPID>
102207

> <HL Reference>
TAFT,RW ET AL. (1985)

> <HL Temperature>
25

> <LogHL>
-5.091514981121358

> <Tr_1_Tst_0>
1

$$$$
100065
  Mrv171c012241914302D          

  4  3  0  0  0  0            999 V2000
    1.2371    0.0002    0.0000 C   0  0  0  0  0  0  0  0  0  0  0  0
    0.8246   -0.7143    0.0000 C   0  0  0  0  0  0  0  0  0  0  0  0
    1.2371   -1.4287    0.0000 O   0  0  0  0  0  0  0  0  0  0  0  0
   -0.0004   -0.7143    0.0000 C   0  0  0  0  0  0  0  0  0  0  0  0
  1  2  1  0  0  0  0
  2  3  2  0  0  0  0
  2  4  1  0  0  0  0
M  END
> <ChemID>
100065

> <CAS>
67-64-1

> <Original_SMILES>
CC(C)=O

> <preferred_name>
Acetone

> <dsstox_substance_id>
DTXSID8021482

> <dsstox_compound_id>
DTXCID101482

> <qc_level>
DSSTox_Low

> <Canonical_QSARr>
CC(C)=O

> <InChI_Code_QSARr>
InChI=1S/C3H6O/c1-3(2)4/h1-2H3

> <InChI Key_QSARr>
CSCPPACGZOOCGX-UHFFFAOYSA-N

> <Salt_Solvent>


> <Salt_Solvent_ID>
0

> <MPID>
102208

> <HL Reference>
BENKELBERG,HJ ET AL. (1995)

> <HL Temperature>
25

> <LogHL>
-4.455931955649741

> <Tr_1_Tst_0>
1

$$$$
100066
  Mrv171c012241914302D          

  4  3  0  0  0  0            999 V2000
    1.2371    0.0002    0.0000 Cl  0  0  0  0  0  0  0  0  0  0  0  0
    0.8246   -0.7143    0.0000 C   0  0  0  0  0  0  0  0  0  0  0  0
    1.2371   -1.4287    0.0000 Cl  0  0  0  0  0  0  0  0  0  0  0  0
   -0.0004   -0.7143    0.0000 Cl  0  0  0  0  0  0  0  0  0  0  0  0
  1  2  1  0  0  0  0
  2  3  1  0  0  0  0
  2  4  1  0  0  0  0
M  END
> <ChemID>
100066

> <CAS>
67-66-3

> <Original_SMILES>
ClC(Cl)Cl

> <preferred_name>
Chloroform

> <dsstox_substance_id>
DTXSID1020306

> <dsstox_compound_id>
DTXCID10306

> <qc_level>
DSSTox_Low

> <Canonical_QSARr>
ClC(Cl)Cl

> <InChI_Code_QSARr>
InChI=1S/CHCl3/c2-1(3)4/h1H

> <InChI Key_QSARr>
HEDRZPFGACZZDS-UHFFFAOYSA-N

> <Salt_Solvent>


> <Salt_Solvent_ID>
0

> <MPID>
102209

> <HL Reference>
GOSSETT,JM (1987)

> <HL Temperature>
24

> <LogHL>
-2.435333935747911

> <Tr_1_Tst_0>
1

$$$$
100067
  Mrv171c012241914302D          

  4  3  0  0  0  0            999 V2000
    1.2371    0.0002    0.0000 C   0  0  0  0  0  0  0  0  0  0  0  0
    0.8246   -0.7143    0.0000 S   0  0  0  0  0  0  0  0  0  0  0  0
    1.2371   -1.4287    0.0000 C   0  0  0  0  0  0  0  0  0  0  0  0
   -0.0004   -0.7143    0.0000 O   0  0  0  0  0  0  0  0  0  0  0  0
  1  2  1  0  0  0  0
  2  3  1  0  0  0  0
  2  4  2  0  0  0  0
M  END
> <ChemID>
100067

> <CAS>
67-68-5

> <Original_SMILES>
CS(C)=O

> <preferred_name>
Dimethyl sulfoxide

> <dsstox_substance_id>
DTXSID2021735

> <dsstox_compound_id>
DTXCID401735

> <qc_level>
DSSTox_Low

> <Canonical_QSARr>
CS(C)=O

> <InChI_Code_QSARr>
InChI=1S/C2H6OS/c1-4(2)3/h1-2H3

> <InChI Key_QSARr>
IAZDPXIOMUYVGZ-UHFFFAOYSA-N

> <Salt_Solvent>


> <Salt_Solvent_ID>
0

> <MPID>
102210

> <HL Reference>
TAFT,RW ET AL. (1985)

> <HL Temperature>
25

> <LogHL>
-8.82102305270684

> <Tr_1_Tst_0>
0

$$$$
100068
  Mrv171c012241914302D          

  8  7  0  0  0  0            999 V2000
    0.8232   -2.4725    0.0000 Cl  0  0  0  0  0  0  0  0  0  0  0  0
    0.8232   -1.6475    0.0000 C   0  0  0  0  0  0  0  0  0  0  0  0
    1.6482   -1.6475    0.0000 Cl  0  0  0  0  0  0  0  0  0  0  0  0
   -0.0018   -1.6475    0.0000 Cl  0  0  0  0  0  0  0  0  0  0  0  0
    0.8232   -0.8225    0.0000 C   0  0  0  0  0  0  0  0  0  0  0  0
    0.8232    0.0025    0.0000 Cl  0  0  0  0  0  0  0  0  0  0  0  0
    1.6482   -0.8225    0.0000 Cl  0  0  0  0  0  0  0  0  0  0  0  0
   -0.0018   -0.8225    0.0000 Cl  0  0  0  0  0  0  0  0  0  0  0  0
  1  2  1  0  0  0  0
  2  3  1  0  0  0  0
  2  4  1  0  0  0  0
  2  5  1  0  0  0  0
  5  6  1  0  0  0  0
  5  7  1  0  0  0  0
  5  8  1  0  0  0  0
M  END
> <ChemID>
100068

> <CAS>
67-72-1

> <Original_SMILES>
ClC(Cl)(Cl)C(Cl)(Cl)Cl

> <preferred_name>
Hexachloroethane

> <dsstox_substance_id>
DTXSID7020689

> <dsstox_compound_id>
DTXCID90689

> <qc_level>
DSSTox_Low

> <Canonical_QSARr>
ClC(Cl)(Cl)C(Cl)(Cl)Cl

> <InChI_Code_QSARr>
InChI=1S/C2Cl6/c3-1(4,5)2(6,7)8

> <InChI Key_QSARr>
VHHHONWQHHHLTI-UHFFFAOYSA-N

> <Salt_Solvent>


> <Salt_Solvent_ID>
0

> <MPID>
102211

> <HL Reference>
MUNZ,C & ROBERTS,PV (1987)

> <HL Temperature>
25

> <LogHL>
-2.410050398674291

> <Tr_1_Tst_0>
1

$$$$
100069
  Mrv171c012241914302D          

  5  4  0  0  0  0            999 V2000
    2.2164   -0.9681    0.0000 C   0  0  0  0  0  0  0  0  0  0  0  0
    1.3914   -0.9681    0.0000 N   0  0  0  0  0  0  0  0  0  0  0  0
    0.9789   -1.6826    0.0000 C   0  0  0  0  0  0  0  0  0  0  0  0
    0.9789   -0.2536    0.0000 C   0  0  0  0  0  0  0  0  0  0  0  0
    0.1539   -0.2536    0.0000 O   0  0  0  0  0  0  0  0  0  0  0  0
  1  2  1  0  0  0  0
  2  3  1  0  0  0  0
  2  4  1  0  0  0  0
  4  5  2  0  0  0  0
M  END
> <ChemID>
100069

> <CAS>
68-12-2

> <Original_SMILES>
CN(C)C=O

> <preferred_name>
N,N-Dimethylformamide

> <dsstox_substance_id>
DTXSID6020515

> <dsstox_compound_id>
DTXCID20515

> <qc_level>
DSSTox_High

> <Canonical_QSARr>
CN(C)C=O

> <InChI_Code_QSARr>
InChI=1S/C3H7NO/c1-4(2)3-5/h3H,1-2H3

> <InChI Key_QSARr>
ZMXDDKWLCZADIW-UHFFFAOYSA-N

> <Salt_Solvent>


> <Salt_Solvent_ID>
0

> <MPID>
102212

> <HL Reference>
TAFT,RW ET AL. (1985)

> <HL Temperature>
25

> <LogHL>
-7.131355561605194

> <Tr_1_Tst_0>
1

$$$$
100071
  Mrv171c012241914302D          

  4  3  0  0  0  0            999 V2000
    2.1043   -0.5633    0.0000 O   0  0  0  0  0  0  0  0  0  0  0  0
    1.2793   -0.5633    0.0000 C   0  0  0  0  0  0  0  0  0  0  0  0
    0.8668    0.1512    0.0000 C   0  0  0  0  0  0  0  0  0  0  0  0
    0.0418    0.1512    0.0000 C   0  0  0  0  0  0  0  0  0  0  0  0
  1  2  1  0  0  0  0
  2  3  1  0  0  0  0
  3  4  1  0  0  0  0
M  END
> <ChemID>
100071

> <CAS>
71-23-8

> <Original_SMILES>
CCCO

> <preferred_name>
1-Propanol

> <dsstox_substance_id>
DTXSID2021739

> <dsstox_compound_id>
DTXCID001739

> <qc_level>
DSSTox_High

> <Canonical_QSARr>
CCCO

> <InChI_Code_QSARr>
InChI=1S/C3H8O/c1-2-3-4/h4H,2-3H2,1H3

> <InChI Key_QSARr>
BDERNNFJNOPAEC-UHFFFAOYSA-N

> <Salt_Solvent>


> <Salt_Solvent_ID>
0

> <MPID>
102213

> <HL Reference>
SNIDER,JR & DAWSON,GA (1985)

> <HL Temperature>
25

> <LogHL>
-5.1301817920206805

> <Tr_1_Tst_0>
0

$$$$
100072
  Mrv171c012241914302D          

  5  4  0  0  0  0            999 V2000
    2.5848   -1.1044    0.0000 C   0  0  0  0  0  0  0  0  0  0  0  0
    2.1723   -0.3899    0.0000 C   0  0  0  0  0  0  0  0  0  0  0  0
    1.3473   -0.3899    0.0000 C   0  0  0  0  0  0  0  0  0  0  0  0
    0.9348    0.3245    0.0000 C   0  0  0  0  0  0  0  0  0  0  0  0
    0.1098    0.3245    0.0000 O   0  0  0  0  0  0  0  0  0  0  0  0
  1  2  1  0  0  0  0
  2  3  1  0  0  0  0
  3  4  1  0  0  0  0
  4  5  1  0  0  0  0
M  END
> <ChemID>
100072

> <CAS>
71-36-3

> <Original_SMILES>
CCCCO

> <preferred_name>
1-Butanol

> <dsstox_substance_id>
DTXSID1021740

> <dsstox_compound_id>
DTXCID701740

> <qc_level>
DSSTox_Low

> <Canonical_QSARr>
CCCCO

> <InChI_Code_QSARr>
InChI=1S/C4H10O/c1-2-3-4-5/h5H,2-4H2,1H3

> <InChI Key_QSARr>
LRHPLDYGYMQRHN-UHFFFAOYSA-N

> <Salt_Solvent>


> <Salt_Solvent_ID>
0

> <MPID>
102214

> <HL Reference>
BUTTERY,RG ET AL. (1969)

> <HL Temperature>
25

> <LogHL>
-5.055024091587957

> <Tr_1_Tst_0>
1

$$$$
100073
  Mrv171c012241914302D          

  6  5  0  0  0  0            999 V2000
    0.0018   -0.4119    0.0000 C   0  0  0  0  0  0  0  0  0  0  0  0
    0.7163    0.0006    0.0000 C   0  0  0  0  0  0  0  0  0  0  0  0
    1.4307   -0.4119    0.0000 C   0  0  0  0  0  0  0  0  0  0  0  0
    2.1452    0.0006    0.0000 C   0  0  0  0  0  0  0  0  0  0  0  0
    2.8597   -0.4119    0.0000 C   0  0  0  0  0  0  0  0  0  0  0  0
    3.5741    0.0006    0.0000 O   0  0  0  0  0  0  0  0  0  0  0  0
  1  2  1  0  0  0  0
  2  3  1  0  0  0  0
  3  4  1  0  0  0  0
  4  5  1  0  0  0  0
  5  6  1  0  0  0  0
M  END
> <ChemID>
100073

> <CAS>
71-41-0

> <Original_SMILES>
CCCCCO

> <preferred_name>
1-Pentanol

> <dsstox_substance_id>
DTXSID6021741

> <dsstox_compound_id>
DTXCID101741

> <qc_level>
DSSTox_Low

> <Canonical_QSARr>
CCCCCO

> <InChI_Code_QSARr>
InChI=1S/C5H12O/c1-2-3-4-5-6/h6H,2-5H2,1H3

> <InChI Key_QSARr>
AMQJEAYHLZJPGS-UHFFFAOYSA-N

> <Salt_Solvent>


> <Salt_Solvent_ID>
0

> <MPID>
102215

> <HL Reference>
BUTLER,JAV ET AL. (1935)

> <HL Temperature>
25

> <LogHL>
-4.886056647693146

> <Tr_1_Tst_0>
1

$$$$
100074
  Mrv171c012241914302D          

  6  6  0  0  0  0            999 V2000
    1.4289   -0.4125    0.0000 C   0  0  0  0  0  0  0  0  0  0  0  0
    0.7145    0.0000    0.0000 C   0  0  0  0  0  0  0  0  0  0  0  0
    0.0000   -0.4125    0.0000 C   0  0  0  0  0  0  0  0  0  0  0  0
    0.0000   -1.2375    0.0000 C   0  0  0  0  0  0  0  0  0  0  0  0
    0.7145   -1.6500    0.0000 C   0  0  0  0  0  0  0  0  0  0  0  0
    1.4289   -1.2375    0.0000 C   0  0  0  0  0  0  0  0  0  0  0  0
  2  1  1  0  0  0  0
  3  2  2  0  0  0  0
  4  3  1  0  0  0  0
  5  4  2  0  0  0  0
  6  5  1  0  0  0  0
  1  6  2  0  0  0  0
M  END
> <ChemID>
100074

> <CAS>
71-43-2

> <Original_SMILES>
c1ccccc1

> <preferred_name>
Benzene

> <dsstox_substance_id>
DTXSID3039242

> <dsstox_compound_id>
DTXCID20135

> <qc_level>
DSSTox_Low

> <Canonical_QSARr>
C1C=CC=CC=1

> <InChI_Code_QSARr>
InChI=1S/C6H6/c1-2-4-6-5-3-1/h1-6H

> <InChI Key_QSARr>
UHOVQNZJYSORNB-UHFFFAOYSA-N

> <Salt_Solvent>


> <Salt_Solvent_ID>
0

> <MPID>
102216

> <HL Reference>
MACKAY,D ET AL. (1979)

> <HL Temperature>
25

> <LogHL>
-2.255707016877322

> <Tr_1_Tst_0>
1

$$$$
100075
  Mrv171c012241914302D          

  5  4  0  0  0  0            999 V2000
    0.8250   -1.6500    0.0000 C   0  0  0  0  0  0  0  0  0  0  0  0
    0.8250   -0.8250    0.0000 C   0  0  0  0  0  0  0  0  0  0  0  0
    0.8250    0.0000    0.0000 Cl  0  0  0  0  0  0  0  0  0  0  0  0
    1.6500   -0.8250    0.0000 Cl  0  0  0  0  0  0  0  0  0  0  0  0
    0.0000   -0.8250    0.0000 Cl  0  0  0  0  0  0  0  0  0  0  0  0
  1  2  1  0  0  0  0
  2  3  1  0  0  0  0
  2  4  1  0  0  0  0
  2  5  1  0  0  0  0
M  END
> <ChemID>
100075

> <CAS>
71-55-6

> <Original_SMILES>
CC(Cl)(Cl)Cl

> <preferred_name>
1,1,1-Trichloroethane

> <dsstox_substance_id>
DTXSID0021381

> <dsstox_compound_id>
DTXCID501381

> <qc_level>
DSSTox_Low

> <Canonical_QSARr>
CC(Cl)(Cl)Cl

> <InChI_Code_QSARr>
InChI=1S/C2H3Cl3/c1-2(3,4)5/h1H3

> <InChI Key_QSARr>
UOCLXMDMGBRAIB-UHFFFAOYSA-N

> <Salt_Solvent>


> <Salt_Solvent_ID>
0

> <MPID>
102217

> <HL Reference>
GOSSETT,JM (1987)

> <HL Temperature>
25

> <LogHL>
-1.764471553092451

> <Tr_1_Tst_0>
0

$$$$
100077
  Mrv171c012241914302D          

 21 22  0  0  0  0            999 V2000
    1.9311   -2.2305    0.0000 Cl  0  0  0  0  0  0  0  0  0  0  0  0
    2.3436   -2.9449    0.0000 C   0  0  0  0  0  0  0  0  0  0  0  0
    2.7561   -3.6594    0.0000 Cl  0  0  0  0  0  0  0  0  0  0  0  0
    1.6292   -3.3574    0.0000 Cl  0  0  0  0  0  0  0  0  0  0  0  0
    3.0581   -2.5324    0.0000 C   0  0  0  0  0  0  0  0  0  0  0  0
    3.0581   -1.7074    0.0000 C   0  0  0  0  0  0  0  0  0  0  0  0
    3.7726   -1.2949    0.0000 C   0  0  0  0  0  0  0  0  0  0  0  0
    3.7726   -0.4699    0.0000 C   0  0  0  0  0  0  0  0  0  0  0  0
    3.0581   -0.0574    0.0000 C   0  0  0  0  0  0  0  0  0  0  0  0
    3.0581    0.7676    0.0000 O   0  0  0  0  0  0  0  0  0  0  0  0
    2.3436    1.1801    0.0000 C   0  0  0  0  0  0  0  0  0  0  0  0
    2.3436   -0.4699    0.0000 C   0  0  0  0  0  0  0  0  0  0  0  0
    2.3436   -1.2949    0.0000 C   0  0  0  0  0  0  0  0  0  0  0  0
    3.7726   -2.9449    0.0000 C   0  0  0  0  0  0  0  0  0  0  0  0
    3.7726   -3.7699    0.0000 C   0  0  0  0  0  0  0  0  0  0  0  0
    4.4871   -4.1824    0.0000 C   0  0  0  0  0  0  0  0  0  0  0  0
    5.2015   -3.7699    0.0000 C   0  0  0  0  0  0  0  0  0  0  0  0
    5.9160   -4.1824    0.0000 O   0  0  0  0  0  0  0  0  0  0  0  0
    6.6305   -3.7699    0.0000 C   0  0  0  0  0  0  0  0  0  0  0  0
    5.2015   -2.9449    0.0000 C   0  0  0  0  0  0  0  0  0  0  0  0
    4.4871   -2.5324    0.0000 C   0  0  0  0  0  0  0  0  0  0  0  0
  1  2  1  0  0  0  0
  2  3  1  0  0  0  0
  2  4  1  0  0  0  0
  2  5  1  0  0  0  0
  5  6  1  0  0  0  0
  7  6  1  0  0  0  0
  8  7  2  0  0  0  0
  9  8  1  0  0  0  0
  9 10  1  0  0  0  0
 10 11  1  0  0  0  0
 12  9  2  0  0  0  0
 13 12  1  0  0  0  0
  6 13  2  0  0  0  0
  5 14  1  0  0  0  0
 15 14  1  0  0  0  0
 16 15  2  0  0  0  0
 17 16  1  0  0  0  0
 17 18  1  0  0  0  0
 18 19  1  0  0  0  0
 20 17  2  0  0  0  0
 21 20  1  0  0  0  0
 14 21  2  0  0  0  0
M  END
> <ChemID>
100077

> <CAS>
72-43-5

> <Original_SMILES>
COc1ccc(cc1)C(c1ccc(cc1)OC)C(Cl)(Cl)Cl

> <preferred_name>
Methoxychlor

> <dsstox_substance_id>
DTXSID9020827

> <dsstox_compound_id>
DTXCID30827

> <qc_level>
DSSTox_Low

> <Canonical_QSARr>
COC1C=CC(=CC=1)C(C1C=CC(=CC=1)OC)C(Cl)(Cl)Cl

> <InChI_Code_QSARr>
InChI=1S/C16H15Cl3O2/c1-20-13-7-3-11(4-8-13)15(16(17,18)19)12-5-9-14(21-2)10-6-12/h3-10,15H,1-2H3

> <InChI Key_QSARr>
IAKOZHOLGAGEJT-UHFFFAOYSA-N

> <Salt_Solvent>


> <Salt_Solvent_ID>
0

> <MPID>
102219

> <HL Reference>
ALTSCHUH,J ET AL. (1999)

> <HL Temperature>
25

> <LogHL>
-6.692503962086776

> <Tr_1_Tst_0>
1

$$$$
100078
  Mrv171c012241914302D          

 18 19  0  0  0  0            999 V2000
    4.7646   -2.0618    0.0000 Cl  0  0  0  0  0  0  0  0  0  0  0  0
    4.0501   -2.4743    0.0000 C   0  0  0  0  0  0  0  0  0  0  0  0
    4.0501   -3.2993    0.0000 Cl  0  0  0  0  0  0  0  0  0  0  0  0
    3.3357   -2.0618    0.0000 C   0  0  0  0  0  0  0  0  0  0  0  0
    3.3357   -1.2368    0.0000 C   0  0  0  0  0  0  0  0  0  0  0  0
    4.0501   -0.8243    0.0000 C   0  0  0  0  0  0  0  0  0  0  0  0
    4.0501    0.0007    0.0000 C   0  0  0  0  0  0  0  0  0  0  0  0
    3.3357    0.4132    0.0000 C   0  0  0  0  0  0  0  0  0  0  0  0
    3.3357    1.2382    0.0000 Cl  0  0  0  0  0  0  0  0  0  0  0  0
    2.6212    0.0007    0.0000 C   0  0  0  0  0  0  0  0  0  0  0  0
    2.6212   -0.8243    0.0000 C   0  0  0  0  0  0  0  0  0  0  0  0
    2.6212   -2.4743    0.0000 C   0  0  0  0  0  0  0  0  0  0  0  0
    1.9067   -2.0618    0.0000 C   0  0  0  0  0  0  0  0  0  0  0  0
    1.1922   -2.4743    0.0000 C   0  0  0  0  0  0  0  0  0  0  0  0
    1.1922   -3.2993    0.0000 C   0  0  0  0  0  0  0  0  0  0  0  0
    0.4778   -3.7118    0.0000 Cl  0  0  0  0  0  0  0  0  0  0  0  0
    1.9067   -3.7118    0.0000 C   0  0  0  0  0  0  0  0  0  0  0  0
    2.6212   -3.2993    0.0000 C   0  0  0  0  0  0  0  0  0  0  0  0
  1  2  1  0  0  0  0
  2  3  1  0  0  0  0
  2  4  1  0  0  0  0
  4  5  1  0  0  0  0
  6  5  1  0  0  0  0
  7  6  2  0  0  0  0
  8  7  1  0  0  0  0
  8  9  1  0  0  0  0
 10  8  2  0  0  0  0
 11 10  1  0  0  0  0
  5 11  2  0  0  0  0
  4 12  1  0  0  0  0
 13 12  1  0  0  0  0
 14 13  2  0  0  0  0
 15 14  1  0  0  0  0
 15 16  1  0  0  0  0
 17 15  2  0  0  0  0
 18 17  1  0  0  0  0
 12 18  2  0  0  0  0
M  END
> <ChemID>
100078

> <CAS>
72-54-8

> <Original_SMILES>
ClC(Cl)C(c1ccc(Cl)cc1)c1ccc(Cl)cc1

> <preferred_name>
p,p'-DDD

> <dsstox_substance_id>
DTXSID4020373

> <dsstox_compound_id>
DTXCID60373

> <qc_level>
DSSTox_Low

> <Canonical_QSARr>
ClC(Cl)C(C1=CC=C(Cl)C=C1)C1=CC=C(Cl)C=C1

> <InChI_Code_QSARr>
InChI=1S/C14H10Cl4/c15-11-5-1-9(2-6-11)13(14(17)18)10-3-7-12(16)8-4-10/h1-8,13-14H

> <InChI Key_QSARr>
AHJKRLASYNVKDZ-UHFFFAOYSA-N

> <Salt_Solvent>


> <Salt_Solvent_ID>
0

> <MPID>
102220

> <HL Reference>
ALTSCHUH,J ET AL. (1999)

> <HL Temperature>
25

> <LogHL>
-5.1804560644581334

> <Tr_1_Tst_0>
1

$$$$
100079
  Mrv171c012241914302D          

 18 19  0  0  0  0            999 V2000
    4.7646   -2.0618    0.0000 Cl  0  0  0  0  0  0  0  0  0  0  0  0
    4.0501   -2.4743    0.0000 C   0  0  0  0  0  0  0  0  0  0  0  0
    4.0501   -3.2993    0.0000 Cl  0  0  0  0  0  0  0  0  0  0  0  0
    3.3357   -2.0618    0.0000 C   0  0  0  0  0  0  0  0  0  0  0  0
    3.3357   -1.2368    0.0000 C   0  0  0  0  0  0  0  0  0  0  0  0
    4.0501   -0.8243    0.0000 C   0  0  0  0  0  0  0  0  0  0  0  0
    4.0501    0.0007    0.0000 C   0  0  0  0  0  0  0  0  0  0  0  0
    3.3357    0.4132    0.0000 C   0  0  0  0  0  0  0  0  0  0  0  0
    3.3357    1.2382    0.0000 Cl  0  0  0  0  0  0  0  0  0  0  0  0
    2.6212    0.0007    0.0000 C   0  0  0  0  0  0  0  0  0  0  0  0
    2.6212   -0.8243    0.0000 C   0  0  0  0  0  0  0  0  0  0  0  0
    2.6212   -2.4743    0.0000 C   0  0  0  0  0  0  0  0  0  0  0  0
    1.9067   -2.0618    0.0000 C   0  0  0  0  0  0  0  0  0  0  0  0
    1.1922   -2.4743    0.0000 C   0  0  0  0  0  0  0  0  0  0  0  0
    1.1922   -3.2993    0.0000 C   0  0  0  0  0  0  0  0  0  0  0  0
    0.4778   -3.7118    0.0000 Cl  0  0  0  0  0  0  0  0  0  0  0  0
    1.9067   -3.7118    0.0000 C   0  0  0  0  0  0  0  0  0  0  0  0
    2.6212   -3.2993    0.0000 C   0  0  0  0  0  0  0  0  0  0  0  0
  1  2  1  0  0  0  0
  2  3  1  0  0  0  0
  2  4  2  0  0  0  0
  4  5  1  0  0  0  0
  6  5  1  0  0  0  0
  7  6  2  0  0  0  0
  8  7  1  0  0  0  0
  8  9  1  0  0  0  0
 10  8  2  0  0  0  0
 11 10  1  0  0  0  0
  5 11  2  0  0  0  0
  4 12  1  0  0  0  0
 13 12  1  0  0  0  0
 14 13  2  0  0  0  0
 15 14  1  0  0  0  0
 15 16  1  0  0  0  0
 17 15  2  0  0  0  0
 18 17  1  0  0  0  0
 12 18  2  0  0  0  0
M  END
> <ChemID>
100079

> <CAS>
72-55-9

> <Original_SMILES>
ClC(Cl)=C(c1ccc(Cl)cc1)c1ccc(Cl)cc1

> <preferred_name>
p,p'-DDE

> <dsstox_substance_id>
DTXSID9020374

> <dsstox_compound_id>
DTXCID90374

> <qc_level>
DSSTox_High

> <Canonical_QSARr>
ClC(Cl)=C(C1C=CC(Cl)=CC=1)C1C=CC(Cl)=CC=1

> <InChI_Code_QSARr>
InChI=1S/C14H8Cl4/c15-11-5-1-9(2-6-11)13(14(17)18)10-3-7-12(16)8-4-10/h1-8H

> <InChI Key_QSARr>
UCNVFOCBFJOQAL-UHFFFAOYSA-N

> <Salt_Solvent>


> <Salt_Solvent_ID>
0

> <MPID>
102221

> <HL Reference>
ALTSCHUH,J ET AL. (1999)

> <HL Temperature>
25

> <LogHL>
-4.380906669373275

> <Tr_1_Tst_0>
1

$$$$
100082
  Mrv171c012241914302D          

  2  1  0  0  0  0            999 V2000
    0.8250    0.0000    0.0000 C   0  0  0  0  0  0  0  0  0  0  0  0
    0.0000    0.0000    0.0000 Br  0  0  0  0  0  0  0  0  0  0  0  0
  1  2  1  0  0  0  0
M  END
> <ChemID>
100082

> <CAS>
74-83-9

> <Original_SMILES>
CBr

> <preferred_name>
Methyl bromide

> <dsstox_substance_id>
DTXSID8020832

> <dsstox_compound_id>
DTXCID00832

> <qc_level>
DSSTox_Low

> <Canonical_QSARr>
CBr

> <InChI_Code_QSARr>
InChI=1S/CH3Br/c1-2/h1H3

> <InChI Key_QSARr>
GZUXJHMPEANEGY-UHFFFAOYSA-N

> <Salt_Solvent>


> <Salt_Solvent_ID>
0

> <MPID>
102222

> <HL Reference>
YATES,SR & GAN,J (1998)

> <HL Temperature>
25

> <LogHL>
-2.134303940083928

> <Tr_1_Tst_0>
1

$$$$
100084
  Mrv171c012241914302D          

  2  1  0  0  0  0            999 V2000
    0.8250    0.0000    0.0000 C   0  0  0  0  0  0  0  0  0  0  0  0
    0.0000    0.0000    0.0000 C   0  0  0  0  0  0  0  0  0  0  0  0
  1  2  2  0  0  0  0
M  END
> <ChemID>
100084

> <CAS>
74-85-1

> <Original_SMILES>
C=C

> <preferred_name>
Ethylene

> <dsstox_substance_id>
DTXSID1026378

> <dsstox_compound_id>
DTXCID605931

> <qc_level>
DSSTox_Low

> <Canonical_QSARr>
C=C

> <InChI_Code_QSARr>
InChI=1S/C2H4/c1-2/h1-2H2

> <InChI Key_QSARr>
VGGSQFUCUMXWEO-UHFFFAOYSA-N

> <Salt_Solvent>


> <Salt_Solvent_ID>
0

> <MPID>
102223

> <HL Reference>
WASIK,SP & TSANG,W (1970)

> <HL Temperature>
25

> <LogHL>
-0.6420651529995478

> <Tr_1_Tst_0>
0

$$$$
100086
  Mrv171c012241914302D          

  2  1  0  0  0  0            999 V2000
    0.8250    0.0000    0.0000 Cl  0  0  0  0  0  0  0  0  0  0  0  0
    0.0000    0.0000    0.0000 C   0  0  0  0  0  0  0  0  0  0  0  0
  1  2  1  0  0  0  0
M  END
> <ChemID>
100086

> <CAS>
74-87-3

> <Original_SMILES>
CCl

> <preferred_name>
Chloromethane

> <dsstox_substance_id>
DTXSID0021541

> <dsstox_compound_id>
DTXCID701541

> <qc_level>
DSSTox_Low

> <Canonical_QSARr>
CCl

> <InChI_Code_QSARr>
InChI=1S/CH3Cl/c1-2/h1H3

> <InChI Key_QSARr>
NEHMKBQYUWJMIP-UHFFFAOYSA-N

> <Salt_Solvent>


> <Salt_Solvent_ID>
0

> <MPID>
102224

> <HL Reference>
GOSSETT,JM (1987)

> <HL Temperature>
24

> <LogHL>
-2.0545314148681815

> <Tr_1_Tst_0>
1

$$$$
100087
  Mrv171c012241914302D          

  2  1  0  0  0  0            999 V2000
    0.8250    0.0000    0.0000 C   0  0  0  0  0  0  0  0  0  0  0  0
    0.0000    0.0000    0.0000 I   0  0  0  0  0  0  0  0  0  0  0  0
  1  2  1  0  0  0  0
M  END
> <ChemID>
100087

> <CAS>
74-88-4

> <Original_SMILES>
CI

> <preferred_name>
Methyl iodide

> <dsstox_substance_id>
DTXSID0024187

> <dsstox_compound_id>
DTXCID804187

> <qc_level>
DSSTox_Low

> <Canonical_QSARr>
CI

> <InChI_Code_QSARr>
InChI=1S/CH3I/c1-2/h1H3

> <InChI Key_QSARr>
INQOMBQAUSQDDS-UHFFFAOYSA-N

> <Salt_Solvent>


> <Salt_Solvent_ID>
0

> <MPID>
102225

> <HL Reference>
HUNTER-SMITH,RJ ET AL. (1983)

> <HL Temperature>
25

> <LogHL>
-2.2790142558462616

> <Tr_1_Tst_0>
1

$$$$
100088
  Mrv171c012241914302D          

  2  1  0  0  0  0            999 V2000
    0.8250    0.0000    0.0000 N   0  0  0  0  0  0  0  0  0  0  0  0
    0.0000    0.0000    0.0000 C   0  0  0  0  0  0  0  0  0  0  0  0
  1  2  1  0  0  0  0
M  END
> <ChemID>
100088

> <CAS>
74-89-5

> <Original_SMILES>
CN

> <preferred_name>
Methylamine

> <dsstox_substance_id>
DTXSID7025683

> <dsstox_compound_id>
DTXCID305683

> <qc_level>
DSSTox_Low

> <Canonical_QSARr>
CN

> <InChI_Code_QSARr>
InChI=1S/CH5N/c1-2/h2H2,1H3

> <InChI Key_QSARr>
BAVYZALUXZFZLV-UHFFFAOYSA-N

> <Salt_Solvent>


> <Salt_Solvent_ID>
0

> <MPID>
102226

> <HL Reference>
CHRISTIE,AO & CRISP,DJ (1967)

> <HL Temperature>
25

> <LogHL>
-4.954677021213349

> <Tr_1_Tst_0>
0

$$$$
100089
  Mrv171c012241914302D          

  2  1  0  0  0  0            999 V2000
    0.8250    0.0000    0.0000 N   0  0  0  0  0  0  0  0  0  0  0  0
    0.0000    0.0000    0.0000 C   0  0  0  0  0  0  0  0  0  0  0  0
  1  2  3  0  0  0  0
M  END
> <ChemID>
100089

> <CAS>
74-90-8

> <Original_SMILES>
C#N

> <preferred_name>
Hydrogen cyanide

> <dsstox_substance_id>
DTXSID9024148

> <dsstox_compound_id>
DTXCID004148

> <qc_level>
DSSTox_Low

> <Canonical_QSARr>
C#N

> <InChI_Code_QSARr>
InChI=1S/CHN/c1-2/h1H

> <InChI Key_QSARr>
LELOWRISYMNNSU-UHFFFAOYSA-N

> <Salt_Solvent>


> <Salt_Solvent_ID>
0

> <MPID>
102227

> <HL Reference>
GAFFNEY,JS ET AL. (1987)

> <HL Temperature>
25

> <LogHL>
-3.8761483590329138

> <Tr_1_Tst_0>
1

$$$$
100091
  Mrv171c012241914302D          

  3  2  0  0  0  0            999 V2000
   -0.0002   -0.1377    0.0000 Br  0  0  0  0  0  0  0  0  0  0  0  0
    0.7143   -0.5502    0.0000 C   0  0  0  0  0  0  0  0  0  0  0  0
    1.4287   -0.1377    0.0000 Br  0  0  0  0  0  0  0  0  0  0  0  0
  1  2  1  0  0  0  0
  2  3  1  0  0  0  0
M  END
> <ChemID>
100091

> <CAS>
74-95-3

> <Original_SMILES>
BrCBr

> <preferred_name>
Dibromomethane

> <dsstox_substance_id>
DTXSID4021557

> <dsstox_compound_id>
DTXCID401557

> <qc_level>
DSSTox_Low

> <Canonical_QSARr>
BrCBr

> <InChI_Code_QSARr>
InChI=1S/CH2Br2/c2-1-3/h1H2

> <InChI Key_QSARr>
FJBFPHVGVWTDIP-UHFFFAOYSA-N

> <Salt_Solvent>


> <Salt_Solvent_ID>
0

> <MPID>
102228

> <HL Reference>
MOORE,RM ET AL. (1995)

> <HL Temperature>
20

> <LogHL>
-3.0851281824599472

> <Tr_1_Tst_0>
1

$$$$
100096
  Mrv171c012241914302D          

  3  2  0  0  0  0            999 V2000
   -0.0002   -0.1377    0.0000 C   0  0  0  0  0  0  0  0  0  0  0  0
    0.7143   -0.5502    0.0000 C   0  0  0  0  0  0  0  0  0  0  0  0
    1.4287   -0.1377    0.0000 Cl  0  0  0  0  0  0  0  0  0  0  0  0
  1  2  1  0  0  0  0
  2  3  1  0  0  0  0
M  END
> <ChemID>
100096

> <CAS>
75-00-3

> <Original_SMILES>
CCCl

> <preferred_name>
Chloroethane

> <dsstox_substance_id>
DTXSID1020302

> <dsstox_compound_id>
DTXCID90302

> <qc_level>
DSSTox_Low

> <Canonical_QSARr>
CCCl

> <InChI_Code_QSARr>
InChI=1S/C2H5Cl/c1-2-3/h2H2,1H3

> <InChI Key_QSARr>
HRYZWHHZPQKTII-UHFFFAOYSA-N

> <Salt_Solvent>


> <Salt_Solvent_ID>
0

> <MPID>
102229

> <HL Reference>
GOSSETT,JM (1987)

> <HL Temperature>
24

> <LogHL>
-1.9546770212133429

> <Tr_1_Tst_0>
0

$$$$
100097
  Mrv171c012241914302D          

  3  2  0  0  0  0            999 V2000
   -0.0002   -0.1377    0.0000 C   0  0  0  0  0  0  0  0  0  0  0  0
    0.7143   -0.5502    0.0000 C   0  0  0  0  0  0  0  0  0  0  0  0
    1.4287   -0.1377    0.0000 Cl  0  0  0  0  0  0  0  0  0  0  0  0
  1  2  2  0  0  0  0
  2  3  1  0  0  0  0
M  END
> <ChemID>
100097

> <CAS>
75-01-4

> <Original_SMILES>
C=CCl

> <preferred_name>
Vinyl chloride

> <dsstox_substance_id>
DTXSID8021434

> <dsstox_compound_id>
DTXCID401434

> <qc_level>
DSSTox_Low

> <Canonical_QSARr>
C=CCl

> <InChI_Code_QSARr>
InChI=1S/C2H3Cl/c1-2-3/h2H,1H2

> <InChI Key_QSARr>
BZHJMEDXRYGGRV-UHFFFAOYSA-N

> <Salt_Solvent>


> <Salt_Solvent_ID>
0

> <MPID>
102230

> <HL Reference>
GOSSETT,JM (1987)

> <HL Temperature>
24

> <LogHL>
-1.5559552040819253

> <Tr_1_Tst_0>
1

$$$$
100099
  Mrv171c012241914302D          

  3  2  0  0  0  0            999 V2000
   -0.0002   -0.1377    0.0000 N   0  0  0  0  0  0  0  0  0  0  0  0
    0.7143   -0.5502    0.0000 C   0  0  0  0  0  0  0  0  0  0  0  0
    1.4287   -0.1377    0.0000 C   0  0  0  0  0  0  0  0  0  0  0  0
  1  2  1  0  0  0  0
  2  3  1  0  0  0  0
M  END
> <ChemID>
100099

> <CAS>
75-04-7

> <Original_SMILES>
CCN

> <preferred_name>
Ethanamine

> <dsstox_substance_id>
DTXSID8025678

> <dsstox_compound_id>
DTXCID005678

> <qc_level>
DSSTox_Low

> <Canonical_QSARr>
CCN

> <InChI_Code_QSARr>
InChI=1S/C2H7N/c1-2-3/h2-3H2,1H3

> <InChI Key_QSARr>
QUSNBJAOOMFDIB-UHFFFAOYSA-N

> <Salt_Solvent>


> <Salt_Solvent_ID>
0

> <MPID>
102231

> <HL Reference>
CHRISTIE,AO & CRISP,DJ (1967)

> <HL Temperature>
25

> <LogHL>
-4.910094888560601

> <Tr_1_Tst_0>
1

$$$$
100100
  Mrv171c012241914302D          

  3  2  0  0  0  0            999 V2000
    0.0000   -0.0000    0.0000 C   0  0  0  0  0  0  0  0  0  0  0  0
    0.8250   -0.0000    0.0000 C   0  0  0  0  0  0  0  0  0  0  0  0
    1.6500    0.0000    0.0000 N   0  0  0  0  0  0  0  0  0  0  0  0
  1  2  1  0  0  0  0
  2  3  3  0  0  0  0
M  END
> <ChemID>
100100

> <CAS>
75-05-8

> <Original_SMILES>
CC#N

> <preferred_name>
Acetonitrile

> <dsstox_substance_id>
DTXSID7020009

> <dsstox_compound_id>
DTXCID909

> <qc_level>
DSSTox_Low

> <Canonical_QSARr>
CC#N

> <InChI_Code_QSARr>
InChI=1S/C2H3N/c1-2-3/h1H3

> <InChI Key_QSARr>
WEVYAHXRMPXWCK-UHFFFAOYSA-N

> <Salt_Solvent>


> <Salt_Solvent_ID>
0

> <MPID>
102232

> <HL Reference>
GAFFNEY,JS ET AL. (1987)

> <HL Temperature>
25

> <LogHL>
-4.4621809049267425

> <Tr_1_Tst_0>
0

$$$$
100101
  Mrv171c012241914302D          

  3  2  0  0  0  0            999 V2000
   -0.0002   -0.1377    0.0000 C   0  0  0  0  0  0  0  0  0  0  0  0
    0.7143   -0.5502    0.0000 C   0  0  0  0  0  0  0  0  0  0  0  0
    1.4287   -0.1377    0.0000 O   0  0  0  0  0  0  0  0  0  0  0  0
  1  2  1  0  0  0  0
  2  3  2  0  0  0  0
M  END
> <ChemID>
100101

> <CAS>
75-07-0

> <Original_SMILES>
CC=O

> <preferred_name>
Acetaldehyde

> <dsstox_substance_id>
DTXSID5039224

> <dsstox_compound_id>
DTXCID202

> <qc_level>
DSSTox_Low

> <Canonical_QSARr>
CC=O

> <InChI_Code_QSARr>
InChI=1S/C2H4O/c1-2-3/h2H,1H3

> <InChI Key_QSARr>
IKHGUXGNUITLKF-UHFFFAOYSA-N

> <Salt_Solvent>


> <Salt_Solvent_ID>
0

> <MPID>
102233

> <HL Reference>
GAFFNEY,JS ET AL. (1987)

> <HL Temperature>
25

> <LogHL>
-4.175874166083452

> <Tr_1_Tst_0>
1

$$$$
100102
  Mrv171c012241914302D          

  3  2  0  0  0  0            999 V2000
    0.2397   -0.9543    0.0000 C   0  0  0  0  0  0  0  0  0  0  0  0
   -0.4747   -0.5418    0.0000 S   0  0  0  0  0  0  0  0  0  0  0  0
    0.9542   -0.5418    0.0000 C   0  0  0  0  0  0  0  0  0  0  0  0
  1  2  1  0  0  0  0
  1  3  1  0  0  0  0
M  END
> <ChemID>
100102

> <CAS>
75-08-1

> <Original_SMILES>
CCS

> <preferred_name>
Ethanethiol

> <dsstox_substance_id>
DTXSID9026394

> <dsstox_compound_id>
DTXCID506394

> <qc_level>
DSSTox_Low

> <Canonical_QSARr>
CCS

> <InChI_Code_QSARr>
InChI=1S/C2H6S/c1-2-3/h3H,2H2,1H3

> <InChI Key_QSARr>
DNJIEGIFACGWOD-UHFFFAOYSA-N

> <Salt_Solvent>


> <Salt_Solvent_ID>
0

> <MPID>
102234

> <HL Reference>
VITENBERG,AG ET AL. (1975)

> <HL Temperature>
20

> <LogHL>
-2.343901797987166

> <Tr_1_Tst_0>
1

$$$$
100103
  Mrv171c012241914302D          

  3  2  0  0  0  0            999 V2000
   -0.0002   -0.1377    0.0000 Cl  0  0  0  0  0  0  0  0  0  0  0  0
    0.7143   -0.5502    0.0000 C   0  0  0  0  0  0  0  0  0  0  0  0
    1.4287   -0.1377    0.0000 Cl  0  0  0  0  0  0  0  0  0  0  0  0
  1  2  1  0  0  0  0
  2  3  1  0  0  0  0
M  END
> <ChemID>
100103

> <CAS>
75-09-2

> <Original_SMILES>
ClCCl

> <preferred_name>
Dichloromethane

> <dsstox_substance_id>
DTXSID0020868

> <dsstox_compound_id>
DTXCID40868

> <qc_level>
DSSTox_Low

> <Canonical_QSARr>
ClCCl

> <InChI_Code_QSARr>
InChI=1S/CH2Cl2/c2-1-3/h1H2

> <InChI Key_QSARr>
YMWUJEATGCHHMB-UHFFFAOYSA-N

> <Salt_Solvent>


> <Salt_Solvent_ID>
0

> <MPID>
102235

> <HL Reference>
LEIGHTON,DTJR & CALO,JM (1981)

> <HL Temperature>
25

> <LogHL>
-2.488116639021125

> <Tr_1_Tst_0>
1

$$$$
100104
  Mrv171c012241914302D          

  3  2  0  0  0  0            999 V2000
    1.9520   -1.1270    0.0000 C   0  0  0  0  0  0  0  0  0  0  0  0
    1.2375   -0.7145    0.0000 I   0  0  0  0  0  0  0  0  0  0  0  0
    2.6665   -0.7145    0.0000 I   0  0  0  0  0  0  0  0  0  0  0  0
  1  2  1  0  0  0  0
  1  3  1  0  0  0  0
M  END
> <ChemID>
100104

> <CAS>
75-11-6

> <Original_SMILES>
ICI

> <preferred_name>
Methylene iodide

> <dsstox_substance_id>
DTXSID4058784

> <dsstox_compound_id>
DTXCID6047731

> <qc_level>
Public_High

> <Canonical_QSARr>
ICI

> <InChI_Code_QSARr>
InChI=1S/CH2I2/c2-1-3/h1H2

> <InChI Key_QSARr>
NZZFYRREKKOMAT-UHFFFAOYSA-N

> <Salt_Solvent>


> <Salt_Solvent_ID>
0

> <MPID>
102236

> <HL Reference>
MOORE,RM ET AL. (1995)

> <HL Temperature>
20

> <LogHL>
-3.490797477668898

> <Tr_1_Tst_0>
0

$$$$
100106
  Mrv171c012241914302D          

  3  2  0  0  0  0            999 V2000
    0.7127   -0.4119    0.0000 C   0  0  0  0  0  0  0  0  0  0  0  0
   -0.1123   -0.4119    0.0000 S   0  0  0  0  0  0  0  0  0  0  0  0
    1.5377   -0.4119    0.0000 S   0  0  0  0  0  0  0  0  0  0  0  0
  1  2  2  0  0  0  0
  1  3  2  0  0  0  0
M  END
> <ChemID>
100106

> <CAS>
75-15-0

> <Original_SMILES>
S=C=S

> <preferred_name>
Carbon disulfide

> <dsstox_substance_id>
DTXSID6023947

> <dsstox_compound_id>
DTXCID103947

> <qc_level>
DSSTox_Low

> <Canonical_QSARr>
S=C=S

> <InChI_Code_QSARr>
InChI=1S/CS2/c2-1-3

> <InChI Key_QSARr>
QGJOPFRUJISHPQ-UHFFFAOYSA-N

> <Salt_Solvent>


> <Salt_Solvent_ID>
0

> <MPID>
102237

> <HL Reference>
ELLIOT,S (1989)

> <HL Temperature>
24

> <LogHL>
-1.8416375079047493

> <Tr_1_Tst_0>
1

$$$$
100107
  Mrv171c012241914302D          

  3  2  0  0  0  0            999 V2000
   -0.1652   -0.1026    0.0000 C   0  0  0  0  0  0  0  0  0  0  0  0
    0.5493   -0.5151    0.0000 S   0  0  0  0  0  0  0  0  0  0  0  0
    1.2637   -0.1026    0.0000 C   0  0  0  0  0  0  0  0  0  0  0  0
  1  2  1  0  0  0  0
  2  3  1  0  0  0  0
M  END
> <ChemID>
100107

> <CAS>
75-18-3

> <Original_SMILES>
CSC

> <preferred_name>
Dimethyl sulfide

> <dsstox_substance_id>
DTXSID9026398

> <dsstox_compound_id>
DTXCID106398

> <qc_level>
DSSTox_Low

> <Canonical_QSARr>
CSC

> <InChI_Code_QSARr>
InChI=1S/C2H6S/c1-3-2/h1-2H3

> <InChI Key_QSARr>
QMMFVYPAHWMCMS-UHFFFAOYSA-N

> <Salt_Solvent>


> <Salt_Solvent_ID>
0

> <MPID>
102238

> <HL Reference>
GAFFNEY,JS ET AL. (1987)

> <HL Temperature>
25

> <LogHL>
-2.793174123968152

> <Tr_1_Tst_0>
1

$$$$
100109
  Mrv171c012241914302D          

  3  3  0  0  0  0            999 V2000
    1.0774   -0.9330    0.0000 C   0  0  0  0  0  0  0  0  0  0  0  0
    0.6649   -0.2186    0.0000 O   0  0  0  0  0  0  0  0  0  0  0  0
    0.2524   -0.9330    0.0000 C   0  0  0  0  0  0  0  0  0  0  0  0
  2  1  1  0  0  0  0
  3  2  1  0  0  0  0
  1  3  1  0  0  0  0
M  END
> <ChemID>
100109

> <CAS>
75-21-8

> <Original_SMILES>
C1CO1

> <preferred_name>
Ethylene oxide

> <dsstox_substance_id>
DTXSID0020600

> <dsstox_compound_id>
DTXCID60600

> <qc_level>
DSSTox_High

> <Canonical_QSARr>
C1CO1

> <InChI_Code_QSARr>
InChI=1S/C2H4O/c1-2-3-1/h1-2H2

> <InChI Key_QSARr>
IAYPIBMASNFSPL-UHFFFAOYSA-N

> <Salt_Solvent>


> <Salt_Solvent_ID>
0

> <MPID>
102239

> <HL Reference>
CONWAY,RA ET AL. (1983)

> <HL Temperature>
25

> <LogHL>
-3.829738284605043

> <Tr_1_Tst_0>
1

$$$$
100110
  Mrv171c012241914302D          

  4  3  0  0  0  0            999 V2000
    0.8246   -0.7143    0.0000 C   0  0  0  0  0  0  0  0  0  0  0  0
    1.2371    0.0002    0.0000 Br  0  0  0  0  0  0  0  0  0  0  0  0
    1.2371   -1.4287    0.0000 Br  0  0  0  0  0  0  0  0  0  0  0  0
   -0.0004   -0.7143    0.0000 Br  0  0  0  0  0  0  0  0  0  0  0  0
  1  2  1  0  0  0  0
  1  3  1  0  0  0  0
  1  4  1  0  0  0  0
M  END
> <ChemID>
100110

> <CAS>
75-25-2

> <Original_SMILES>
BrC(Br)Br

> <preferred_name>
Bromoform

> <dsstox_substance_id>
DTXSID1021374

> <dsstox_compound_id>
DTXCID401374

> <qc_level>
DSSTox_Low

> <Canonical_QSARr>
BrC(Br)Br

> <InChI_Code_QSARr>
InChI=1S/CHBr3/c2-1(3)4/h1H

> <InChI Key_QSARr>
DIKBFYAXUHHXCS-UHFFFAOYSA-N

> <Salt_Solvent>


> <Salt_Solvent_ID>
0

> <MPID>
102240

> <HL Reference>
MUNZ,C & ROBERTS,PV (1987)

> <HL Temperature>
25

> <LogHL>
-3.2716462179787724

> <Tr_1_Tst_0>
1

$$$$
100112
  Mrv171c012241914302D          

  4  3  0  0  0  0            999 V2000
    1.2371    0.0002    0.0000 Cl  0  0  0  0  0  0  0  0  0  0  0  0
    0.8246   -0.7143    0.0000 C   0  0  0  0  0  0  0  0  0  0  0  0
    1.2371   -1.4287    0.0000 Br  0  0  0  0  0  0  0  0  0  0  0  0
   -0.0004   -0.7143    0.0000 Cl  0  0  0  0  0  0  0  0  0  0  0  0
  1  2  1  0  0  0  0
  2  3  1  0  0  0  0
  2  4  1  0  0  0  0
M  END
> <ChemID>
100112

> <CAS>
75-27-4

> <Original_SMILES>
ClC(Cl)Br

> <preferred_name>
Bromodichloromethane

> <dsstox_substance_id>
DTXSID1020198

> <dsstox_compound_id>
DTXCID30198

> <qc_level>
DSSTox_Low

> <Canonical_QSARr>
ClC(Cl)Br

> <InChI_Code_QSARr>
InChI=1S/CHBrCl2/c2-1(3)4/h1H

> <InChI Key_QSARr>
FMWLUWPQPKEARP-UHFFFAOYSA-N

> <Salt_Solvent>


> <Salt_Solvent_ID>
0

> <MPID>
102241

> <HL Reference>
WARNER,HP ET AL. (1987)

> <HL Temperature>
25

> <LogHL>
-2.67366413907125

> <Tr_1_Tst_0>
0

$$$$
100117
  Mrv171c012241914302D          

  4  3  0  0  0  0            999 V2000
    1.2371    0.0002    0.0000 C   0  0  0  0  0  0  0  0  0  0  0  0
    0.8246   -0.7143    0.0000 C   0  0  0  0  0  0  0  0  0  0  0  0
    1.2371   -1.4287    0.0000 Cl  0  0  0  0  0  0  0  0  0  0  0  0
   -0.0004   -0.7143    0.0000 Cl  0  0  0  0  0  0  0  0  0  0  0  0
  1  2  1  0  0  0  0
  2  3  1  0  0  0  0
  2  4  1  0  0  0  0
M  END
> <ChemID>
100117

> <CAS>
75-34-3

> <Original_SMILES>
CC(Cl)Cl

> <preferred_name>
1,1-Dichloroethane

> <dsstox_substance_id>
DTXSID1020437

> <dsstox_compound_id>
DTXCID10437

> <qc_level>
DSSTox_Low

> <Canonical_QSARr>
CC(Cl)Cl

> <InChI_Code_QSARr>
InChI=1S/C2H4Cl2/c1-2(3)4/h2H,1H3

> <InChI Key_QSARr>
SCYULBFZEHDVBN-UHFFFAOYSA-N

> <Salt_Solvent>


> <Salt_Solvent_ID>
0

> <MPID>
102242

> <HL Reference>
GOSSETT,JM (1987)

> <HL Temperature>
24

> <LogHL>
-2.25026368443094

> <Tr_1_Tst_0>
1

$$$$
100118
  Mrv171c012241914302D          

  4  3  0  0  0  0            999 V2000
    1.2371    0.0002    0.0000 C   0  0  0  0  0  0  0  0  0  0  0  0
    0.8246   -0.7143    0.0000 C   0  0  0  0  0  0  0  0  0  0  0  0
    1.2371   -1.4287    0.0000 Cl  0  0  0  0  0  0  0  0  0  0  0  0
   -0.0004   -0.7143    0.0000 Cl  0  0  0  0  0  0  0  0  0  0  0  0
  1  2  2  0  0  0  0
  2  3  1  0  0  0  0
  2  4  1  0  0  0  0
M  END
> <ChemID>
100118

> <CAS>
75-35-4

> <Original_SMILES>
C=C(Cl)Cl

> <preferred_name>
1,1-Dichloroethylene

> <dsstox_substance_id>
DTXSID8021438

> <dsstox_compound_id>
DTXCID001438

> <qc_level>
DSSTox_Low

> <Canonical_QSARr>
C=C(Cl)Cl

> <InChI_Code_QSARr>
InChI=1S/C2H2Cl2/c1-2(3)4/h1H2

> <InChI Key_QSARr>
LGXVIGDEPROXKC-UHFFFAOYSA-N

> <Salt_Solvent>


> <Salt_Solvent_ID>
0

> <MPID>
102243

> <HL Reference>
GOSSETT,JM (1987)

> <HL Temperature>
24

> <LogHL>
-1.5833594926617192

> <Tr_1_Tst_0>
1

$$$$
100119
  Mrv171c012241914302D          

  4  3  0  0  0  0            999 V2000
    0.4090   -0.7088    0.0000 C   0  0  0  0  0  0  0  0  0  0  0  0
    0.8215    0.0057    0.0000 F   0  0  0  0  0  0  0  0  0  0  0  0
    0.8215   -1.4232    0.0000 F   0  0  0  0  0  0  0  0  0  0  0  0
   -0.4160   -0.7088    0.0000 C   0  0  0  0  0  0  0  0  0  0  0  0
  1  2  1  0  0  0  0
  1  3  1  0  0  0  0
  1  4  1  0  0  0  0
M  END
> <ChemID>
100119

> <CAS>
75-37-6

> <Original_SMILES>
CC(F)F

> <preferred_name>
1,1-Difluoroethane

> <dsstox_substance_id>
DTXSID0024050

> <dsstox_compound_id>
DTXCID904050

> <qc_level>
DSSTox_Low

> <Canonical_QSARr>
CC(F)F

> <InChI_Code_QSARr>
InChI=1S/C2H4F2/c1-2(3)4/h2H,1H3

> <InChI Key_QSARr>
NPNPZTNLOVBDOC-UHFFFAOYSA-N

> <Salt_Solvent>


> <Salt_Solvent_ID>
0

> <MPID>
102244

> <HL Reference>
HINE,J & MOOKERJEE,PK (1975)

> <HL Temperature>
25

> <LogHL>
-1.692503962086789

> <Tr_1_Tst_0>
1

$$$$
100122
  Mrv171c012241914302D          

  4  3  0  0  0  0            999 V2000
    0.7182   -0.8221    0.0000 C   0  0  0  0  0  0  0  0  0  0  0  0
    1.1307   -0.1076    0.0000 Cl  0  0  0  0  0  0  0  0  0  0  0  0
    1.1307   -1.5366    0.0000 Cl  0  0  0  0  0  0  0  0  0  0  0  0
   -0.1068   -0.8221    0.0000 O   0  0  0  0  0  0  0  0  0  0  0  0
  1  2  1  0  0  0  0
  1  3  1  0  0  0  0
  1  4  2  0  0  0  0
M  END
> <ChemID>
100122

> <CAS>
75-44-5

> <Original_SMILES>
O=C(Cl)Cl

> <preferred_name>
Phosgene

> <dsstox_substance_id>
DTXSID0024260

> <dsstox_compound_id>
DTXCID604260

> <qc_level>
DSSTox_High

> <Canonical_QSARr>
O=C(Cl)Cl

> <InChI_Code_QSARr>
InChI=1S/CCl2O/c2-1(3)4

> <InChI Key_QSARr>
YGYAWVDWMABLBF-UHFFFAOYSA-N

> <Salt_Solvent>


> <Salt_Solvent_ID>
0

> <MPID>
102245

> <HL Reference>
DEBRUYN,WJ ET AL. (1995)

> <HL Temperature>
25

> <LogHL>
-1.7772835288524176

> <Tr_1_Tst_0>
1

$$$$
100123
  Mrv171c012241914302D          

  4  3  0  0  0  0            999 V2000
    1.2371    0.0002    0.0000 F   0  0  0  0  0  0  0  0  0  0  0  0
    0.8246   -0.7143    0.0000 C   0  0  0  0  0  0  0  0  0  0  0  0
    1.2371   -1.4287    0.0000 Cl  0  0  0  0  0  0  0  0  0  0  0  0
   -0.0004   -0.7143    0.0000 F   0  0  0  0  0  0  0  0  0  0  0  0
  1  2  1  0  0  0  0
  2  3  1  0  0  0  0
  2  4  1  0  0  0  0
M  END
> <ChemID>
100123

> <CAS>
75-45-6

> <Original_SMILES>
FC(F)Cl

> <preferred_name>
Chlorodifluoromethane

> <dsstox_substance_id>
DTXSID6020301

> <dsstox_compound_id>
DTXCID60301

> <qc_level>
DSSTox_Low

> <Canonical_QSARr>
FC(F)Cl

> <InChI_Code_QSARr>
InChI=1S/CHClF2/c2-1(3)4/h1H

> <InChI Key_QSARr>
VOPWNXZWBYDODV-UHFFFAOYSA-N

> <Salt_Solvent>


> <Salt_Solvent_ID>
0

> <MPID>
102246

> <HL Reference>
CHANG,WK & CRIDDLE,CS (1995)

> <HL Temperature>
22

> <LogHL>
-1.3914739664228057

> <Tr_1_Tst_0>
1

$$$$
100124
  Mrv171c012241914302D          

  4  3  0  0  0  0            999 V2000
    0.8160   -0.7168    0.0000 C   0  0  0  0  0  0  0  0  0  0  0  0
    1.2285   -0.0023    0.0000 F   0  0  0  0  0  0  0  0  0  0  0  0
    1.2285   -1.4313    0.0000 F   0  0  0  0  0  0  0  0  0  0  0  0
   -0.0090   -0.7168    0.0000 F   0  0  0  0  0  0  0  0  0  0  0  0
  1  2  1  0  0  0  0
  1  3  1  0  0  0  0
  1  4  1  0  0  0  0
M  END
> <ChemID>
100124

> <CAS>
75-46-7

> <Original_SMILES>
FC(F)F

> <preferred_name>
Trifluoromethane

> <dsstox_substance_id>
DTXSID0026410

> <dsstox_compound_id>
DTXCID706410

> <qc_level>
DSSTox_Low

> <Canonical_QSARr>
FC(F)F

> <InChI_Code_QSARr>
InChI=1S/CHF3/c2-1(3)4/h1H

> <InChI Key_QSARr>
XPDWGBQVDMORPB-UHFFFAOYSA-N

> <Salt_Solvent>


> <Salt_Solvent_ID>
0

> <MPID>
102247

> <HL Reference>
HINE,J & MOOKERJEE,PK (1975)

> <HL Temperature>
25

> <LogHL>
-1.0213630516155268

> <Tr_1_Tst_0>
0

$$$$
100125
  Mrv171c012241914302D          

  4  3  0  0  0  0            999 V2000
    0.8246   -0.7143    0.0000 N   0  0  0  0  0  0  0  0  0  0  0  0
    1.2371    0.0002    0.0000 C   0  0  0  0  0  0  0  0  0  0  0  0
    1.2371   -1.4287    0.0000 C   0  0  0  0  0  0  0  0  0  0  0  0
   -0.0004   -0.7143    0.0000 C   0  0  0  0  0  0  0  0  0  0  0  0
  1  2  1  0  0  0  0
  1  3  1  0  0  0  0
  1  4  1  0  0  0  0
M  END
> <ChemID>
100125

> <CAS>
75-50-3

> <Original_SMILES>
CN(C)C

> <preferred_name>
Trimethylamine

> <dsstox_substance_id>
DTXSID2026238

> <dsstox_compound_id>
DTXCID106238

> <qc_level>
DSSTox_Low

> <Canonical_QSARr>
CN(C)C

> <InChI_Code_QSARr>
InChI=1S/C3H9N/c1-4(2)3/h1-3H3

> <InChI Key_QSARr>
GETQZCLCWQTVFV-UHFFFAOYSA-N

> <Salt_Solvent>


> <Salt_Solvent_ID>
0

> <MPID>
102248

> <HL Reference>
CHRISTIE,AO & CRISP,DJ (1967)

> <HL Temperature>
25

> <LogHL>
-3.9829666607012184

> <Tr_1_Tst_0>
1

$$$$
100126
  Mrv171c012241914302D          

  4  3  0  0  0  0            999 V2000
    1.2393    0.0002    0.0000 C   0  0  0  0  0  0  0  0  0  0  0  0
    0.8268   -0.7143    0.0000 N   0  3  0  0  0  0  0  0  0  0  0  0
    1.2393   -1.4288    0.0000 O   0  5  0  0  0  0  0  0  0  0  0  0
    0.0018   -0.7143    0.0000 O   0  0  0  0  0  0  0  0  0  0  0  0
  1  2  1  0  0  0  0
  2  3  1  0  0  0  0
  2  4  2  0  0  0  0
M  CHG  2   2   1   3  -1
M  END
> <ChemID>
100126

> <CAS>
75-52-5

> <Original_SMILES>
C[N+]([O-])=O

> <preferred_name>
Nitromethane

> <dsstox_substance_id>
DTXSID2020977

> <dsstox_compound_id>
DTXCID40977

> <qc_level>
DSSTox_Low

> <Canonical_QSARr>
C[N+]([O-])=O

> <InChI_Code_QSARr>
InChI=1S/CH3NO2/c1-2(3)4/h1H3

> <InChI Key_QSARr>
LYGJENNIWJXYER-UHFFFAOYSA-N

> <Salt_Solvent>


> <Salt_Solvent_ID>
0

> <MPID>
102249

> <HL Reference>
GAFFNEY,JS ET AL. (1987)

> <HL Temperature>
25

> <LogHL>
-4.543633966870971

> <Tr_1_Tst_0>
1

$$$$
100129
  Mrv171c012241914302D          

  5  4  0  0  0  0            999 V2000
    0.8250   -0.8250    0.0000 C   0  0  0  0  0  0  0  0  0  0  0  0
    0.8250   -1.6500    0.0000 F   0  0  0  0  0  0  0  0  0  0  0  0
    0.8250    0.0000    0.0000 F   0  0  0  0  0  0  0  0  0  0  0  0
    1.6500   -0.8250    0.0000 F   0  0  0  0  0  0  0  0  0  0  0  0
    0.0000   -0.8250    0.0000 Br  0  0  0  0  0  0  0  0  0  0  0  0
  1  2  1  0  0  0  0
  1  3  1  0  0  0  0
  1  4  1  0  0  0  0
  1  5  1  0  0  0  0
M  END
> <ChemID>
100129

> <CAS>
75-63-8

> <Original_SMILES>
FC(F)(F)Br

> <preferred_name>
Bromotrifluoromethane

> <dsstox_substance_id>
DTXSID5026415

> <dsstox_compound_id>
DTXCID706415

> <qc_level>
DSSTox_Low

> <Canonical_QSARr>
FC(F)(F)Br

> <InChI_Code_QSARr>
InChI=1S/CBrF3/c2-1(3,4)5

> <InChI Key_QSARr>
RJCQBQGAPKAMLL-UHFFFAOYSA-N

> <Salt_Solvent>


> <Salt_Solvent_ID>
0

> <MPID>
102250

> <HL Reference>
HINE,J & MOOKERJEE,PK (1975)

> <HL Temperature>
25

> <LogHL>
-0.3018994543766099

> <Tr_1_Tst_0>
1

$$$$
100131
  Mrv171c012241914302D          

  5  4  0  0  0  0            999 V2000
    0.8250   -0.8250    0.0000 C   0  0  0  0  0  0  0  0  0  0  0  0
    0.8250   -1.6500    0.0000 O   0  0  0  0  0  0  0  0  0  0  0  0
    0.8250    0.0000    0.0000 C   0  0  0  0  0  0  0  0  0  0  0  0
    1.6500   -0.8250    0.0000 C   0  0  0  0  0  0  0  0  0  0  0  0
    0.0000   -0.8250    0.0000 C   0  0  0  0  0  0  0  0  0  0  0  0
  1  2  1  0  0  0  0
  1  3  1  0  0  0  0
  1  4  1  0  0  0  0
  1  5  1  0  0  0  0
M  END
> <ChemID>
100131

> <CAS>
75-65-0

> <Original_SMILES>
CC(C)(C)O

> <preferred_name>
tert-Butyl alcohol

> <dsstox_substance_id>
DTXSID8020204

> <dsstox_compound_id>
DTXCID40204

> <qc_level>
DSSTox_Low

> <Canonical_QSARr>
CC(C)(C)O

> <InChI_Code_QSARr>
InChI=1S/C4H10O/c1-4(2,3)5/h5H,1-3H3

> <InChI Key_QSARr>
DKGAVHZHDRPRBM-UHFFFAOYSA-N

> <Salt_Solvent>


> <Salt_Solvent_ID>
0

> <MPID>
102251

> <HL Reference>
ALTSCHUH,J ET AL. (1999)

> <HL Temperature>
25

> <LogHL>
-5.043351420794779

> <Tr_1_Tst_0>
1

$$$$
100132
  Mrv171c012241914302D          

  5  4  0  0  0  0            999 V2000
    0.8250   -0.8250    0.0000 C   0  0  0  0  0  0  0  0  0  0  0  0
    0.8250   -1.6500    0.0000 F   0  0  0  0  0  0  0  0  0  0  0  0
    0.8250    0.0000    0.0000 F   0  0  0  0  0  0  0  0  0  0  0  0
    1.6500   -0.8250    0.0000 Cl  0  0  0  0  0  0  0  0  0  0  0  0
    0.0000   -0.8250    0.0000 C   0  0  0  0  0  0  0  0  0  0  0  0
  1  2  1  0  0  0  0
  1  3  1  0  0  0  0
  1  4  1  0  0  0  0
  1  5  1  0  0  0  0
M  END
> <ChemID>
100132

> <CAS>
75-68-3

> <Original_SMILES>
CC(F)(F)Cl

> <preferred_name>
1-Chloro-1,1-difluoroethane

> <dsstox_substance_id>
DTXSID9023960

> <dsstox_compound_id>
DTXCID903960

> <qc_level>
DSSTox_Low

> <Canonical_QSARr>
CC(F)(F)Cl

> <InChI_Code_QSARr>
InChI=1S/C2H3ClF2/c1-2(3,4)5/h1H3

> <InChI Key_QSARr>
BHNZEZWIUMJCGF-UHFFFAOYSA-N

> <Salt_Solvent>


> <Salt_Solvent_ID>
0

> <MPID>
102252

> <HL Reference>
CHANG,WK & CRIDDLE,CS (1995)

> <HL Temperature>
22

> <LogHL>
-1.2306226739238633

> <Tr_1_Tst_0>
0

$$$$
100133
  Mrv171c012241914302D          

  5  4  0  0  0  0            999 V2000
    0.8250   -1.6500    0.0000 F   0  0  0  0  0  0  0  0  0  0  0  0
    0.8250   -0.8250    0.0000 C   0  0  0  0  0  0  0  0  0  0  0  0
    0.8250    0.0000    0.0000 Cl  0  0  0  0  0  0  0  0  0  0  0  0
    1.6500   -0.8250    0.0000 Cl  0  0  0  0  0  0  0  0  0  0  0  0
    0.0000   -0.8250    0.0000 Cl  0  0  0  0  0  0  0  0  0  0  0  0
  1  2  1  0  0  0  0
  2  3  1  0  0  0  0
  2  4  1  0  0  0  0
  2  5  1  0  0  0  0
M  END
> <ChemID>
100133

> <CAS>
75-69-4

> <Original_SMILES>
FC(Cl)(Cl)Cl

> <preferred_name>
Trichlorofluoromethane

> <dsstox_substance_id>
DTXSID5021384

> <dsstox_compound_id>
DTXCID701384

> <qc_level>
DSSTox_Low

> <Canonical_QSARr>
FC(Cl)(Cl)Cl

> <InChI_Code_QSARr>
InChI=1S/CCl3F/c2-1(3,4)5

> <InChI Key_QSARr>
CYRMSUTZVYGINF-UHFFFAOYSA-N

> <Salt_Solvent>


> <Salt_Solvent_ID>
0

> <MPID>
102253

> <HL Reference>
WARNER,MJ & WEISS,RF (1985)

> <HL Temperature>
25

> <LogHL>
-1.0132282657337532

> <Tr_1_Tst_0>
1

$$$$
100134
  Mrv171c012241914302D          

  5  4  0  0  0  0            999 V2000
    0.8250   -1.6500    0.0000 F   0  0  0  0  0  0  0  0  0  0  0  0
    0.8250   -0.8250    0.0000 C   0  0  0  0  0  0  0  0  0  0  0  0
    0.8250    0.0000    0.0000 Cl  0  0  0  0  0  0  0  0  0  0  0  0
    1.6500   -0.8250    0.0000 Cl  0  0  0  0  0  0  0  0  0  0  0  0
    0.0000   -0.8250    0.0000 F   0  0  0  0  0  0  0  0  0  0  0  0
  1  2  1  0  0  0  0
  2  3  1  0  0  0  0
  2  4  1  0  0  0  0
  2  5  1  0  0  0  0
M  END
> <ChemID>
100134

> <CAS>
75-71-8

> <Original_SMILES>
FC(F)(Cl)Cl

> <preferred_name>
Dichlorodifluoromethane

> <dsstox_substance_id>
DTXSID6020436

> <dsstox_compound_id>
DTXCID80436

> <qc_level>
DSSTox_Low

> <Canonical_QSARr>
FC(F)(Cl)Cl

> <InChI_Code_QSARr>
InChI=1S/CCl2F2/c2-1(3,4)5

> <InChI Key_QSARr>
PXBRQCKWGAHEHS-UHFFFAOYSA-N

> <Salt_Solvent>


> <Salt_Solvent_ID>
0

> <MPID>
102254

> <HL Reference>
WARNER,MJ & WEISS,RF (1985)

> <HL Temperature>
25

> <LogHL>
-0.4647058799572307

> <Tr_1_Tst_0>
1

$$$$
100135
  Mrv171c012241914302D          

  5  4  0  0  0  0            999 V2000
    0.7163   -0.9887    0.0000 C   0  0  0  0  0  0  0  0  0  0  0  0
    0.7163   -1.8137    0.0000 Cl  0  0  0  0  0  0  0  0  0  0  0  0
    0.7163   -0.1637    0.0000 F   0  0  0  0  0  0  0  0  0  0  0  0
    1.5413   -0.9887    0.0000 F   0  0  0  0  0  0  0  0  0  0  0  0
   -0.1087   -0.9887    0.0000 F   0  0  0  0  0  0  0  0  0  0  0  0
  1  2  1  0  0  0  0
  1  3  1  0  0  0  0
  1  4  1  0  0  0  0
  1  5  1  0  0  0  0
M  END
> <ChemID>
100135

> <CAS>
75-72-9

> <Original_SMILES>
FC(F)(F)Cl

> <preferred_name>
Chlorotrifluoromethane

> <dsstox_substance_id>
DTXSID4052500

> <dsstox_compound_id>
DTXCID8031073

> <qc_level>
DSSTox_Low

> <Canonical_QSARr>
FC(F)(F)Cl

> <InChI_Code_QSARr>
InChI=1S/CClF3/c2-1(3,4)5

> <InChI Key_QSARr>
AFYPFACVUDMOHA-UHFFFAOYSA-N

> <Salt_Solvent>


> <Salt_Solvent_ID>
0

> <MPID>
102255

> <HL Reference>
PARK,T ET AL. (1982)

> <HL Temperature>
25

> <LogHL>
0.13987908640123634

> <Tr_1_Tst_0>
1

$$$$
100140
  Mrv171c012241914302D          

  6  5  0  0  0  0            999 V2000
    1.5721   -1.5496    0.0000 C   0  0  0  0  0  0  0  0  0  0  0  0
    1.1596   -0.8351    0.0000 C   0  0  0  0  0  0  0  0  0  0  0  0
    1.8740   -0.4226    0.0000 C   0  0  0  0  0  0  0  0  0  0  0  0
    0.4451   -1.2476    0.0000 O   0  0  0  0  0  0  0  0  0  0  0  0
    0.7471   -0.1207    0.0000 C   0  0  0  0  0  0  0  0  0  0  0  0
   -0.0779   -0.1207    0.0000 C   0  0  0  0  0  0  0  0  0  0  0  0
  1  2  1  0  0  0  0
  2  3  1  0  0  0  0
  2  4  1  0  0  0  0
  2  5  1  0  0  0  0
  5  6  1  0  0  0  0
M  END
> <ChemID>
100140

> <CAS>
75-85-4

> <Original_SMILES>
CCC(C)(C)O

> <preferred_name>
2-Methyl-2-butanol

> <dsstox_substance_id>
DTXSID0041436

> <dsstox_compound_id>
DTXCID8021436

> <qc_level>
DSSTox_Low

> <Canonical_QSARr>
CCC(C)(C)O

> <InChI_Code_QSARr>
InChI=1S/C5H12O/c1-4-5(2,3)6/h6H,4H2,1-3H3

> <InChI Key_QSARr>
MSXVEPNJUHWQHW-UHFFFAOYSA-N

> <Salt_Solvent>


> <Salt_Solvent_ID>
0

> <MPID>
102257

> <HL Reference>
BUTLER,JAV ET AL. (1935)

> <HL Temperature>
25

> <LogHL>
-4.860120913598757

> <Tr_1_Tst_0>
0

$$$$
100141
  Mrv171c012241914302D          

  6  5  0  0  0  0            999 V2000
    0.3559   -1.7453    0.0000 O   0  0  0  0  0  0  0  0  0  0  0  0
    1.0703   -1.3328    0.0000 C   0  0  0  0  0  0  0  0  0  0  0  0
    1.0703   -0.5078    0.0000 C   0  0  0  0  0  0  0  0  0  0  0  0
    1.0703    0.3172    0.0000 Cl  0  0  0  0  0  0  0  0  0  0  0  0
    1.8953   -0.5078    0.0000 Cl  0  0  0  0  0  0  0  0  0  0  0  0
    0.2453   -0.5078    0.0000 Cl  0  0  0  0  0  0  0  0  0  0  0  0
  1  2  2  0  0  0  0
  2  3  1  0  0  0  0
  3  4  1  0  0  0  0
  3  5  1  0  0  0  0
  3  6  1  0  0  0  0
M  END
> <ChemID>
100141

> <CAS>
75-87-6

> <Original_SMILES>
O=CC(Cl)(Cl)Cl

> <preferred_name>
Chloral

> <dsstox_substance_id>
DTXSID7024744

> <dsstox_compound_id>
DTXCID604744

> <qc_level>
DSSTox_Low

> <Canonical_QSARr>
O=CC(Cl)(Cl)Cl

> <InChI_Code_QSARr>
InChI=1S/C2HCl3O/c3-2(4,5)1-6/h1H

> <InChI Key_QSARr>
HFFLGKNGCAIQMO-UHFFFAOYSA-N

> <Salt_Solvent>


> <Salt_Solvent_ID>
0

> <MPID>
102258

> <HL Reference>
BETTERTON,EA & HOFFMAN,MR (1988)

> <HL Temperature>
25

> <LogHL>
-8.536107011014087

> <Tr_1_Tst_0>
1

$$$$
100143
  Mrv171c012241914302D          

  7  6  0  0  0  0            999 V2000
    0.1105   -1.7679    0.0000 O   0  0  0  0  0  0  0  0  0  0  0  0
    0.8250   -1.3554    0.0000 C   0  0  0  0  0  0  0  0  0  0  0  0
    1.5395   -1.7679    0.0000 O   0  0  0  0  0  0  0  0  0  0  0  0
    0.8250   -0.5304    0.0000 C   0  0  0  0  0  0  0  0  0  0  0  0
    0.8250    0.2946    0.0000 Br  0  0  0  0  0  0  0  0  0  0  0  0
    1.6500   -0.5304    0.0000 Br  0  0  0  0  0  0  0  0  0  0  0  0
    0.0000   -0.5304    0.0000 Br  0  0  0  0  0  0  0  0  0  0  0  0
  1  2  1  0  0  0  0
  2  3  2  0  0  0  0
  2  4  1  0  0  0  0
  4  5  1  0  0  0  0
  4  6  1  0  0  0  0
  4  7  1  0  0  0  0
M  END
> <ChemID>
100143

> <CAS>
75-96-7

> <Original_SMILES>
OC(=O)C(Br)(Br)Br

> <preferred_name>
Tribromoacetic acid

> <dsstox_substance_id>
DTXSID6021668

> <dsstox_compound_id>
DTXCID301668

> <qc_level>
DSSTox_Low

> <Canonical_QSARr>
OC(=O)C(Br)(Br)Br

> <InChI_Code_QSARr>
InChI=1S/C2HBr3O2/c3-2(4,5)1(6)7/h(H,6,7)

> <InChI Key_QSARr>
QIONYIKHPASLHO-UHFFFAOYSA-N

> <Salt_Solvent>


> <Salt_Solvent_ID>
0

> <MPID>
102260

> <HL Reference>
BOWDEN,DJ ET AL. (1998A)

> <HL Temperature>
25

> <LogHL>
-8.476253533188434

> <Tr_1_Tst_0>
1

$$$$
100145
  Mrv171c012241914302D          

  7  6  0  0  0  0            999 V2000
    1.1228   -1.5286    0.0000 C   0  0  0  0  0  0  0  0  0  0  0  0
    0.4084   -1.9411    0.0000 O   0  0  0  0  0  0  0  0  0  0  0  0
    1.8373   -1.9411    0.0000 O   0  0  0  0  0  0  0  0  0  0  0  0
    1.1228   -0.7036    0.0000 C   0  0  0  0  0  0  0  0  0  0  0  0
    1.1228    0.1214    0.0000 C   0  0  0  0  0  0  0  0  0  0  0  0
    1.9478   -0.7036    0.0000 C   0  0  0  0  0  0  0  0  0  0  0  0
    0.2978   -0.7036    0.0000 C   0  0  0  0  0  0  0  0  0  0  0  0
  1  2  2  0  0  0  0
  1  3  1  0  0  0  0
  1  4  1  0  0  0  0
  4  5  1  0  0  0  0
  4  6  1  0  0  0  0
  4  7  1  0  0  0  0
M  END
> <ChemID>
100145

> <CAS>
75-98-9

> <Original_SMILES>
CC(C)(C)C(O)=O

> <preferred_name>
2,2-Dimethylpropanoic acid

> <dsstox_substance_id>
DTXSID8026432

> <dsstox_compound_id>
DTXCID106432

> <qc_level>
DSSTox_Low

> <Canonical_QSARr>
CC(C)(C)C(O)=O

> <InChI_Code_QSARr>
InChI=1S/C5H10O2/c1-5(2,3)4(6)7/h1-3H3,(H,6,7)

> <InChI Key_QSARr>
IUGYQRQAERSCNH-UHFFFAOYSA-N

> <Salt_Solvent>


> <Salt_Solvent_ID>
0

> <MPID>
102261

> <HL Reference>
KHAN,I & BRIMBLECOMBE,P (1992)

> <HL Temperature>
25

> <LogHL>
-5.555955204081911

> <Tr_1_Tst_0>
1

$$$$
100148
  Mrv171c012241914302D          

  7  6  0  0  0  0            999 V2000
    1.2048   -0.7657    0.0000 C   0  0  0  0  0  0  0  0  0  0  0  0
    1.6173   -0.0512    0.0000 Cl  0  0  0  0  0  0  0  0  0  0  0  0
    0.4903   -0.3532    0.0000 Cl  0  0  0  0  0  0  0  0  0  0  0  0
    1.9192   -1.1782    0.0000 Cl  0  0  0  0  0  0  0  0  0  0  0  0
    0.7923   -1.4802    0.0000 C   0  0  0  0  0  0  0  0  0  0  0  0
    1.2048   -2.1946    0.0000 Cl  0  0  0  0  0  0  0  0  0  0  0  0
   -0.0327   -1.4802    0.0000 O   0  0  0  0  0  0  0  0  0  0  0  0
  1  2  1  0  0  0  0
  1  3  1  0  0  0  0
  1  4  1  0  0  0  0
  1  5  1  0  0  0  0
  5  6  1  0  0  0  0
  5  7  2  0  0  0  0
M  END
> <ChemID>
100148

> <CAS>
76-02-8

> <Original_SMILES>
O=C(Cl)C(Cl)(Cl)Cl

> <preferred_name>
Trichloroacetyl chloride

> <dsstox_substance_id>
DTXSID9034070

> <dsstox_compound_id>
DTXCID7014070

> <qc_level>
DSSTox_Low

> <Canonical_QSARr>
O=C(Cl)C(Cl)(Cl)Cl

> <InChI_Code_QSARr>
InChI=1S/C2Cl4O/c3-1(7)2(4,5)6

> <InChI Key_QSARr>
PVFOMCVHYWHZJE-UHFFFAOYSA-N

> <Salt_Solvent>


> <Salt_Solvent_ID>
0

> <MPID>
102262

> <HL Reference>
NIST WEBBOOK

> <HL Temperature>
25

> <LogHL>
-3.2949920406666635

> <Tr_1_Tst_0>
0

$$$$
100149
  Mrv171c012241914302D          

  7  6  0  0  0  0            999 V2000
    1.4143    0.1367    0.0000 Cl  0  0  0  0  0  0  0  0  0  0  0  0
    1.0018   -0.5777    0.0000 C   0  0  0  0  0  0  0  0  0  0  0  0
    0.2873   -0.1652    0.0000 Cl  0  0  0  0  0  0  0  0  0  0  0  0
    1.7163   -0.9902    0.0000 Cl  0  0  0  0  0  0  0  0  0  0  0  0
    0.5893   -1.2922    0.0000 C   0  0  0  0  0  0  0  0  0  0  0  0
    1.0018   -2.0067    0.0000 O   0  0  0  0  0  0  0  0  0  0  0  0
   -0.2357   -1.2922    0.0000 O   0  0  0  0  0  0  0  0  0  0  0  0
  1  2  1  0  0  0  0
  2  3  1  0  0  0  0
  2  4  1  0  0  0  0
  2  5  1  0  0  0  0
  5  6  1  0  0  0  0
  5  7  2  0  0  0  0
M  END
> <ChemID>
100149

> <CAS>
76-03-9

> <Original_SMILES>
OC(=O)C(Cl)(Cl)Cl

> <preferred_name>
Trichloroacetic acid

> <dsstox_substance_id>
DTXSID1021378

> <dsstox_compound_id>
DTXCID001378

> <qc_level>
DSSTox_High

> <Canonical_QSARr>
OC(=O)C(Cl)(Cl)Cl

> <InChI_Code_QSARr>
InChI=1S/C2HCl3O2/c3-2(4,5)1(6)7/h(H,6,7)

> <InChI Key_QSARr>
YNJBWRMUSHSURL-UHFFFAOYSA-N

> <Salt_Solvent>


> <Salt_Solvent_ID>
0

> <MPID>
102263

> <HL Reference>
BOWDEN,DJ ET AL. (1998)

> <HL Temperature>
25

> <LogHL>
-7.869666231504981

> <Tr_1_Tst_0>
1

$$$$
100150
  Mrv171c012241914302D          

  7  6  0  0  0  0            999 V2000
    1.0018    0.7692    0.0000 O   0  0  0  0  0  0  0  0  0  0  0  0
    0.5893    0.0547    0.0000 C   0  0  0  0  0  0  0  0  0  0  0  0
    1.0018   -0.6598    0.0000 C   0  0  0  0  0  0  0  0  0  0  0  0
    1.4143   -1.3742    0.0000 Cl  0  0  0  0  0  0  0  0  0  0  0  0
    0.2873   -1.0723    0.0000 F   0  0  0  0  0  0  0  0  0  0  0  0
    1.7163   -0.2473    0.0000 F   0  0  0  0  0  0  0  0  0  0  0  0
   -0.2357    0.0547    0.0000 O   0  0  0  0  0  0  0  0  0  0  0  0
  1  2  2  0  0  0  0
  2  3  1  0  0  0  0
  3  4  1  0  0  0  0
  3  5  1  0  0  0  0
  3  6  1  0  0  0  0
  2  7  1  0  0  0  0
M  END
> <ChemID>
100150

> <CAS>
76-04-0

> <Original_SMILES>
OC(=O)C(F)(F)Cl

> <preferred_name>
Acetic acid, chlorodifluoro-

> <dsstox_substance_id>
DTXSID8058792

> <dsstox_compound_id>
DTXCID0047824

> <qc_level>
Public_High

> <Canonical_QSARr>
OC(=O)C(F)(F)Cl

> <InChI_Code_QSARr>
InChI=1S/C2HClF2O2/c3-2(4,5)1(6)7/h(H,6,7)

> <InChI Key_QSARr>
OAWAZQITIZDJRB-UHFFFAOYSA-N

> <Salt_Solvent>


> <Salt_Solvent_ID>
0

> <MPID>
102264

> <HL Reference>
BOWDEN,DJ ET AL. (1998A)

> <HL Temperature>
25

> <LogHL>
-7.387216143280263

> <Tr_1_Tst_0>
1

$$$$
100152
  Mrv171c012241914302D          

  7  6  0  0  0  0            999 V2000
    1.4143    0.1367    0.0000 Cl  0  0  0  0  0  0  0  0  0  0  0  0
    1.0018   -0.5777    0.0000 C   0  0  0  0  0  0  0  0  0  0  0  0
    0.2873   -0.1652    0.0000 Cl  0  0  0  0  0  0  0  0  0  0  0  0
    1.7163   -0.9902    0.0000 Cl  0  0  0  0  0  0  0  0  0  0  0  0
    0.5893   -1.2922    0.0000 N   0  3  0  0  0  0  0  0  0  0  0  0
    1.0018   -2.0067    0.0000 O   0  5  0  0  0  0  0  0  0  0  0  0
   -0.2357   -1.2922    0.0000 O   0  0  0  0  0  0  0  0  0  0  0  0
  1  2  1  0  0  0  0
  2  3  1  0  0  0  0
  2  4  1  0  0  0  0
  2  5  1  0  0  0  0
  5  6  1  0  0  0  0
  5  7  2  0  0  0  0
M  CHG  2   5   1   6  -1
M  END
> <ChemID>
100152

> <CAS>
76-06-2

> <Original_SMILES>
[O-][N+](=O)C(Cl)(Cl)Cl

> <preferred_name>
Chloropicrin

> <dsstox_substance_id>
DTXSID0020315

> <dsstox_compound_id>
DTXCID00315

> <qc_level>
DSSTox_High

> <Canonical_QSARr>
[O-][N+](=O)C(Cl)(Cl)Cl

> <InChI_Code_QSARr>
InChI=1S/CCl3NO2/c2-1(3,4)5(6)7

> <InChI Key_QSARr>
LFHISGNCFUNFFM-UHFFFAOYSA-N

> <Salt_Solvent>


> <Salt_Solvent_ID>
0

> <MPID>
102266

> <HL Reference>
KAWAMOTO,K & URANO,K (1989)

> <HL Temperature>
25

> <LogHL>
-2.6882461389442454

> <Tr_1_Tst_0>
0

$$$$
100162
  Mrv171c012241914302D          

  8  7  0  0  0  0            999 V2000
    1.0690   -0.8627    0.0000 C   0  0  0  0  0  0  0  0  0  0  0  0
    1.0690   -1.6877    0.0000 C   0  0  0  0  0  0  0  0  0  0  0  0
    1.7835   -2.1002    0.0000 Cl  0  0  0  0  0  0  0  0  0  0  0  0
    0.3545   -2.1002    0.0000 Cl  0  0  0  0  0  0  0  0  0  0  0  0
    1.0690   -0.0377    0.0000 O   0  0  0  0  0  0  0  0  0  0  0  0
    0.3545    0.3748    0.0000 C   0  0  0  0  0  0  0  0  0  0  0  0
    1.8940   -0.8627    0.0000 F   0  0  0  0  0  0  0  0  0  0  0  0
    0.2440   -0.8627    0.0000 F   0  0  0  0  0  0  0  0  0  0  0  0
  1  2  1  0  0  0  0
  2  3  1  0  0  0  0
  2  4  1  0  0  0  0
  1  5  1  0  0  0  0
  5  6  1  0  0  0  0
  1  7  1  0  0  0  0
  1  8  1  0  0  0  0
M  END
> <ChemID>
100162

> <CAS>
76-38-0

> <Original_SMILES>
COC(F)(F)C(Cl)Cl

> <preferred_name>
Methoxyflurane

> <dsstox_substance_id>
DTXSID7025556

> <dsstox_compound_id>
DTXCID405556

> <qc_level>
DSSTox_Low

> <Canonical_QSARr>
COC(F)(F)C(Cl)Cl

> <InChI_Code_QSARr>
InChI=1S/C3H4Cl2F2O/c1-8-3(6,7)2(4)5/h2H,1H3

> <InChI Key_QSARr>
RFKMCNOHBTXSMU-UHFFFAOYSA-N

> <Salt_Solvent>


> <Salt_Solvent_ID>
0

> <MPID>
102269

> <HL Reference>
ABRAHAM,MH ET AL. (1994)

> <HL Temperature>
25

> <LogHL>
-2.4317982759330055

> <Tr_1_Tst_0>
1

$$$$
100163
  Mrv171c012241914302D          

 17 19  0  0  0  0            999 V2000
    1.4056   -1.2261    0.0000 C   0  0  0  0  0  0  0  0  0  0  0  0
    1.3880   -0.3679    0.0000 Cl  0  0  0  0  0  0  0  0  0  0  0  0
    2.0376   -1.5561    0.0000 C   0  0  0  0  0  0  0  0  0  0  0  0
    2.9047   -1.3837    0.0000 C   0  0  0  0  0  0  0  0  0  0  0  0
    3.1554   -0.5320    0.0000 Cl  0  0  0  0  0  0  0  0  0  0  0  0
    3.3896   -2.0511    0.0000 C   0  0  0  0  0  0  0  0  0  0  0  0
    2.9047   -2.7186    0.0000 C   0  0  0  0  0  0  0  0  0  0  0  0
    2.0376   -2.5461    0.0000 C   0  0  0  0  0  0  0  0  0  0  0  0
    1.4056   -2.8761    0.0000 C   0  0  0  0  0  0  0  0  0  0  0  0
    0.6911   -2.4636    0.0000 C   0  0  0  0  0  0  0  0  0  0  0  0
   -0.0477   -2.8895    0.0000 Cl  0  0  0  0  0  0  0  0  0  0  0  0
    0.6911   -1.6386    0.0000 C   0  0  0  0  0  0  0  0  0  0  0  0
   -0.0476   -1.2129    0.0000 Cl  0  0  0  0  0  0  0  0  0  0  0  0
    1.3926   -3.7347    0.0000 Cl  0  0  0  0  0  0  0  0  0  0  0  0
    1.6118   -2.0511    0.0000 C   0  0  0  0  0  0  0  0  0  0  0  0
    2.5556   -1.7741    0.0000 Cl  0  0  0  0  0  0  0  0  0  0  0  0
    2.5548   -2.3315    0.0000 Cl  0  0  0  0  0  0  0  0  0  0  0  0
  1  2  1  0  0  0  0
  3  1  1  0  0  0  0
  3  4  1  0  0  0  0
  4  5  1  0  0  0  0
  4  6  1  0  0  0  0
  6  7  2  0  0  0  0
  7  8  1  0  0  0  0
  8  3  1  0  0  0  0
  9  8  1  0  0  0  0
  9 10  1  0  0  0  0
 10 11  1  0  0  0  0
 10 12  2  0  0  0  0
 12  1  1  0  0  0  0
 12 13  1  0  0  0  0
  9 14  1  0  0  0  0
 15  9  1  0  0  0  0
  1 15  1  0  0  0  0
 15 16  1  0  0  0  0
 15 17  1  0  0  0  0
M  END
> <ChemID>
100163

> <CAS>
76-44-8

> <Original_SMILES>
ClC1(Cl)C2(Cl)C3C=CC(Cl)C3C1(Cl)C(Cl)=C2Cl

> <preferred_name>
Heptachlor

> <dsstox_substance_id>
DTXSID3020679

> <dsstox_compound_id>
DTXCID70679

> <qc_level>
DSSTox_Low

> <Canonical_QSARr>
ClC1(Cl)C2(Cl)C3C=CC(Cl)C3C1(Cl)C(Cl)=C2Cl

> <InChI_Code_QSARr>
InChI=1S/C10H5Cl7/c11-4-2-1-3-5(4)9(15)7(13)6(12)8(3,14)10(9,16)17/h1-5H

> <InChI Key_QSARr>
FRCCEHPWNOQAEU-UHFFFAOYSA-N

> <Salt_Solvent>


> <Salt_Solvent_ID>
0

> <MPID>
102270

> <HL Reference>
ALTSCHUH,J ET AL. (1999)

> <HL Temperature>
25

> <LogHL>
-3.5316526695878414

> <Tr_1_Tst_0>
1

$$$$
100165
  Mrv171c012241914302D          

 11 11  0  0  0  0            999 V2000
    1.0414   -0.1130    0.0000 Cl  0  0  0  0  0  0  0  0  0  0  0  0
    1.5934   -0.7261    0.0000 C   0  0  0  0  0  0  0  0  0  0  0  0
    2.1454   -0.1130    0.0000 Cl  0  0  0  0  0  0  0  0  0  0  0  0
    0.9259   -1.2110    0.0000 C   0  0  0  0  0  0  0  0  0  0  0  0
    0.1413   -0.9561    0.0000 Cl  0  0  0  0  0  0  0  0  0  0  0  0
    1.1809   -1.9956    0.0000 C   0  0  0  0  0  0  0  0  0  0  0  0
    0.6960   -2.6631    0.0000 Cl  0  0  0  0  0  0  0  0  0  0  0  0
    2.0059   -1.9956    0.0000 C   0  0  0  0  0  0  0  0  0  0  0  0
    2.4908   -2.6631    0.0000 Cl  0  0  0  0  0  0  0  0  0  0  0  0
    2.2608   -1.2110    0.0000 C   0  0  0  0  0  0  0  0  0  0  0  0
    3.0454   -0.9561    0.0000 Cl  0  0  0  0  0  0  0  0  0  0  0  0
  1  2  1  0  0  0  0
  2  3  1  0  0  0  0
  4  2  1  0  0  0  0
  4  5  1  0  0  0  0
  6  4  2  0  0  0  0
  6  7  1  0  0  0  0
  8  6  1  0  0  0  0
  8  9  1  0  0  0  0
 10  8  2  0  0  0  0
  2 10  1  0  0  0  0
 10 11  1  0  0  0  0
M  END
> <ChemID>
100165

> <CAS>
77-47-4

> <Original_SMILES>
ClC1(Cl)C(Cl)=C(Cl)C(Cl)=C1Cl

> <preferred_name>
Hexachlorocyclopentadiene

> <dsstox_substance_id>
DTXSID2020688

> <dsstox_compound_id>
DTXCID60688

> <qc_level>
DSSTox_Low

> <Canonical_QSARr>
ClC1(Cl)C(Cl)=C(Cl)C(Cl)=C1Cl

> <InChI_Code_QSARr>
InChI=1S/C5Cl6/c6-1-2(7)4(9)5(10,11)3(1)8

> <InChI Key_QSARr>
VUNCWTMEJYMOOR-UHFFFAOYSA-N

> <Salt_Solvent>


> <Salt_Solvent_ID>
0

> <MPID>
102271

> <HL Reference>
WOLFE,NL ET AL. (1982)

> <HL Temperature>
25

> <LogHL>
-1.5686362358410133

> <Tr_1_Tst_0>
0

$$$$
100175
  Mrv171c012241914302D          

 11 10  0  0  0  0            999 V2000
    1.8128   -0.5177    0.0000 O   0  0  0  0  0  0  0  0  0  0  0  0
    2.2253   -1.2322    0.0000 P   0  0  0  0  0  0  0  0  0  0  0  0
    1.5109   -1.6447    0.0000 O   0  0  0  0  0  0  0  0  0  0  0  0
    0.7964   -1.2322    0.0000 C   0  0  0  0  0  0  0  0  0  0  0  0
    0.0819   -1.6447    0.0000 C   0  0  0  0  0  0  0  0  0  0  0  0
    2.9398   -0.8197    0.0000 O   0  0  0  0  0  0  0  0  0  0  0  0
    3.6543   -1.2322    0.0000 C   0  0  0  0  0  0  0  0  0  0  0  0
    4.3688   -0.8197    0.0000 C   0  0  0  0  0  0  0  0  0  0  0  0
    2.6378   -1.9466    0.0000 O   0  0  0  0  0  0  0  0  0  0  0  0
    2.2253   -2.6611    0.0000 C   0  0  0  0  0  0  0  0  0  0  0  0
    1.4003   -2.6611    0.0000 C   0  0  0  0  0  0  0  0  0  0  0  0
  1  2  2  0  0  0  0
  2  3  1  0  0  0  0
  3  4  1  0  0  0  0
  4  5  1  0  0  0  0
  2  6  1  0  0  0  0
  6  7  1  0  0  0  0
  7  8  1  0  0  0  0
  2  9  1  0  0  0  0
  9 10  1  0  0  0  0
 10 11  1  0  0  0  0
M  END
> <ChemID>
100175

> <CAS>
78-40-0

> <Original_SMILES>
CCOP(=O)(OCC)OCC

> <preferred_name>
Triethyl phosphate

> <dsstox_substance_id>
DTXSID8026228

> <dsstox_compound_id>
DTXCID806228

> <qc_level>
DSSTox_Low

> <Canonical_QSARr>
CCOP(=O)(OCC)OCC

> <InChI_Code_QSARr>
InChI=1S/C6H15O4P/c1-4-8-11(7,9-5-2)10-6-3/h4-6H2,1-3H3

> <InChI Key_QSARr>
DQWPFSLDHJDLRL-UHFFFAOYSA-N

> <Salt_Solvent>


> <Salt_Solvent_ID>
0

> <MPID>
102272

> <HL Reference>
WOLFENDEN,R & WILLIAMS,R (1983)

> <HL Temperature>
20

> <LogHL>
-7.443697499232712

> <Tr_1_Tst_0>
0

$$$$
100177
  Mrv171c012241914302D          

 17 16  0  0  0  0            999 V2000
    2.2004   -3.4566    0.0000 P   0  0  0  0  0  0  0  0  0  0  0  0
    2.2004   -4.2816    0.0000 O   0  0  0  0  0  0  0  0  0  0  0  0
    3.0254   -3.4566    0.0000 S   0  0  0  0  0  0  0  0  0  0  0  0
    3.4379   -4.1711    0.0000 C   0  0  0  0  0  0  0  0  0  0  0  0
    4.2629   -4.1711    0.0000 C   0  0  0  0  0  0  0  0  0  0  0  0
    4.6754   -4.8855    0.0000 C   0  0  0  0  0  0  0  0  0  0  0  0
    5.5004   -4.8855    0.0000 C   0  0  0  0  0  0  0  0  0  0  0  0
    1.3754   -3.4566    0.0000 S   0  0  0  0  0  0  0  0  0  0  0  0
    0.9629   -2.7421    0.0000 C   0  0  0  0  0  0  0  0  0  0  0  0
    0.1379   -2.7421    0.0000 C   0  0  0  0  0  0  0  0  0  0  0  0
   -0.2746   -2.0276    0.0000 C   0  0  0  0  0  0  0  0  0  0  0  0
   -1.0996   -2.0276    0.0000 C   0  0  0  0  0  0  0  0  0  0  0  0
    2.2004   -2.6316    0.0000 S   0  0  0  0  0  0  0  0  0  0  0  0
    2.9149   -2.2191    0.0000 C   0  0  0  0  0  0  0  0  0  0  0  0
    3.6294   -2.6316    0.0000 C   0  0  0  0  0  0  0  0  0  0  0  0
    4.3438   -2.2191    0.0000 C   0  0  0  0  0  0  0  0  0  0  0  0
    5.0583   -2.6316    0.0000 C   0  0  0  0  0  0  0  0  0  0  0  0
  1  2  2  0  0  0  0
  1  3  1  0  0  0  0
  3  4  1  0  0  0  0
  4  5  1  0  0  0  0
  5  6  1  0  0  0  0
  6  7  1  0  0  0  0
  1  8  1  0  0  0  0
  8  9  1  0  0  0  0
  9 10  1  0  0  0  0
 10 11  1  0  0  0  0
 11 12  1  0  0  0  0
  1 13  1  0  0  0  0
 13 14  1  0  0  0  0
 14 15  1  0  0  0  0
 15 16  1  0  0  0  0
 16 17  1  0  0  0  0
M  END
> <ChemID>
100177

> <CAS>
78-48-8

> <Original_SMILES>
CCCCSP(=O)(SCCCC)SCCCC

> <preferred_name>
Tribufos

> <dsstox_substance_id>
DTXSID1024174

> <dsstox_compound_id>
DTXCID304174

> <qc_level>
DSSTox_Low

> <Canonical_QSARr>
CCCCSP(=O)(SCCCC)SCCCC

> <InChI_Code_QSARr>
InChI=1S/C12H27OPS3/c1-4-7-10-15-14(13,16-11-8-5-2)17-12-9-6-3/h4-12H2,1-3H3

> <InChI Key_QSARr>
ZOKXUAHZSKEQSS-UHFFFAOYSA-N

> <Salt_Solvent>


> <Salt_Solvent_ID>
0

> <MPID>
102273

> <HL Reference>
FENDINGER,NJ & GLOTFELTY,DE (1990)

> <HL Temperature>
25

> <LogHL>
-6.53165266958783

> <Tr_1_Tst_0>
1

$$$$
100181
  Mrv171c012241914302D          

 11 10  0  0  0  0            999 V2000
    2.4956   -1.7101    0.0000 O   0  0  0  0  0  0  0  0  0  0  0  0
    3.2101   -1.2976    0.0000 C   0  0  0  0  0  0  0  0  0  0  0  0
    3.9246   -0.8851    0.0000 C   0  0  0  0  0  0  0  0  0  0  0  0
    2.7976   -0.5832    0.0000 C   0  0  0  0  0  0  0  0  0  0  0  0
    1.9726   -0.5832    0.0000 C   0  0  0  0  0  0  0  0  0  0  0  0
    1.5601    0.1313    0.0000 C   0  0  0  0  0  0  0  0  0  0  0  0
    0.7351    0.1313    0.0000 C   0  0  0  0  0  0  0  0  0  0  0  0
    0.3226   -0.5832    0.0000 C   0  0  0  0  0  0  0  0  0  0  0  0
    0.3226    0.8458    0.0000 C   0  0  0  0  0  0  0  0  0  0  0  0
    3.6226   -2.0121    0.0000 C   0  0  0  0  0  0  0  0  0  0  0  0
    4.4476   -2.0121    0.0000 C   0  0  0  0  0  0  0  0  0  0  0  0
  1  2  1  0  0  0  0
  2  3  1  0  0  0  0
  2  4  1  0  0  0  0
  4  5  1  0  0  0  0
  5  6  1  0  0  0  0
  6  7  2  0  0  0  0
  7  8  1  0  0  0  0
  7  9  1  0  0  0  0
  2 10  1  0  0  0  0
 10 11  2  0  0  0  0
M  END
> <ChemID>
100181

> <CAS>
78-70-6

> <Original_SMILES>
CC(C)=CCCC(C)(O)C=C

> <preferred_name>
Linalool

> <dsstox_substance_id>
DTXSID7025502

> <dsstox_compound_id>
DTXCID305502

> <qc_level>
DSSTox_Low

> <Canonical_QSARr>
CC(C)=CCCC(C)(O)C=C

> <InChI_Code_QSARr>
InChI=1S/C10H18O/c1-5-10(4,11)8-6-7-9(2)3/h5,7,11H,1,6,8H2,2-4H3

> <InChI Key_QSARr>
CDOSHBSSFJOMGT-UHFFFAOYSA-N

> <Salt_Solvent>


> <Salt_Solvent_ID>
0

> <MPID>
102274

> <HL Reference>
ALTSCHUH,J ET AL. (1999)

> <HL Temperature>
25

> <LogHL>
-4.667561540084413

> <Tr_1_Tst_0>
1

$$$$
100186
  Mrv171c012241914302D          

  5  4  0  0  0  0            999 V2000
    1.1430    0.3186    0.0000 O   0  0  0  0  0  0  0  0  0  0  0  0
    1.5555   -0.3959    0.0000 C   0  0  0  0  0  0  0  0  0  0  0  0
    1.1430   -1.1104    0.0000 C   0  0  0  0  0  0  0  0  0  0  0  0
    1.5555   -1.8248    0.0000 C   0  0  0  0  0  0  0  0  0  0  0  0
    0.3180   -1.1104    0.0000 C   0  0  0  0  0  0  0  0  0  0  0  0
  1  2  1  0  0  0  0
  2  3  1  0  0  0  0
  3  4  1  0  0  0  0
  3  5  1  0  0  0  0
M  END
> <ChemID>
100186

> <CAS>
78-83-1

> <Original_SMILES>
CC(C)CO

> <preferred_name>
2-Methyl-1-propanol

> <dsstox_substance_id>
DTXSID0021759

> <dsstox_compound_id>
DTXCID601759

> <qc_level>
DSSTox_High

> <Canonical_QSARr>
CC(C)CO

> <InChI_Code_QSARr>
InChI=1S/C4H10O/c1-4(2)3-5/h4-5H,3H2,1-2H3

> <InChI Key_QSARr>
ZXEKIIBDNHEJCQ-UHFFFAOYSA-N

> <Salt_Solvent>


> <Salt_Solvent_ID>
0

> <MPID>
102275

> <HL Reference>
SNIDER,JR & DAWSON,GA (1985)

> <HL Temperature>
25

> <LogHL>
-5.009661145212377

> <Tr_1_Tst_0>
1

$$$$
100188
  Mrv171c012241914302D          

  5  4  0  0  0  0            999 V2000
    2.0737   -0.9670    0.0000 C   0  0  0  0  0  0  0  0  0  0  0  0
    1.2487   -0.9670    0.0000 C   0  0  0  0  0  0  0  0  0  0  0  0
    0.8362   -1.6814    0.0000 C   0  0  0  0  0  0  0  0  0  0  0  0
    0.8362   -0.2525    0.0000 C   0  0  0  0  0  0  0  0  0  0  0  0
    0.0112   -0.2525    0.0000 O   0  0  0  0  0  0  0  0  0  0  0  0
  1  2  1  0  0  0  0
  2  3  2  0  0  0  0
  2  4  1  0  0  0  0
  4  5  2  0  0  0  0
M  END
> <ChemID>
100188

> <CAS>
78-85-3

> <Original_SMILES>
CC(=C)C=O

> <preferred_name>
Methacrylaldehyde

> <dsstox_substance_id>
DTXSID0052540

> <dsstox_compound_id>
DTXCID7031113

> <qc_level>
DSSTox_Low

> <Canonical_QSARr>
CC(=C)C=O

> <InChI_Code_QSARr>
InChI=1S/C4H6O/c1-4(2)3-5/h3H,1H2,2H3

> <InChI Key_QSARr>
STNJBCKSHOAVAJ-UHFFFAOYSA-N

> <Salt_Solvent>


> <Salt_Solvent_ID>
0

> <MPID>
102276

> <HL Reference>
ALLEN,JM ET AL. (1997)

> <HL Temperature>
25

> <LogHL>
-3.6345120151091024

> <Tr_1_Tst_0>
1

$$$$
100189
  Mrv171c012241914302D          

  5  4  0  0  0  0            999 V2000
    1.4100   -1.4146    0.0000 Cl  0  0  0  0  0  0  0  0  0  0  0  0
    0.9975   -0.7001    0.0000 C   0  0  0  0  0  0  0  0  0  0  0  0
    1.4100    0.0144    0.0000 C   0  0  0  0  0  0  0  0  0  0  0  0
    0.9975    0.7288    0.0000 C   0  0  0  0  0  0  0  0  0  0  0  0
    0.1725   -0.7001    0.0000 C   0  0  0  0  0  0  0  0  0  0  0  0
  1  2  1  0  0  0  0
  2  3  1  0  0  0  0
  3  4  1  0  0  0  0
  2  5  1  0  0  0  0
M  END
> <ChemID>
100189

> <CAS>
78-86-4

> <Original_SMILES>
CCC(C)Cl

> <preferred_name>
2-Chlorobutane

> <dsstox_substance_id>
DTXSID9023966

> <dsstox_compound_id>
DTXCID303966

> <qc_level>
DSSTox_Low

> <Canonical_QSARr>
CCC(C)Cl

> <InChI_Code_QSARr>
InChI=1S/C4H9Cl/c1-3-4(2)5/h4H,3H2,1-2H3

> <InChI Key_QSARr>
BSPCSKHALVHRSR-UHFFFAOYSA-N

> <Salt_Solvent>


> <Salt_Solvent_ID>
0

> <MPID>
102277

> <HL Reference>
LEIGHTON,DTJR & CALO,JM (1981)

> <HL Temperature>
25

> <LogHL>
-1.6179829574251325

> <Tr_1_Tst_0>
1

$$$$
100190
  Mrv171c012241914302D          

  5  4  0  0  0  0            999 V2000
    2.2164   -0.9681    0.0000 C   0  0  0  0  0  0  0  0  0  0  0  0
    1.3914   -0.9681    0.0000 C   0  0  0  0  0  0  0  0  0  0  0  0
    0.9789   -1.6826    0.0000 Cl  0  0  0  0  0  0  0  0  0  0  0  0
    0.9789   -0.2536    0.0000 C   0  0  0  0  0  0  0  0  0  0  0  0
    0.1539   -0.2536    0.0000 Cl  0  0  0  0  0  0  0  0  0  0  0  0
  1  2  1  0  0  0  0
  2  3  1  0  0  0  0
  2  4  1  0  0  0  0
  4  5  1  0  0  0  0
M  END
> <ChemID>
100190

> <CAS>
78-87-5

> <Original_SMILES>
CC(Cl)CCl

> <preferred_name>
1,2-Dichloropropane

> <dsstox_substance_id>
DTXSID0020448

> <dsstox_compound_id>
DTXCID60448

> <qc_level>
DSSTox_Low

> <Canonical_QSARr>
CC(Cl)CCl

> <InChI_Code_QSARr>
InChI=1S/C3H6Cl2/c1-3(5)2-4/h3H,2H2,1H3

> <InChI Key_QSARr>
KNKRKFALVUDBJE-UHFFFAOYSA-N

> <Salt_Solvent>


> <Salt_Solvent_ID>
0

> <MPID>
102278

> <HL Reference>
WARNER,HP ET AL. (1987)

> <HL Temperature>
25

> <LogHL>
-2.549750891680641

> <Tr_1_Tst_0>
1

$$$$
100192
  Mrv171c012241914302D          

  5  4  0  0  0  0            999 V2000
    1.5573   -1.8261    0.0000 C   0  0  0  0  0  0  0  0  0  0  0  0
    1.1448   -1.1117    0.0000 C   0  0  0  0  0  0  0  0  0  0  0  0
    1.5573   -0.3972    0.0000 C   0  0  0  0  0  0  0  0  0  0  0  0
    1.1448    0.3173    0.0000 C   0  0  0  0  0  0  0  0  0  0  0  0
    0.3198   -1.1117    0.0000 O   0  0  0  0  0  0  0  0  0  0  0  0
  1  2  1  0  0  0  0
  2  3  1  0  0  0  0
  3  4  1  0  0  0  0
  2  5  1  0  0  0  0
M  END
> <ChemID>
100192

> <CAS>
78-92-2

> <Original_SMILES>
CCC(C)O

> <preferred_name>
2-Butanol

> <dsstox_substance_id>
DTXSID9021762

> <dsstox_compound_id>
DTXCID101762

> <qc_level>
DSSTox_Low

> <Canonical_QSARr>
CCC(C)O

> <InChI_Code_QSARr>
InChI=1S/C4H10O/c1-3-4(2)5/h4-5H,3H2,1-2H3

> <InChI Key_QSARr>
BTANRVKWQNVYAZ-UHFFFAOYSA-N

> <Salt_Solvent>


> <Salt_Solvent_ID>
0

> <MPID>
102279

> <HL Reference>
SNIDER,JR & DAWSON,GA (1985)

> <HL Temperature>
25

> <LogHL>
-5.042871802323193

> <Tr_1_Tst_0>
1

$$$$
100193
  Mrv171c012241914302D          

  5  4  0  0  0  0            999 V2000
    2.2173   -0.9688    0.0000 C   0  0  0  0  0  0  0  0  0  0  0  0
    1.3923   -0.9688    0.0000 C   0  0  0  0  0  0  0  0  0  0  0  0
    0.9798   -1.6832    0.0000 O   0  0  0  0  0  0  0  0  0  0  0  0
    0.9798   -0.2543    0.0000 C   0  0  0  0  0  0  0  0  0  0  0  0
    0.1548   -0.2543    0.0000 C   0  0  0  0  0  0  0  0  0  0  0  0
  1  2  1  0  0  0  0
  2  3  2  0  0  0  0
  2  4  1  0  0  0  0
  4  5  1  0  0  0  0
M  END
> <ChemID>
100193

> <CAS>
78-93-3

> <Original_SMILES>
CCC(C)=O

> <preferred_name>
Methyl ethyl ketone

> <dsstox_substance_id>
DTXSID3021516

> <dsstox_compound_id>
DTXCID801516

> <qc_level>
DSSTox_Low

> <Canonical_QSARr>
CCC(C)=O

> <InChI_Code_QSARr>
InChI=1S/C4H8O/c1-3-4(2)5/h3H2,1-2H3

> <InChI Key_QSARr>
ZWEHNKRNPOVVGH-UHFFFAOYSA-N

> <Salt_Solvent>


> <Salt_Solvent_ID>
0

> <MPID>
102280

> <HL Reference>
SNIDER,JR & DAWSON,GA (1985)

> <HL Temperature>
25

> <LogHL>
-4.244887733604929

> <Tr_1_Tst_0>
1

$$$$
100194
  Mrv171c012241914302D          

  5  4  0  0  0  0            999 V2000
    2.2173   -0.9688    0.0000 O   0  0  0  0  0  0  0  0  0  0  0  0
    1.3923   -0.9688    0.0000 C   0  0  0  0  0  0  0  0  0  0  0  0
    0.9798   -1.6832    0.0000 C   0  0  0  0  0  0  0  0  0  0  0  0
    0.9798   -0.2543    0.0000 C   0  0  0  0  0  0  0  0  0  0  0  0
    0.1548   -0.2543    0.0000 C   0  0  0  0  0  0  0  0  0  0  0  0
  1  2  2  0  0  0  0
  2  3  1  0  0  0  0
  2  4  1  0  0  0  0
  4  5  2  0  0  0  0
M  END
> <ChemID>
100194

> <CAS>
78-94-4

> <Original_SMILES>
CC(=O)C=C

> <preferred_name>
Methyl vinyl ketone

> <dsstox_substance_id>
DTXSID3025671

> <dsstox_compound_id>
DTXCID205671

> <qc_level>
DSSTox_Low

> <Canonical_QSARr>
CC(=O)C=C

> <InChI_Code_QSARr>
InChI=1S/C4H6O/c1-3-4(2)5/h3H,1H2,2H3

> <InChI Key_QSARr>
FUSUHKVFWTUUBE-UHFFFAOYSA-N

> <Salt_Solvent>


> <Salt_Solvent_ID>
0

> <MPID>
102281

> <HL Reference>
ALLEN,JM ET AL. (1997)

> <HL Temperature>
25

> <LogHL>
-4.332547047110044

> <Tr_1_Tst_0>
1

$$$$
100195
  Mrv171c012241914302D          

  5  4  0  0  0  0            999 V2000
    2.2164   -0.9681    0.0000 C   0  0  0  0  0  0  0  0  0  0  0  0
    1.3914   -0.9681    0.0000 C   0  0  0  0  0  0  0  0  0  0  0  0
    0.9789   -1.6826    0.0000 O   0  0  0  0  0  0  0  0  0  0  0  0
    0.9789   -0.2536    0.0000 C   0  0  0  0  0  0  0  0  0  0  0  0
    0.1539   -0.2536    0.0000 Cl  0  0  0  0  0  0  0  0  0  0  0  0
  1  2  1  0  0  0  0
  2  3  2  0  0  0  0
  2  4  1  0  0  0  0
  4  5  1  0  0  0  0
M  END
> <ChemID>
100195

> <CAS>
78-95-5

> <Original_SMILES>
CC(=O)CCl

> <preferred_name>
1-Chloropropan-2-one

> <dsstox_substance_id>
DTXSID0021547

> <dsstox_compound_id>
DTXCID101547

> <qc_level>
DSSTox_Low

> <Canonical_QSARr>
CC(=O)CCl

> <InChI_Code_QSARr>
InChI=1S/C3H5ClO/c1-3(5)2-4/h2H2,1H3

> <InChI Key_QSARr>
BULLHNJGPPOUOX-UHFFFAOYSA-N

> <Salt_Solvent>


> <Salt_Solvent_ID>
0

> <MPID>
102282

> <HL Reference>
BETTERTON,EA (1991)

> <HL Temperature>
25

> <LogHL>
-4.782516055786076

> <Tr_1_Tst_0>
0

$$$$
100196
  Mrv171c012241914302D          

  5  4  0  0  0  0            999 V2000
    2.2164   -0.9681    0.0000 C   0  0  0  0  0  0  0  0  0  0  0  0
    1.3914   -0.9681    0.0000 C   0  0  0  0  0  0  0  0  0  0  0  0
    0.9789   -1.6826    0.0000 O   0  0  0  0  0  0  0  0  0  0  0  0
    0.9789   -0.2536    0.0000 C   0  0  0  0  0  0  0  0  0  0  0  0
    0.1539   -0.2536    0.0000 O   0  0  0  0  0  0  0  0  0  0  0  0
  1  2  1  0  0  0  0
  2  3  2  0  0  0  0
  2  4  1  0  0  0  0
  4  5  2  0  0  0  0
M  END
> <ChemID>
100196

> <CAS>
78-98-8

> <Original_SMILES>
CC(=O)C=O

> <preferred_name>
Methyl glyoxal

> <dsstox_substance_id>
DTXSID0021628

> <dsstox_compound_id>
DTXCID101628

> <qc_level>
DSSTox_Low

> <Canonical_QSARr>
CC(=O)C=O

> <InChI_Code_QSARr>
InChI=1S/C3H4O2/c1-3(5)2-4/h2H,1H3

> <InChI Key_QSARr>
AIJULSRZWUXGPQ-UHFFFAOYSA-N

> <Salt_Solvent>


> <Salt_Solvent_ID>
0

> <MPID>
102283

> <HL Reference>
BETTERTON,EA & HOFFMAN,MR (1988)

> <HL Temperature>
25

> <LogHL>
-6.568636235840996

> <Tr_1_Tst_0>
1

$$$$
100198
  Mrv171c012241914302D          

  5  4  0  0  0  0            999 V2000
    2.2148   -0.9669    0.0000 Cl  0  0  0  0  0  0  0  0  0  0  0  0
    1.3898   -0.9669    0.0000 C   0  0  0  0  0  0  0  0  0  0  0  0
    0.9773   -1.6814    0.0000 Cl  0  0  0  0  0  0  0  0  0  0  0  0
    0.9773   -0.2525    0.0000 C   0  0  0  0  0  0  0  0  0  0  0  0
    0.1523   -0.2525    0.0000 Cl  0  0  0  0  0  0  0  0  0  0  0  0
  1  2  1  0  0  0  0
  2  3  1  0  0  0  0
  2  4  1  0  0  0  0
  4  5  1  0  0  0  0
M  END
> <ChemID>
100198

> <CAS>
79-00-5

> <Original_SMILES>
ClCC(Cl)Cl

> <preferred_name>
1,1,2-Trichloroethane

> <dsstox_substance_id>
DTXSID5021380

> <dsstox_compound_id>
DTXCID101380

> <qc_level>
DSSTox_Low

> <Canonical_QSARr>
ClCC(Cl)Cl

> <InChI_Code_QSARr>
InChI=1S/C2H3Cl3/c3-1-2(4)5/h2H,1H2

> <InChI Key_QSARr>
UBOXGVDOUJQMTN-UHFFFAOYSA-N

> <Salt_Solvent>


> <Salt_Solvent_ID>
0

> <MPID>
102284

> <HL Reference>
LEIGHTON,DTJR & CALO,JM (1981)

> <HL Temperature>
25

> <LogHL>
-3.084072788302883

> <Tr_1_Tst_0>
1

$$$$
100199
  Mrv171c012241914302D          

  5  4  0  0  0  0            999 V2000
    1.8023    0.0333    0.0000 Cl  0  0  0  0  0  0  0  0  0  0  0  0
    1.3898   -0.6812    0.0000 C   0  0  0  0  0  0  0  0  0  0  0  0
    1.8023   -1.3956    0.0000 Cl  0  0  0  0  0  0  0  0  0  0  0  0
    0.5648   -0.6812    0.0000 C   0  0  0  0  0  0  0  0  0  0  0  0
    0.1523   -1.3956    0.0000 Cl  0  0  0  0  0  0  0  0  0  0  0  0
  1  2  1  0  0  0  0
  2  3  1  0  0  0  0
  2  4  2  0  0  0  0
  4  5  1  0  0  0  0
M  END
> <ChemID>
100199

> <CAS>
79-01-6

> <Original_SMILES>
ClC=C(Cl)Cl

> <preferred_name>
Trichloroethylene

> <dsstox_substance_id>
DTXSID0021383

> <dsstox_compound_id>
DTXCID901382

> <qc_level>
DSSTox_Low

> <Canonical_QSARr>
ClC=C(Cl)Cl

> <InChI_Code_QSARr>
InChI=1S/C2HCl3/c3-1-2(4)5/h1H

> <InChI Key_QSARr>
XSTXAVWGXDQKEL-UHFFFAOYSA-N

> <Salt_Solvent>


> <Salt_Solvent_ID>
0

> <MPID>
102285

> <HL Reference>
LEIGHTON,DTJR & CALO,JM (1981)

> <HL Temperature>
25

> <LogHL>
-2.006563769502388

> <Tr_1_Tst_0>
0

$$$$
100201
  Mrv171c012241914302D          

  5  4  0  0  0  0            999 V2000
    1.5548   -1.8243    0.0000 O   0  0  0  0  0  0  0  0  0  0  0  0
    1.1423   -1.1098    0.0000 C   0  0  0  0  0  0  0  0  0  0  0  0
    1.5548   -0.3954    0.0000 C   0  0  0  0  0  0  0  0  0  0  0  0
    1.1423    0.3191    0.0000 Br  0  0  0  0  0  0  0  0  0  0  0  0
    0.3173   -1.1098    0.0000 O   0  0  0  0  0  0  0  0  0  0  0  0
  1  2  2  0  0  0  0
  2  3  1  0  0  0  0
  3  4  1  0  0  0  0
  2  5  1  0  0  0  0
M  END
> <ChemID>
100201

> <CAS>
79-08-3

> <Original_SMILES>
OC(=O)CBr

> <preferred_name>
Bromoacetic acid

> <dsstox_substance_id>
DTXSID7021495

> <dsstox_compound_id>
DTXCID601495

> <qc_level>
DSSTox_Low

> <Canonical_QSARr>
OC(=O)CBr

> <InChI_Code_QSARr>
InChI=1S/C2H3BrO2/c3-1-2(4)5/h1H2,(H,4,5)

> <InChI Key_QSARr>
KDPAWGWELVVRCH-UHFFFAOYSA-N

> <Salt_Solvent>


> <Salt_Solvent_ID>
0

> <MPID>
102286

> <HL Reference>
BOWDEN,DJ ET AL. (1998A)

> <HL Temperature>
25

> <LogHL>
-8.1857524042681

> <Tr_1_Tst_0>
1

$$$$
100202
  Mrv171c012241914302D          

  5  4  0  0  0  0            999 V2000
    1.5564   -1.8255    0.0000 O   0  0  0  0  0  0  0  0  0  0  0  0
    1.1439   -1.1110    0.0000 C   0  0  0  0  0  0  0  0  0  0  0  0
    1.5564   -0.3965    0.0000 C   0  0  0  0  0  0  0  0  0  0  0  0
    1.1439    0.3179    0.0000 C   0  0  0  0  0  0  0  0  0  0  0  0
    0.3189   -1.1110    0.0000 O   0  0  0  0  0  0  0  0  0  0  0  0
  1  2  2  0  0  0  0
  2  3  1  0  0  0  0
  3  4  1  0  0  0  0
  2  5  1  0  0  0  0
M  END
> <ChemID>
100202

> <CAS>
79-09-4

> <Original_SMILES>
CCC(O)=O

> <preferred_name>
Propionic acid

> <dsstox_substance_id>
DTXSID8025961

> <dsstox_compound_id>
DTXCID505961

> <qc_level>
DSSTox_Low

> <Canonical_QSARr>
CCC(O)=O

> <InChI_Code_QSARr>
InChI=1S/C3H6O2/c1-2-3(4)5/h2H2,1H3,(H,4,5)

> <InChI Key_QSARr>
XBDQKXXYIPTUBI-UHFFFAOYSA-N

> <Salt_Solvent>


> <Salt_Solvent_ID>
0

> <MPID>
102287

> <HL Reference>
BUTLER,JAV & RAMCHANDANI,CN (1935)

> <HL Temperature>
25

> <LogHL>
-6.3516399890190804

> <Tr_1_Tst_0>
1

$$$$
100204
  Mrv171c012241914302D          

  5  4  0  0  0  0            999 V2000
    1.5548   -1.8243    0.0000 O   0  0  0  0  0  0  0  0  0  0  0  0
    1.1423   -1.1098    0.0000 C   0  0  0  0  0  0  0  0  0  0  0  0
    1.5548   -0.3954    0.0000 C   0  0  0  0  0  0  0  0  0  0  0  0
    1.1423    0.3191    0.0000 Cl  0  0  0  0  0  0  0  0  0  0  0  0
    0.3173   -1.1098    0.0000 O   0  0  0  0  0  0  0  0  0  0  0  0
  1  2  1  0  0  0  0
  2  3  1  0  0  0  0
  3  4  1  0  0  0  0
  2  5  2  0  0  0  0
M  END
> <ChemID>
100204

> <CAS>
79-11-8

> <Original_SMILES>
OC(=O)CCl

> <preferred_name>
Chloroacetic acid

> <dsstox_substance_id>
DTXSID4020901

> <dsstox_compound_id>
DTXCID20901

> <qc_level>
DSSTox_Low

> <Canonical_QSARr>
OC(=O)CCl

> <InChI_Code_QSARr>
InChI=1S/C2H3ClO2/c3-1-2(4)5/h1H2,(H,4,5)

> <InChI Key_QSARr>
FOCAUTSVDIKZOP-UHFFFAOYSA-N

> <Salt_Solvent>


> <Salt_Solvent_ID>
0

> <MPID>
102288

> <HL Reference>
BOWDEN,DJ ET AL. (1998A)

> <HL Temperature>
25

> <LogHL>
-8.033389013318056

> <Tr_1_Tst_0>
1

$$$$
100206
  Mrv171c012241914302D          

  5  4  0  0  0  0            999 V2000
    1.5573   -1.8261    0.0000 C   0  0  0  0  0  0  0  0  0  0  0  0
    1.1448   -1.1117    0.0000 C   0  0  0  0  0  0  0  0  0  0  0  0
    1.5573   -0.3972    0.0000 O   0  0  0  0  0  0  0  0  0  0  0  0
    1.1448    0.3173    0.0000 C   0  0  0  0  0  0  0  0  0  0  0  0
    0.3198   -1.1117    0.0000 O   0  0  0  0  0  0  0  0  0  0  0  0
  1  2  1  0  0  0  0
  2  3  1  0  0  0  0
  3  4  1  0  0  0  0
  2  5  2  0  0  0  0
M  END
> <ChemID>
100206

> <CAS>
79-20-9

> <Original_SMILES>
COC(C)=O

> <preferred_name>
Methyl acetate

> <dsstox_substance_id>
DTXSID4021767

> <dsstox_compound_id>
DTXCID101767

> <qc_level>
DSSTox_Low

> <Canonical_QSARr>
COC(C)=O

> <InChI_Code_QSARr>
InChI=1S/C3H6O2/c1-3(4)5-2/h1-2H3

> <InChI Key_QSARr>
KXKVLQRXCPHEJC-UHFFFAOYSA-N

> <Salt_Solvent>


> <Salt_Solvent_ID>
0

> <MPID>
102289

> <HL Reference>
BUTTERY,RG ET AL. (1969)

> <HL Temperature>
25

> <LogHL>
-3.9393021596463864

> <Tr_1_Tst_0>
1

$$$$
100207
  Mrv171c012241914302D          

  5  4  0  0  0  0            999 V2000
    2.2173   -0.9688    0.0000 O   0  0  0  0  0  0  0  0  0  0  0  0
    1.3923   -0.9688    0.0000 C   0  0  0  0  0  0  0  0  0  0  0  0
    0.9798   -1.6832    0.0000 C   0  0  0  0  0  0  0  0  0  0  0  0
    0.9798   -0.2543    0.0000 O   0  0  0  0  0  0  0  0  0  0  0  0
    0.1548   -0.2543    0.0000 O   0  0  0  0  0  0  0  0  0  0  0  0
  1  2  2  0  0  0  0
  2  3  1  0  0  0  0
  2  4  1  0  0  0  0
  4  5  1  0  0  0  0
M  END
> <ChemID>
100207

> <CAS>
79-21-0

> <Original_SMILES>
CC(=O)OO

> <preferred_name>
Peracetic acid

> <dsstox_substance_id>
DTXSID1025853

> <dsstox_compound_id>
DTXCID805853

> <qc_level>
DSSTox_Low

> <Canonical_QSARr>
CC(=O)OO

> <InChI_Code_QSARr>
InChI=1S/C2H4O3/c1-2(3)5-4/h4H,1H3

> <InChI Key_QSARr>
KFSLWBXXFJQRDL-UHFFFAOYSA-N

> <Salt_Solvent>


> <Salt_Solvent_ID>
0

> <MPID>
102290

> <HL Reference>
LIND,JA & KOK,GL (1986)

> <HL Temperature>
25

> <LogHL>
-5.669586226650802

> <Tr_1_Tst_0>
0

$$$$
100208
  Mrv171c012241914302D          

  5  4  0  0  0  0            999 V2000
    2.0740   -0.9688    0.0000 O   0  0  0  0  0  0  0  0  0  0  0  0
    1.2490   -0.9688    0.0000 N   0  3  0  0  0  0  0  0  0  0  0  0
    0.8365   -1.6832    0.0000 O   0  5  0  0  0  0  0  0  0  0  0  0
    0.8365   -0.2543    0.0000 C   0  0  0  0  0  0  0  0  0  0  0  0
    0.0115   -0.2543    0.0000 C   0  0  0  0  0  0  0  0  0  0  0  0
  1  2  2  0  0  0  0
  2  3  1  0  0  0  0
  2  4  1  0  0  0  0
  4  5  1  0  0  0  0
M  CHG  2   2   1   3  -1
M  END
> <ChemID>
100208

> <CAS>
79-24-3

> <Original_SMILES>
CC[N+]([O-])=O

> <preferred_name>
Nitroethane

> <dsstox_substance_id>
DTXSID8020969

> <dsstox_compound_id>
DTXCID80969

> <qc_level>
DSSTox_Low

> <Canonical_QSARr>
CC[N+]([O-])=O

> <InChI_Code_QSARr>
InChI=1S/C2H5NO2/c1-2-3(4)5/h2H2,1H3

> <InChI Key_QSARr>
MCSAJNNLRCFZED-UHFFFAOYSA-N

> <Salt_Solvent>


> <Salt_Solvent_ID>
0

> <MPID>
102291

> <HL Reference>
GAFFNEY,JS ET AL. (1987)

> <HL Temperature>
25

> <LogHL>
-4.3223930472795065

> <Tr_1_Tst_0>
1

$$$$
100211
  Mrv171c012241914302D          

  6  5  0  0  0  0            999 V2000
    1.2370   -2.1431    0.0000 C   0  0  0  0  0  0  0  0  0  0  0  0
    0.8245   -1.4286    0.0000 C   0  0  0  0  0  0  0  0  0  0  0  0
    1.2370   -0.7141    0.0000 C   0  0  0  0  0  0  0  0  0  0  0  0
    0.8245    0.0003    0.0000 O   0  0  0  0  0  0  0  0  0  0  0  0
    2.0620   -0.7141    0.0000 O   0  0  0  0  0  0  0  0  0  0  0  0
   -0.0005   -1.4286    0.0000 C   0  0  0  0  0  0  0  0  0  0  0  0
  1  2  1  0  0  0  0
  2  3  1  0  0  0  0
  3  4  2  0  0  0  0
  3  5  1  0  0  0  0
  2  6  1  0  0  0  0
M  END
> <ChemID>
100211

> <CAS>
79-31-2

> <Original_SMILES>
CC(C)C(O)=O

> <preferred_name>
2-Methylpropanoic acid

> <dsstox_substance_id>
DTXSID4021636

> <dsstox_compound_id>
DTXCID601636

> <qc_level>
DSSTox_Low

> <Canonical_QSARr>
CC(C)C(O)=O

> <InChI_Code_QSARr>
InChI=1S/C4H8O2/c1-3(2)4(5)6/h3H,1-2H3,(H,5,6)

> <InChI Key_QSARr>
KQNPFQTWMSNSAP-UHFFFAOYSA-N

> <Salt_Solvent>


> <Salt_Solvent_ID>
0

> <MPID>
102292

> <HL Reference>
KHAN,I & BRIMBLECOMBE,P (1992)

> <HL Temperature>
25

> <LogHL>
-6.053056729302182

> <Tr_1_Tst_0>
0

$$$$
100212
  Mrv171c012241914302D          

  6  5  0  0  0  0            999 V2000
    0.8241    0.0007    0.0000 Cl  0  0  0  0  0  0  0  0  0  0  0  0
    1.2366   -0.7138    0.0000 C   0  0  0  0  0  0  0  0  0  0  0  0
    2.0616   -0.7138    0.0000 Cl  0  0  0  0  0  0  0  0  0  0  0  0
    0.8241   -1.4283    0.0000 C   0  0  0  0  0  0  0  0  0  0  0  0
    1.2366   -2.1427    0.0000 Cl  0  0  0  0  0  0  0  0  0  0  0  0
   -0.0009   -1.4283    0.0000 Cl  0  0  0  0  0  0  0  0  0  0  0  0
  1  2  1  0  0  0  0
  2  3  1  0  0  0  0
  2  4  1  0  0  0  0
  4  5  1  0  0  0  0
  4  6  1  0  0  0  0
M  END
> <ChemID>
100212

> <CAS>
79-34-5

> <Original_SMILES>
ClC(Cl)C(Cl)Cl

> <preferred_name>
1,1,2,2-Tetrachloroethane

> <dsstox_substance_id>
DTXSID7021318

> <dsstox_compound_id>
DTXCID201318

> <qc_level>
DSSTox_Low

> <Canonical_QSARr>
ClC(Cl)C(Cl)Cl

> <InChI_Code_QSARr>
InChI=1S/C2H2Cl4/c3-1(4)2(5)6/h1-2H

> <InChI Key_QSARr>
QPFMBZIOSGYJDE-UHFFFAOYSA-N

> <Salt_Solvent>


> <Salt_Solvent_ID>
0

> <MPID>
102293

> <HL Reference>
LEIGHTON,DTJR & CALO,JM (1981)

> <HL Temperature>
25

> <LogHL>
-3.435333935747909

> <Tr_1_Tst_0>
1

$$$$
100213
  Mrv171c012241914302D          

  6  5  0  0  0  0            999 V2000
    1.2370   -2.1431    0.0000 C   0  0  0  0  0  0  0  0  0  0  0  0
    0.8245   -1.4286    0.0000 C   0  0  0  0  0  0  0  0  0  0  0  0
    1.2370   -0.7141    0.0000 C   0  0  0  0  0  0  0  0  0  0  0  0
    0.8245    0.0003    0.0000 O   0  0  0  0  0  0  0  0  0  0  0  0
    2.0620   -0.7141    0.0000 O   0  0  0  0  0  0  0  0  0  0  0  0
   -0.0005   -1.4286    0.0000 C   0  0  0  0  0  0  0  0  0  0  0  0
  1  2  1  0  0  0  0
  2  3  1  0  0  0  0
  3  4  2  0  0  0  0
  3  5  1  0  0  0  0
  2  6  2  0  0  0  0
M  END
> <ChemID>
100213

> <CAS>
79-41-4

> <Original_SMILES>
CC(=C)C(O)=O

> <preferred_name>
Methacrylic acid

> <dsstox_substance_id>
DTXSID3025542

> <dsstox_compound_id>
DTXCID505542

> <qc_level>
DSSTox_Low

> <Canonical_QSARr>
CC(=C)C(O)=O

> <InChI_Code_QSARr>
InChI=1S/C4H6O2/c1-3(2)4(5)6/h1H2,2H3,(H,5,6)

> <InChI Key_QSARr>
CERQOIWHTDAKMF-UHFFFAOYSA-N

> <Salt_Solvent>


> <Salt_Solvent_ID>
0

> <MPID>
102294

> <HL Reference>
KHAN,I ET AL. (1992)

> <HL Temperature>
25

> <LogHL>
-6.411168274405775

> <Tr_1_Tst_0>
1

$$$$
100214
  Mrv171c012241914302D          

  6  5  0  0  0  0            999 V2000
    1.2366   -2.1427    0.0000 O   0  0  0  0  0  0  0  0  0  0  0  0
    0.8241   -1.4283    0.0000 C   0  0  0  0  0  0  0  0  0  0  0  0
    1.2366   -0.7138    0.0000 C   0  0  0  0  0  0  0  0  0  0  0  0
    0.8241    0.0007    0.0000 Cl  0  0  0  0  0  0  0  0  0  0  0  0
    2.0616   -0.7138    0.0000 Cl  0  0  0  0  0  0  0  0  0  0  0  0
   -0.0009   -1.4283    0.0000 O   0  0  0  0  0  0  0  0  0  0  0  0
  1  2  1  0  0  0  0
  2  3  1  0  0  0  0
  3  4  1  0  0  0  0
  3  5  1  0  0  0  0
  2  6  2  0  0  0  0
M  END
> <ChemID>
100214

> <CAS>
79-43-6

> <Original_SMILES>
OC(=O)C(Cl)Cl

> <preferred_name>
Dichloroacetic acid

> <dsstox_substance_id>
DTXSID2020428

> <dsstox_compound_id>
DTXCID20428

> <qc_level>
DSSTox_Low

> <Canonical_QSARr>
OC(=O)C(Cl)Cl

> <InChI_Code_QSARr>
InChI=1S/C2H2Cl2O2/c3-1(4)2(5)6/h1H,(H,5,6)

> <InChI Key_QSARr>
JXTHNDFMNIQAHM-UHFFFAOYSA-N

> <Salt_Solvent>


> <Salt_Solvent_ID>
0

> <MPID>
102295

> <HL Reference>
BOWDEN,DJ ET AL. (1998A)

> <HL Temperature>
25

> <LogHL>
-8.076755981369715

> <Tr_1_Tst_0>
1

$$$$
100217
  Mrv171c012241914302D          

 10 11  0  0  0  0            999 V2000
    1.1764   -0.7116    0.0000 C   0  0  0  0  0  0  0  0  0  0  0  0
    1.1073   -1.4560    0.0000 C   0  0  0  0  0  0  0  0  0  0  0  0
    1.1703   -2.1405    0.0000 C   0  0  0  0  0  0  0  0  0  0  0  0
    1.9953   -2.1440    0.0000 C   0  0  0  0  0  0  0  0  0  0  0  0
    2.4108   -1.4313    0.0000 C   0  0  0  0  0  0  0  0  0  0  0  0
    2.0014   -0.7151    0.0000 C   0  0  0  0  0  0  0  0  0  0  0  0
    2.4169   -0.0024    0.0000 C   0  0  0  0  0  0  0  0  0  0  0  0
    0.7608   -1.4243    0.0000 C   0  0  0  0  0  0  0  0  0  0  0  0
    0.0307   -1.8085    0.0000 C   0  0  0  0  0  0  0  0  0  0  0  0
    0.0340   -1.0339    0.0000 C   0  0  0  0  0  0  0  0  0  0  0  0
  2  1  1  0  0  0  0
  3  2  1  0  0  0  0
  3  4  1  0  0  0  0
  4  5  1  0  0  0  0
  5  6  2  0  0  0  0
  6  1  1  0  0  0  0
  6  7  1  0  0  0  0
  8  3  1  0  0  0  0
  1  8  1  0  0  0  0
  8  9  1  0  0  0  0
  8 10  1  0  0  0  0
M  END
> <ChemID>
100217

> <CAS>
80-56-8

> <Original_SMILES>
CC1=CCC2CC1C2(C)C

> <preferred_name>
alpha-Pinene

> <dsstox_substance_id>
DTXSID4026501

> <dsstox_compound_id>
DTXCID006501

> <qc_level>
DSSTox_Low

> <Canonical_QSARr>
CC1=CCC2CC1C2(C)C

> <InChI_Code_QSARr>
InChI=1S/C10H16/c1-7-4-5-8-6-9(7)10(8,2)3/h4,8-9H,5-6H2,1-3H3

> <InChI Key_QSARr>
GRWFGVWFFZKLTI-UHFFFAOYSA-N

> <Salt_Solvent>


> <Salt_Solvent_ID>
0

> <MPID>
102296

> <HL Reference>
COPOLOVICI,LO & NIINEMETS,U (2005)

> <HL Temperature>
25

> <LogHL>
-0.8728952016351942

> <Tr_1_Tst_0>
1

$$$$
100225
  Mrv171c012241914302D          

 12 14  0  0  0  0            999 V2000
    0.0158   -0.8857    0.0000 C   0  0  0  0  0  0  0  0  0  0  0  0
    0.7694   -0.5501    0.0000 C   0  0  0  0  0  0  0  0  0  0  0  0
    1.0244    0.2345    0.0000 C   0  0  0  0  0  0  0  0  0  0  0  0
    1.8494    0.2345    0.0000 C   0  0  0  0  0  0  0  0  0  0  0  0
    2.1043   -0.5501    0.0000 C   0  0  0  0  0  0  0  0  0  0  0  0
    1.4369   -1.0350    0.0000 C   0  0  0  0  0  0  0  0  0  0  0  0
    1.3506   -1.8555    0.0000 C   0  0  0  0  0  0  0  0  0  0  0  0
    2.2768   -2.1911    0.0000 C   0  0  0  0  0  0  0  0  0  0  0  0
    2.9442   -1.7061    0.0000 C   0  0  0  0  0  0  0  0  0  0  0  0
    2.8580   -0.8857    0.0000 C   0  0  0  0  0  0  0  0  0  0  0  0
    0.5970   -2.1911    0.0000 C   0  0  0  0  0  0  0  0  0  0  0  0
   -0.0705   -1.7061    0.0000 C   0  0  0  0  0  0  0  0  0  0  0  0
  2  1  1  0  0  0  0
  2  3  1  0  0  0  0
  3  4  1  0  0  0  0
  4  5  1  0  0  0  0
  5  6  1  0  0  0  0
  6  2  2  0  0  0  0
  6  7  1  0  0  0  0
  7  8  1  0  0  0  0
  8  9  2  0  0  0  0
  9 10  1  0  0  0  0
 10  5  2  0  0  0  0
 11  7  2  0  0  0  0
 12 11  1  0  0  0  0
  1 12  2  0  0  0  0
M  END
> <ChemID>
100225

> <CAS>
83-32-9

> <Original_SMILES>
C1Cc2cccc3cccc1c23

> <preferred_name>
Acenaphthene

> <dsstox_substance_id>
DTXSID3021774

> <dsstox_compound_id>
DTXCID201774

> <qc_level>
DSSTox_Low

> <Canonical_QSARr>
C1CC2=CC=CC3=CC=CC1=C23

> <InChI_Code_QSARr>
InChI=1S/C12H10/c1-3-9-4-2-6-11-8-7-10(5-1)12(9)11/h1-6H,7-8H2

> <InChI Key_QSARr>
CWRYPZZKDGJXCA-UHFFFAOYSA-N

> <Salt_Solvent>


> <Salt_Solvent_ID>
0

> <MPID>
102297

> <HL Reference>
BAMFORD,HA ET AL. (1999)

> <HL Temperature>
25

> <LogHL>
-3.7351821769904636

> <Tr_1_Tst_0>
1

$$$$
100230
  Mrv171c012241914302D          

 20 20  0  0  0  0            999 V2000
    1.5288   -1.6880    0.0000 C   0  0  0  0  0  0  0  0  0  0  0  0
    1.5288   -2.5130    0.0000 C   0  0  0  0  0  0  0  0  0  0  0  0
    2.2433   -2.9255    0.0000 C   0  0  0  0  0  0  0  0  0  0  0  0
    2.2433   -3.7505    0.0000 C   0  0  0  0  0  0  0  0  0  0  0  0
    1.5288   -4.1630    0.0000 O   0  0  0  0  0  0  0  0  0  0  0  0
    1.5288   -4.9880    0.0000 C   0  0  0  0  0  0  0  0  0  0  0  0
    0.8144   -5.4005    0.0000 C   0  0  0  0  0  0  0  0  0  0  0  0
    0.8144   -6.2255    0.0000 C   0  0  0  0  0  0  0  0  0  0  0  0
    0.0999   -6.6380    0.0000 C   0  0  0  0  0  0  0  0  0  0  0  0
    2.9578   -4.1630    0.0000 O   0  0  0  0  0  0  0  0  0  0  0  0
    2.9578   -2.5130    0.0000 C   0  0  0  0  0  0  0  0  0  0  0  0
    3.6723   -2.9255    0.0000 C   0  0  0  0  0  0  0  0  0  0  0  0
    4.3867   -2.5130    0.0000 O   0  0  0  0  0  0  0  0  0  0  0  0
    5.1012   -2.9255    0.0000 C   0  0  0  0  0  0  0  0  0  0  0  0
    5.8157   -2.5130    0.0000 C   0  0  0  0  0  0  0  0  0  0  0  0
    6.5301   -2.9255    0.0000 C   0  0  0  0  0  0  0  0  0  0  0  0
    7.2446   -2.5130    0.0000 C   0  0  0  0  0  0  0  0  0  0  0  0
    3.6723   -3.7505    0.0000 O   0  0  0  0  0  0  0  0  0  0  0  0
    2.9578   -1.6880    0.0000 C   0  0  0  0  0  0  0  0  0  0  0  0
    2.2433   -1.2755    0.0000 C   0  0  0  0  0  0  0  0  0  0  0  0
  2  1  1  0  0  0  0
  3  2  2  0  0  0  0
  3  4  1  0  0  0  0
  4  5  1  0  0  0  0
  5  6  1  0  0  0  0
  6  7  1  0  0  0  0
  7  8  1  0  0  0  0
  8  9  1  0  0  0  0
  4 10  2  0  0  0  0
 11  3  1  0  0  0  0
 11 12  1  0  0  0  0
 12 13  1  0  0  0  0
 13 14  1  0  0  0  0
 14 15  1  0  0  0  0
 15 16  1  0  0  0  0
 16 17  1  0  0  0  0
 12 18  2  0  0  0  0
 19 11  2  0  0  0  0
 20 19  1  0  0  0  0
  1 20  2  0  0  0  0
M  END
> <ChemID>
100230

> <CAS>
84-74-2

> <Original_SMILES>
CCCCOC(=O)c1ccccc1C(=O)OCCCC

> <preferred_name>
Dibutyl phthalate

> <dsstox_substance_id>
DTXSID2021781

> <dsstox_compound_id>
DTXCID301781

> <qc_level>
DSSTox_High

> <Canonical_QSARr>
CCCCOC(=O)C1=CC=CC=C1C(=O)OCCCC

> <InChI_Code_QSARr>
InChI=1S/C16H22O4/c1-3-5-11-19-15(17)13-9-7-8-10-14(13)16(18)20-12-6-4-2/h7-10H,3-6,11-12H2,1-2H3

> <InChI Key_QSARr>
DOIRQSBPFJWKBE-UHFFFAOYSA-N

> <Salt_Solvent>


> <Salt_Solvent_ID>
0

> <MPID>
102298

> <HL Reference>
ATLAS,E ET AL. (1983)

> <HL Temperature>
23

> <LogHL>
-5.742321425130798

> <Tr_1_Tst_0>
1

$$$$
100232
  Mrv171c012241914302D          

 14 16  0  0  0  0            999 V2000
    2.2977   -1.4199    0.0000 C   0  0  0  0  0  0  0  0  0  0  0  0
    2.7102   -0.7054    0.0000 C   0  0  0  0  0  0  0  0  0  0  0  0
    3.5352   -0.7054    0.0000 C   0  0  0  0  0  0  0  0  0  0  0  0
    3.9477   -1.4199    0.0000 C   0  0  0  0  0  0  0  0  0  0  0  0
    3.5352   -2.1344    0.0000 C   0  0  0  0  0  0  0  0  0  0  0  0
    2.7102   -2.1344    0.0000 C   0  0  0  0  0  0  0  0  0  0  0  0
    2.2977   -2.8488    0.0000 C   0  0  0  0  0  0  0  0  0  0  0  0
    1.4727   -2.8488    0.0000 C   0  0  0  0  0  0  0  0  0  0  0  0
    1.0602   -2.1344    0.0000 C   0  0  0  0  0  0  0  0  0  0  0  0
    0.2352   -2.1344    0.0000 C   0  0  0  0  0  0  0  0  0  0  0  0
   -0.1773   -1.4199    0.0000 C   0  0  0  0  0  0  0  0  0  0  0  0
    0.2352   -0.7054    0.0000 C   0  0  0  0  0  0  0  0  0  0  0  0
    1.0602   -0.7054    0.0000 C   0  0  0  0  0  0  0  0  0  0  0  0
    1.4727   -1.4199    0.0000 C   0  0  0  0  0  0  0  0  0  0  0  0
  2  1  1  0  0  0  0
  3  2  2  0  0  0  0
  4  3  1  0  0  0  0
  5  4  2  0  0  0  0
  6  5  1  0  0  0  0
  6  1  2  0  0  0  0
  7  6  1  0  0  0  0
  8  7  2  0  0  0  0
  9  8  1  0  0  0  0
  9 10  1  0  0  0  0
 10 11  2  0  0  0  0
 11 12  1  0  0  0  0
 12 13  2  0  0  0  0
 13 14  1  0  0  0  0
  1 14  1  0  0  0  0
 14  9  2  0  0  0  0
M  END
> <ChemID>
100232

> <CAS>
85-01-8

> <Original_SMILES>
c1cc2ccccc2c2ccccc21

> <preferred_name>
Phenanthrene

> <dsstox_substance_id>
DTXSID6024254

> <dsstox_compound_id>
DTXCID904254

> <qc_level>
DSSTox_Low

> <Canonical_QSARr>
C1=CC2C=CC=CC=2C2C=CC=CC=21

> <InChI_Code_QSARr>
InChI=1S/C14H10/c1-3-7-13-11(5-1)9-10-12-6-2-4-8-14(12)13/h1-10H

> <InChI Key_QSARr>
YNPNZTXNASCQKK-UHFFFAOYSA-N

> <Salt_Solvent>


> <Salt_Solvent_ID>
0

> <MPID>
102299

> <HL Reference>
BAMFORD,HA ET AL. (1999)

> <HL Temperature>
25

> <LogHL>
-4.373659632624939

> <Tr_1_Tst_0>
0

$$$$
100237
  Mrv171c012241914302D          

 13 14  0  0  0  0            999 V2000
    0.7690   -3.1406    0.0000 O   0  0  0  0  0  0  0  0  0  0  0  0
    1.4835   -2.7281    0.0000 N   0  3  0  0  0  0  0  0  0  0  0  0
    2.1979   -3.1406    0.0000 O   0  5  0  0  0  0  0  0  0  0  0  0
    1.4835   -1.9031    0.0000 C   0  0  0  0  0  0  0  0  0  0  0  0
    0.7690   -1.4906    0.0000 C   0  0  0  0  0  0  0  0  0  0  0  0
    0.7690   -0.6656    0.0000 C   0  0  0  0  0  0  0  0  0  0  0  0
    1.4835   -0.2531    0.0000 C   0  0  0  0  0  0  0  0  0  0  0  0
    2.1979   -0.6656    0.0000 C   0  0  0  0  0  0  0  0  0  0  0  0
    2.9124   -0.2531    0.0000 C   0  0  0  0  0  0  0  0  0  0  0  0
    3.6269   -0.6656    0.0000 C   0  0  0  0  0  0  0  0  0  0  0  0
    3.6269   -1.4906    0.0000 C   0  0  0  0  0  0  0  0  0  0  0  0
    2.9124   -1.9031    0.0000 C   0  0  0  0  0  0  0  0  0  0  0  0
    2.1979   -1.4906    0.0000 C   0  0  0  0  0  0  0  0  0  0  0  0
  1  2  2  0  0  0  0
  2  3  1  0  0  0  0
  2  4  1  0  0  0  0
  5  4  1  0  0  0  0
  6  5  2  0  0  0  0
  7  6  1  0  0  0  0
  8  7  2  0  0  0  0
  8  9  1  0  0  0  0
  9 10  2  0  0  0  0
 10 11  1  0  0  0  0
 11 12  2  0  0  0  0
 12 13  1  0  0  0  0
  4 13  2  0  0  0  0
 13  8  1  0  0  0  0
M  CHG  2   2   1   3  -1
M  END
> <ChemID>
100237

> <CAS>
86-57-7

> <Original_SMILES>
[O-][N+](=O)c1cccc2ccccc21

> <preferred_name>
1-Nitronaphthalene

> <dsstox_substance_id>
DTXSID7020978

> <dsstox_compound_id>
DTXCID70978

> <qc_level>
DSSTox_Low

> <Canonical_QSARr>
[O-][N+](=O)C1C=CC=C2C=CC=CC2=1

> <InChI_Code_QSARr>
InChI=1S/C10H7NO2/c12-11(13)10-7-3-5-8-4-1-2-6-9(8)10/h1-7H

> <InChI Key_QSARr>
RJKGJBPXVHTNJL-UHFFFAOYSA-N

> <Salt_Solvent>


> <Salt_Solvent_ID>
0

> <MPID>
102300

> <HL Reference>
ALTSCHUH,J ET AL. (1999)

> <HL Temperature>
25

> <LogHL>
-5.754487332185844

> <Tr_1_Tst_0>
1

$$$$
100238
  Mrv171c012241914302D          

 13 15  0  0  0  0            999 V2000
    2.5498   -0.5036    0.0000 C   0  0  0  0  0  0  0  0  0  0  0  0
    3.1018    0.1095    0.0000 C   0  0  0  0  0  0  0  0  0  0  0  0
    3.9088   -0.0620    0.0000 C   0  0  0  0  0  0  0  0  0  0  0  0
    4.1637   -0.8466    0.0000 C   0  0  0  0  0  0  0  0  0  0  0  0
    3.6117   -1.4597    0.0000 C   0  0  0  0  0  0  0  0  0  0  0  0
    2.8047   -1.2882    0.0000 C   0  0  0  0  0  0  0  0  0  0  0  0
    2.1373   -1.7731    0.0000 C   0  0  0  0  0  0  0  0  0  0  0  0
    1.4699   -1.2882    0.0000 C   0  0  0  0  0  0  0  0  0  0  0  0
    0.6629   -1.4597    0.0000 C   0  0  0  0  0  0  0  0  0  0  0  0
    0.1109   -0.8466    0.0000 C   0  0  0  0  0  0  0  0  0  0  0  0
    0.3658   -0.0620    0.0000 C   0  0  0  0  0  0  0  0  0  0  0  0
    1.1728    0.1095    0.0000 C   0  0  0  0  0  0  0  0  0  0  0  0
    1.7248   -0.5036    0.0000 C   0  0  0  0  0  0  0  0  0  0  0  0
  2  1  1  0  0  0  0
  3  2  2  0  0  0  0
  4  3  1  0  0  0  0
  5  4  2  0  0  0  0
  6  5  1  0  0  0  0
  6  1  2  0  0  0  0
  7  6  1  0  0  0  0
  8  7  1  0  0  0  0
  8  9  1  0  0  0  0
  9 10  2  0  0  0  0
 10 11  1  0  0  0  0
 11 12  2  0  0  0  0
 12 13  1  0  0  0  0
  1 13  1  0  0  0  0
 13  8  2  0  0  0  0
M  END
> <ChemID>
100238

> <CAS>
86-73-7

> <Original_SMILES>
C1c2ccccc2-c2ccccc21

> <preferred_name>
Fluorene

> <dsstox_substance_id>
DTXSID8024105

> <dsstox_compound_id>
DTXCID604105

> <qc_level>
DSSTox_Low

> <Canonical_QSARr>
C1C2C=CC=CC=2C2C=CC=CC=21

> <InChI_Code_QSARr>
InChI=1S/C13H10/c1-3-7-12-10(5-1)9-11-6-2-4-8-13(11)12/h1-8H,9H2

> <InChI Key_QSARr>
NIHNNTQXNPWCJQ-UHFFFAOYSA-N

> <Salt_Solvent>


> <Salt_Solvent_ID>
0

> <MPID>
102301

> <HL Reference>
SHIU,WY & MACKAY,D (1997)

> <HL Temperature>
25

> <LogHL>
-4.016824927962185

> <Tr_1_Tst_0>
1

$$$$
100239
  Mrv171c012241914302D          

 13 15  0  0  0  0            999 V2000
    2.3777   -0.7362    0.0000 C   0  0  0  0  0  0  0  0  0  0  0  0
    2.9297   -0.1231    0.0000 C   0  0  0  0  0  0  0  0  0  0  0  0
    3.7367   -0.2946    0.0000 C   0  0  0  0  0  0  0  0  0  0  0  0
    3.9916   -1.0793    0.0000 C   0  0  0  0  0  0  0  0  0  0  0  0
    3.4396   -1.6924    0.0000 C   0  0  0  0  0  0  0  0  0  0  0  0
    2.6326   -1.5208    0.0000 C   0  0  0  0  0  0  0  0  0  0  0  0
    1.9652   -2.0058    0.0000 N   0  0  0  0  0  0  0  0  0  0  0  0
    1.2977   -1.5208    0.0000 C   0  0  0  0  0  0  0  0  0  0  0  0
    0.4908   -1.6924    0.0000 C   0  0  0  0  0  0  0  0  0  0  0  0
   -0.0613   -1.0793    0.0000 C   0  0  0  0  0  0  0  0  0  0  0  0
    0.1937   -0.2946    0.0000 C   0  0  0  0  0  0  0  0  0  0  0  0
    1.0007   -0.1231    0.0000 C   0  0  0  0  0  0  0  0  0  0  0  0
    1.5527   -0.7362    0.0000 C   0  0  0  0  0  0  0  0  0  0  0  0
  2  1  2  0  0  0  0
  3  2  1  0  0  0  0
  4  3  2  0  0  0  0
  5  4  1  0  0  0  0
  6  5  2  0  0  0  0
  6  1  1  0  0  0  0
  7  6  1  0  0  0  0
  8  7  1  0  0  0  0
  8  9  1  0  0  0  0
  9 10  2  0  0  0  0
 10 11  1  0  0  0  0
 11 12  2  0  0  0  0
 12 13  1  0  0  0  0
  1 13  1  0  0  0  0
 13  8  2  0  0  0  0
M  END
> <ChemID>
100239

> <CAS>
86-74-8

> <Original_SMILES>
c1cccc2[nH]c3ccccc3c21

> <preferred_name>
Carbazole

> <dsstox_substance_id>
DTXSID4020248

> <dsstox_compound_id>
DTXCID40248

> <qc_level>
DSSTox_High

> <Canonical_QSARr>
C1=CC=CC2NC3=CC=CC=C3C=21

> <InChI_Code_QSARr>
InChI=1S/C12H9N/c1-3-7-11-9(5-1)10-6-2-4-8-12(10)13-11/h1-8,13H

> <InChI Key_QSARr>
UJOBWOGCFQCDNV-UHFFFAOYSA-N

> <Salt_Solvent>


> <Salt_Solvent_ID>
0

> <MPID>
102302

> <HL Reference>
ODABASI,M ET AL. (2006)

> <HL Temperature>
25

> <LogHL>
-6.9355420107730605

> <Tr_1_Tst_0>
1

$$$$
100240
  Mrv171c012241914302D          

  9  9  0  0  0  0            999 V2000
    2.3959   -0.7881    0.0000 Cl  0  0  0  0  0  0  0  0  0  0  0  0
    1.6815   -1.2006    0.0000 C   0  0  0  0  0  0  0  0  0  0  0  0
    0.9670   -0.7881    0.0000 C   0  0  0  0  0  0  0  0  0  0  0  0
    0.9670    0.0369    0.0000 Cl  0  0  0  0  0  0  0  0  0  0  0  0
    0.2525   -1.2006    0.0000 C   0  0  0  0  0  0  0  0  0  0  0  0
    0.2525   -2.0256    0.0000 C   0  0  0  0  0  0  0  0  0  0  0  0
    0.9670   -2.4381    0.0000 C   0  0  0  0  0  0  0  0  0  0  0  0
    1.6815   -2.0256    0.0000 C   0  0  0  0  0  0  0  0  0  0  0  0
    2.3959   -2.4381    0.0000 Cl  0  0  0  0  0  0  0  0  0  0  0  0
  1  2  1  0  0  0  0
  3  2  1  0  0  0  0
  3  4  1  0  0  0  0
  5  3  2  0  0  0  0
  6  5  1  0  0  0  0
  7  6  2  0  0  0  0
  8  7  1  0  0  0  0
  2  8  2  0  0  0  0
  8  9  1  0  0  0  0
M  END
> <ChemID>
100240

> <CAS>
87-61-6

> <Original_SMILES>
Clc1c(Cl)cccc1Cl

> <preferred_name>
1,2,3-Trichlorobenzene

> <dsstox_substance_id>
DTXSID8026193

> <dsstox_compound_id>
DTXCID706193

> <qc_level>
DSSTox_High

> <Canonical_QSARr>
ClC1C=CC=C(Cl)C=1Cl

> <InChI_Code_QSARr>
InChI=1S/C6H3Cl3/c7-4-2-1-3-5(8)6(4)9/h1-3H

> <InChI Key_QSARr>
RELMFMZEBKVZJC-UHFFFAOYSA-N

> <Salt_Solvent>


> <Salt_Solvent_ID>
0

> <MPID>
102303

> <HL Reference>
SHIU,WY & MACKAY,D (1997)

> <HL Temperature>
25

> <LogHL>
-2.903089986991944

> <Tr_1_Tst_0>
0

$$$$
100243
  Mrv171c012241914302D          

 10  9  0  0  0  0            999 V2000
    3.1905   -1.1745    0.0000 Cl  0  0  0  0  0  0  0  0  0  0  0  0
    2.3655   -1.1745    0.0000 C   0  0  0  0  0  0  0  0  0  0  0  0
    1.9530   -0.4601    0.0000 C   0  0  0  0  0  0  0  0  0  0  0  0
    2.3655    0.2544    0.0000 Cl  0  0  0  0  0  0  0  0  0  0  0  0
    1.1280   -0.4601    0.0000 C   0  0  0  0  0  0  0  0  0  0  0  0
    0.7155   -1.1745    0.0000 Cl  0  0  0  0  0  0  0  0  0  0  0  0
    0.7155    0.2544    0.0000 Cl  0  0  0  0  0  0  0  0  0  0  0  0
    1.9530   -1.8890    0.0000 C   0  0  0  0  0  0  0  0  0  0  0  0
    2.3655   -2.6035    0.0000 Cl  0  0  0  0  0  0  0  0  0  0  0  0
    1.1280   -1.8890    0.0000 Cl  0  0  0  0  0  0  0  0  0  0  0  0
  1  2  1  0  0  0  0
  2  3  1  0  0  0  0
  3  4  1  0  0  0  0
  3  5  2  0  0  0  0
  5  6  1  0  0  0  0
  5  7  1  0  0  0  0
  2  8  2  0  0  0  0
  8  9  1  0  0  0  0
  8 10  1  0  0  0  0
M  END
> <ChemID>
100243

> <CAS>
87-68-3

> <Original_SMILES>
ClC(Cl)=C(Cl)C(Cl)=C(Cl)Cl

> <preferred_name>
Hexachloro-1,3-butadiene

> <dsstox_substance_id>
DTXSID7020683

> <dsstox_compound_id>
DTXCID10683

> <qc_level>
DSSTox_Low

> <Canonical_QSARr>
ClC(Cl)=C(Cl)C(Cl)=C(Cl)Cl

> <InChI_Code_QSARr>
InChI=1S/C4Cl6/c5-1(3(7)8)2(6)4(9)10

> <InChI Key_QSARr>
RWNKSTSCBHKHTB-UHFFFAOYSA-N

> <Salt_Solvent>


> <Salt_Solvent_ID>
0

> <MPID>
102304

> <HL Reference>
WARNER,HP ET AL. (1987)

> <HL Temperature>
20

> <LogHL>
-1.987162775294829

> <Tr_1_Tst_0>
1

$$$$
100245
  Mrv171c012241914302D          

 12 12  0  0  0  0            999 V2000
    3.0761   -0.6015    0.0000 O   0  0  0  0  0  0  0  0  0  0  0  0
    2.3616   -1.0140    0.0000 C   0  0  0  0  0  0  0  0  0  0  0  0
    1.6472   -0.6015    0.0000 C   0  0  0  0  0  0  0  0  0  0  0  0
    1.6472    0.2235    0.0000 Cl  0  0  0  0  0  0  0  0  0  0  0  0
    0.9327   -1.0140    0.0000 C   0  0  0  0  0  0  0  0  0  0  0  0
    0.2182   -0.6015    0.0000 Cl  0  0  0  0  0  0  0  0  0  0  0  0
    0.9327   -1.8390    0.0000 C   0  0  0  0  0  0  0  0  0  0  0  0
    0.2182   -2.2515    0.0000 Cl  0  0  0  0  0  0  0  0  0  0  0  0
    1.6472   -2.2515    0.0000 C   0  0  0  0  0  0  0  0  0  0  0  0
    1.6472   -3.0765    0.0000 Cl  0  0  0  0  0  0  0  0  0  0  0  0
    2.3616   -1.8390    0.0000 C   0  0  0  0  0  0  0  0  0  0  0  0
    3.0761   -2.2515    0.0000 Cl  0  0  0  0  0  0  0  0  0  0  0  0
  1  2  1  0  0  0  0
  3  2  1  0  0  0  0
  3  4  1  0  0  0  0
  5  3  2  0  0  0  0
  5  6  1  0  0  0  0
  7  5  1  0  0  0  0
  7  8  1  0  0  0  0
  9  7  2  0  0  0  0
  9 10  1  0  0  0  0
 11  9  1  0  0  0  0
  2 11  2  0  0  0  0
 11 12  1  0  0  0  0
M  END
> <ChemID>
100245

> <CAS>
87-86-5

> <Original_SMILES>
Oc1c(Cl)c(Cl)c(Cl)c(Cl)c1Cl

> <preferred_name>
Pentachlorophenol

> <dsstox_substance_id>
DTXSID7021106

> <dsstox_compound_id>
DTXCID701106

> <qc_level>
DSSTox_Low

> <Canonical_QSARr>
OC1C(Cl)=C(Cl)C(Cl)=C(Cl)C=1Cl

> <InChI_Code_QSARr>
InChI=1S/C6HCl5O/c7-1-2(8)4(10)6(12)5(11)3(1)9/h12H

> <InChI Key_QSARr>
IZUPBVBPLAPZRR-UHFFFAOYSA-N

> <Salt_Solvent>


> <Salt_Solvent_ID>
0

> <MPID>
102305

> <HL Reference>
HELLMANN,H (1987)

> <HL Temperature>
22

> <LogHL>
-7.610833915635453

> <Tr_1_Tst_0>
1

$$$$
100249
  Mrv171c012241914302D          

 10 10  0  0  0  0            999 V2000
    2.4136   -0.9140    0.0000 N   0  3  0  0  0  0  0  0  0  0  0  0
    1.6991   -1.3265    0.0000 C   0  0  0  0  0  0  0  0  0  0  0  0
    0.9846   -0.9140    0.0000 C   0  0  0  0  0  0  0  0  0  0  0  0
    0.9846   -0.0890    0.0000 C   0  0  0  0  0  0  0  0  0  0  0  0
    0.2701   -1.3265    0.0000 C   0  0  0  0  0  0  0  0  0  0  0  0
    0.2701   -2.1515    0.0000 C   0  0  0  0  0  0  0  0  0  0  0  0
    0.9846   -2.5640    0.0000 C   0  0  0  0  0  0  0  0  0  0  0  0
    1.6991   -2.1515    0.0000 C   0  0  0  0  0  0  0  0  0  0  0  0
    2.4136   -0.0890    0.0000 O   0  5  0  0  0  0  0  0  0  0  0  0
    3.1280   -1.3265    0.0000 O   0  0  0  0  0  0  0  0  0  0  0  0
  1  2  1  0  0  0  0
  3  2  1  0  0  0  0
  3  4  1  0  0  0  0
  5  3  2  0  0  0  0
  6  5  1  0  0  0  0
  7  6  2  0  0  0  0
  8  7  1  0  0  0  0
  2  8  2  0  0  0  0
  1  9  1  0  0  0  0
  1 10  2  0  0  0  0
M  CHG  2   1   1   9  -1
M  END
> <ChemID>
100249

> <CAS>
88-72-2

> <Original_SMILES>
Cc1ccccc1[N+]([O-])=O

> <preferred_name>
2-Nitrotoluene

> <dsstox_substance_id>
DTXSID4025791

> <dsstox_compound_id>
DTXCID005791

> <qc_level>
DSSTox_Low

> <Canonical_QSARr>
CC1=CC=CC=C1[N+]([O-])=O

> <InChI_Code_QSARr>
InChI=1S/C7H7NO2/c1-6-4-2-3-5-7(6)8(9)10/h2-5H,1H3

> <InChI Key_QSARr>
PLAZTCDQAHEYBI-UHFFFAOYSA-N

> <Salt_Solvent>


> <Salt_Solvent_ID>
0

> <MPID>
102306

> <HL Reference>
ALTSCHUH,J ET AL. (1999)

> <HL Temperature>
25

> <LogHL>
-4.903089986991935

> <Tr_1_Tst_0>
1

$$$$
100250
  Mrv171c012241914302D          

 10 10  0  0  0  0            999 V2000
    0.1981   -1.1198    0.0000 Cl  0  0  0  0  0  0  0  0  0  0  0  0
    0.9126   -1.5323    0.0000 C   0  0  0  0  0  0  0  0  0  0  0  0
    0.9126   -2.3573    0.0000 C   0  0  0  0  0  0  0  0  0  0  0  0
    1.6271   -2.7698    0.0000 C   0  0  0  0  0  0  0  0  0  0  0  0
    2.3415   -2.3573    0.0000 C   0  0  0  0  0  0  0  0  0  0  0  0
    2.3415   -1.5323    0.0000 C   0  0  0  0  0  0  0  0  0  0  0  0
    1.6271   -1.1198    0.0000 C   0  0  0  0  0  0  0  0  0  0  0  0
    1.6271   -0.2948    0.0000 N   0  3  0  0  0  0  0  0  0  0  0  0
    0.9126    0.1177    0.0000 O   0  5  0  0  0  0  0  0  0  0  0  0
    2.3415    0.1177    0.0000 O   0  0  0  0  0  0  0  0  0  0  0  0
  1  2  1  0  0  0  0
  3  2  1  0  0  0  0
  4  3  2  0  0  0  0
  5  4  1  0  0  0  0
  6  5  2  0  0  0  0
  7  6  1  0  0  0  0
  2  7  2  0  0  0  0
  7  8  1  0  0  0  0
  8  9  1  0  0  0  0
  8 10  2  0  0  0  0
M  CHG  2   8   1   9  -1
M  END
> <ChemID>
100250

> <CAS>
88-73-3

> <Original_SMILES>
[O-][N+](=O)c1ccccc1Cl

> <preferred_name>
1-Chloro-2-nitrobenzene

> <dsstox_substance_id>
DTXSID0020280

> <dsstox_compound_id>
DTXCID80280

> <qc_level>
DSSTox_Low

> <Canonical_QSARr>
[O-][N+](=O)C1C=CC=CC=1Cl

> <InChI_Code_QSARr>
InChI=1S/C6H4ClNO2/c7-5-3-1-2-4-6(5)8(9)10/h1-4H

> <InChI Key_QSARr>
BFCFYVKQTRLZHA-UHFFFAOYSA-N

> <Salt_Solvent>


> <Salt_Solvent_ID>
0

> <MPID>
102307

> <HL Reference>
ALTSCHUH,J ET AL. (1999)

> <HL Temperature>
25

> <LogHL>
-5.03151705144608

> <Tr_1_Tst_0>
1

$$$$
100251
  Mrv171c012241914302D          

 10 10  0  0  0  0            999 V2000
    2.4130   -0.9135    0.0000 N   0  3  0  0  0  0  0  0  0  0  0  0
    1.6985   -1.3260    0.0000 C   0  0  0  0  0  0  0  0  0  0  0  0
    0.9840   -0.9135    0.0000 C   0  0  0  0  0  0  0  0  0  0  0  0
    0.9840   -0.0885    0.0000 N   0  0  0  0  0  0  0  0  0  0  0  0
    0.2696   -1.3260    0.0000 C   0  0  0  0  0  0  0  0  0  0  0  0
    0.2696   -2.1510    0.0000 C   0  0  0  0  0  0  0  0  0  0  0  0
    0.9840   -2.5635    0.0000 C   0  0  0  0  0  0  0  0  0  0  0  0
    1.6985   -2.1510    0.0000 C   0  0  0  0  0  0  0  0  0  0  0  0
    2.4130   -0.0885    0.0000 O   0  5  0  0  0  0  0  0  0  0  0  0
    3.1275   -1.3260    0.0000 O   0  0  0  0  0  0  0  0  0  0  0  0
  1  2  1  0  0  0  0
  3  2  1  0  0  0  0
  3  4  1  0  0  0  0
  5  3  2  0  0  0  0
  6  5  1  0  0  0  0
  7  6  2  0  0  0  0
  8  7  1  0  0  0  0
  2  8  2  0  0  0  0
  1  9  1  0  0  0  0
  1 10  2  0  0  0  0
M  CHG  2   1   1   9  -1
M  END
> <ChemID>
100251

> <CAS>
88-74-4

> <Original_SMILES>
Nc1ccccc1[N+]([O-])=O

> <preferred_name>
2-Nitroaniline

> <dsstox_substance_id>
DTXSID1025726

> <dsstox_compound_id>
DTXCID905726

> <qc_level>
DSSTox_Low

> <Canonical_QSARr>
NC1=CC=CC=C1[N+]([O-])=O

> <InChI_Code_QSARr>
InChI=1S/C6H6N2O2/c7-5-3-1-2-4-6(5)8(9)10/h1-4H,7H2

> <InChI Key_QSARr>
DPJCXCZTLWNFOH-UHFFFAOYSA-N

> <Salt_Solvent>


> <Salt_Solvent_ID>
0

> <MPID>
102308

> <HL Reference>
ALTSCHUH,J ET AL. (1999)

> <HL Temperature>
25

> <LogHL>
-7.229147988357858

> <Tr_1_Tst_0>
1

$$$$
100252
  Mrv171c012241914302D          

 10 10  0  0  0  0            999 V2000
    0.1981   -1.1198    0.0000 O   0  0  0  0  0  0  0  0  0  0  0  0
    0.9126   -1.5323    0.0000 C   0  0  0  0  0  0  0  0  0  0  0  0
    0.9126   -2.3573    0.0000 C   0  0  0  0  0  0  0  0  0  0  0  0
    1.6271   -2.7698    0.0000 C   0  0  0  0  0  0  0  0  0  0  0  0
    2.3415   -2.3573    0.0000 C   0  0  0  0  0  0  0  0  0  0  0  0
    2.3415   -1.5323    0.0000 C   0  0  0  0  0  0  0  0  0  0  0  0
    1.6271   -1.1198    0.0000 C   0  0  0  0  0  0  0  0  0  0  0  0
    1.6271   -0.2948    0.0000 N   0  3  0  0  0  0  0  0  0  0  0  0
    0.9126    0.1177    0.0000 O   0  0  0  0  0  0  0  0  0  0  0  0
    2.3415    0.1177    0.0000 O   0  5  0  0  0  0  0  0  0  0  0  0
  1  2  1  0  0  0  0
  3  2  1  0  0  0  0
  4  3  2  0  0  0  0
  5  4  1  0  0  0  0
  6  5  2  0  0  0  0
  7  6  1  0  0  0  0
  2  7  2  0  0  0  0
  7  8  1  0  0  0  0
  8  9  2  0  0  0  0
  8 10  1  0  0  0  0
M  CHG  2   8   1  10  -1
M  END
> <ChemID>
100252

> <CAS>
88-75-5

> <Original_SMILES>
[O-][N+](=O)c1ccccc1O

> <preferred_name>
2-Nitrophenol

> <dsstox_substance_id>
DTXSID1021790

> <dsstox_compound_id>
DTXCID201790

> <qc_level>
DSSTox_Low

> <Canonical_QSARr>
[O-][N+](=O)C1C=CC=CC=1O

> <InChI_Code_QSARr>
InChI=1S/C6H5NO3/c8-6-4-2-1-3-5(6)7(9)10/h1-4,8H

> <InChI Key_QSARr>
IQUPABOKLQSFBK-UHFFFAOYSA-N

> <Salt_Solvent>


> <Salt_Solvent_ID>
0

> <MPID>
102309

> <HL Reference>
TREMP,J ET AL. (1993)

> <HL Temperature>
20

> <LogHL>
-4.89279003035213

> <Tr_1_Tst_0>
0

$$$$
100256
  Mrv171c012241914302D          

 11 11  0  0  0  0            999 V2000
    2.1452   -1.6565    0.0000 C   0  0  0  0  0  0  0  0  0  0  0  0
    2.8596   -1.2440    0.0000 Cl  0  0  0  0  0  0  0  0  0  0  0  0
    1.4307   -1.2440    0.0000 C   0  0  0  0  0  0  0  0  0  0  0  0
    1.4307   -0.4190    0.0000 N   0  3  0  0  0  0  0  0  0  0  0  0
    0.7162   -0.0065    0.0000 O   0  0  0  0  0  0  0  0  0  0  0  0
    2.1452   -0.0065    0.0000 O   0  5  0  0  0  0  0  0  0  0  0  0
    0.7162   -1.6565    0.0000 C   0  0  0  0  0  0  0  0  0  0  0  0
    0.7162   -2.4815    0.0000 C   0  0  0  0  0  0  0  0  0  0  0  0
    0.0018   -2.8940    0.0000 Cl  0  0  0  0  0  0  0  0  0  0  0  0
    1.4307   -2.8940    0.0000 C   0  0  0  0  0  0  0  0  0  0  0  0
    2.1452   -2.4815    0.0000 C   0  0  0  0  0  0  0  0  0  0  0  0
  1  2  1  0  0  0  0
  3  1  2  0  0  0  0
  3  4  1  0  0  0  0
  4  5  2  0  0  0  0
  4  6  1  0  0  0  0
  7  3  1  0  0  0  0
  8  7  2  0  0  0  0
  8  9  1  0  0  0  0
 10  8  1  0  0  0  0
 11 10  2  0  0  0  0
  1 11  1  0  0  0  0
M  CHG  2   4   1   6  -1
M  END
> <ChemID>
100256

> <CAS>
89-61-2

> <Original_SMILES>
[O-][N+](=O)c1cc(Cl)ccc1Cl

> <preferred_name>
1,4-Dichloro-2-nitrobenzene

> <dsstox_substance_id>
DTXSID7052602

> <dsstox_compound_id>
DTXCID1031175

> <qc_level>
DSSTox_Low

> <Canonical_QSARr>
[O-][N+](=O)C1C=C(Cl)C=CC=1Cl

> <InChI_Code_QSARr>
InChI=1S/C6H3Cl2NO2/c7-4-1-2-5(8)6(3-4)9(10)11/h1-3H

> <InChI Key_QSARr>
RZKKOBGFCAHLCZ-UHFFFAOYSA-N

> <Salt_Solvent>


> <Salt_Solvent_ID>
0

> <MPID>
102310

> <HL Reference>
ALTSCHUH,J ET AL. (1999)

> <HL Temperature>
25

> <LogHL>
-4.920818753952386

> <Tr_1_Tst_0>
0

$$$$
100262
  Mrv171c012241914302D          

  9  9  0  0  0  0            999 V2000
    2.6694   -1.2571    0.0000 C   0  0  0  0  0  0  0  0  0  0  0  0
    1.9549   -0.8446    0.0000 C   0  0  0  0  0  0  0  0  0  0  0  0
    1.9549   -0.0196    0.0000 O   0  0  0  0  0  0  0  0  0  0  0  0
    1.2404   -1.2571    0.0000 C   0  0  0  0  0  0  0  0  0  0  0  0
    0.5260   -0.8446    0.0000 O   0  0  0  0  0  0  0  0  0  0  0  0
   -0.1885   -1.2571    0.0000 C   0  0  0  0  0  0  0  0  0  0  0  0
    1.2404   -2.0821    0.0000 C   0  0  0  0  0  0  0  0  0  0  0  0
    1.9549   -2.4946    0.0000 C   0  0  0  0  0  0  0  0  0  0  0  0
    2.6694   -2.0821    0.0000 C   0  0  0  0  0  0  0  0  0  0  0  0
  2  1  1  0  0  0  0
  2  3  1  0  0  0  0
  4  2  2  0  0  0  0
  4  5  1  0  0  0  0
  5  6  1  0  0  0  0
  7  4  1  0  0  0  0
  8  7  2  0  0  0  0
  9  8  1  0  0  0  0
  1  9  2  0  0  0  0
M  END
> <ChemID>
100262

> <CAS>
90-05-1

> <Original_SMILES>
COc1ccccc1O

> <preferred_name>
2-Methoxyphenol

> <dsstox_substance_id>
DTXSID0023113

> <dsstox_compound_id>
DTXCID003113

> <qc_level>
DSSTox_Low

> <Canonical_QSARr>
COC1C=CC=CC=1O

> <InChI_Code_QSARr>
InChI=1S/C7H8O2/c1-9-7-5-3-2-4-6(7)8/h2-5,8H,1H3

> <InChI Key_QSARr>
LHGVFZTZFXWLCP-UHFFFAOYSA-N

> <Salt_Solvent>


> <Salt_Solvent_ID>
0

> <MPID>
102311

> <HL Reference>
SAGEBIEL,JC ET AL. (1992)

> <HL Temperature>
25

> <LogHL>
-5.920818753952366

> <Tr_1_Tst_0>
1

$$$$
100264
  Mrv171c012241914302D          

 11 12  0  0  0  0            999 V2000
    0.8504   -3.0074    0.0000 C   0  0  0  0  0  0  0  0  0  0  0  0
    0.8504   -2.1824    0.0000 C   0  0  0  0  0  0  0  0  0  0  0  0
    0.1359   -1.7699    0.0000 C   0  0  0  0  0  0  0  0  0  0  0  0
    0.1359   -0.9449    0.0000 C   0  0  0  0  0  0  0  0  0  0  0  0
    0.8504   -0.5324    0.0000 C   0  0  0  0  0  0  0  0  0  0  0  0
    1.5648   -0.9449    0.0000 C   0  0  0  0  0  0  0  0  0  0  0  0
    2.2793   -0.5324    0.0000 C   0  0  0  0  0  0  0  0  0  0  0  0
    2.9938   -0.9449    0.0000 C   0  0  0  0  0  0  0  0  0  0  0  0
    2.9938   -1.7699    0.0000 C   0  0  0  0  0  0  0  0  0  0  0  0
    2.2793   -2.1824    0.0000 C   0  0  0  0  0  0  0  0  0  0  0  0
    1.5648   -1.7699    0.0000 C   0  0  0  0  0  0  0  0  0  0  0  0
  1  2  1  0  0  0  0
  3  2  1  0  0  0  0
  4  3  2  0  0  0  0
  5  4  1  0  0  0  0
  6  5  2  0  0  0  0
  6  7  1  0  0  0  0
  7  8  2  0  0  0  0
  8  9  1  0  0  0  0
  9 10  2  0  0  0  0
 10 11  1  0  0  0  0
  2 11  2  0  0  0  0
 11  6  1  0  0  0  0
M  END
> <ChemID>
100264

> <CAS>
90-12-0

> <Original_SMILES>
Cc1cccc2ccccc21

> <preferred_name>
1-Methylnaphthalene

> <dsstox_substance_id>
DTXSID9020877

> <dsstox_compound_id>
DTXCID30877

> <qc_level>
DSSTox_Low

> <Canonical_QSARr>
CC1C=CC=C2C=CC=CC2=1

> <InChI_Code_QSARr>
InChI=1S/C11H10/c1-9-5-4-7-10-6-2-3-8-11(9)10/h2-8H,1H3

> <InChI Key_QSARr>
QPUYECUOLPXSFR-UHFFFAOYSA-N

> <Salt_Solvent>


> <Salt_Solvent_ID>
0

> <MPID>
102312

> <HL Reference>
ALTSCHUH,J ET AL. (1999)

> <HL Temperature>
25

> <LogHL>
-3.2890368810047246

> <Tr_1_Tst_0>
0

$$$$
100265
  Mrv171c012241914302D          

 11 12  0  0  0  0            999 V2000
    0.0062   -0.9924    0.0000 C   0  0  0  0  0  0  0  0  0  0  0  0
    0.7206   -0.5799    0.0000 C   0  0  0  0  0  0  0  0  0  0  0  0
    1.4351   -0.9924    0.0000 C   0  0  0  0  0  0  0  0  0  0  0  0
    2.1496   -0.5799    0.0000 C   0  0  0  0  0  0  0  0  0  0  0  0
    2.1496    0.2451    0.0000 Cl  0  0  0  0  0  0  0  0  0  0  0  0
    2.8640   -0.9924    0.0000 C   0  0  0  0  0  0  0  0  0  0  0  0
    2.8640   -1.8174    0.0000 C   0  0  0  0  0  0  0  0  0  0  0  0
    2.1496   -2.2299    0.0000 C   0  0  0  0  0  0  0  0  0  0  0  0
    1.4351   -1.8174    0.0000 C   0  0  0  0  0  0  0  0  0  0  0  0
    0.7206   -2.2299    0.0000 C   0  0  0  0  0  0  0  0  0  0  0  0
    0.0062   -1.8174    0.0000 C   0  0  0  0  0  0  0  0  0  0  0  0
  2  1  2  0  0  0  0
  3  2  1  0  0  0  0
  3  4  2  0  0  0  0
  4  5  1  0  0  0  0
  4  6  1  0  0  0  0
  6  7  2  0  0  0  0
  7  8  1  0  0  0  0
  8  9  2  0  0  0  0
  9  3  1  0  0  0  0
 10  9  1  0  0  0  0
 11 10  2  0  0  0  0
  1 11  1  0  0  0  0
M  END
> <ChemID>
100265

> <CAS>
90-13-1

> <Original_SMILES>
Clc1cccc2ccccc21

> <preferred_name>
1-Chloronaphthalene

> <dsstox_substance_id>
DTXSID2024791

> <dsstox_compound_id>
DTXCID904791

> <qc_level>
DSSTox_High

> <Canonical_QSARr>
ClC1C=CC=C2C=CC=CC2=1

> <InChI_Code_QSARr>
InChI=1S/C10H7Cl/c11-10-7-3-5-8-4-1-2-6-9(8)10/h1-7H

> <InChI Key_QSARr>
JTPNRXUCIXHOKM-UHFFFAOYSA-N

> <Salt_Solvent>


> <Salt_Solvent_ID>
0

> <MPID>
102313

> <HL Reference>
SHIU,WY & MACKAY,D (1997)

> <HL Temperature>
25

> <LogHL>
-3.4497716469449067

> <Tr_1_Tst_0>
1

$$$$
100266
  Mrv171c012241914302D          

 11 12  0  0  0  0            999 V2000
    0.8453   -0.0013    0.0000 O   0  0  0  0  0  0  0  0  0  0  0  0
    0.8453   -0.8263    0.0000 C   0  0  0  0  0  0  0  0  0  0  0  0
    1.5597   -1.2388    0.0000 C   0  0  0  0  0  0  0  0  0  0  0  0
    2.2742   -0.8263    0.0000 C   0  0  0  0  0  0  0  0  0  0  0  0
    2.9887   -1.2388    0.0000 C   0  0  0  0  0  0  0  0  0  0  0  0
    2.9887   -2.0638    0.0000 C   0  0  0  0  0  0  0  0  0  0  0  0
    2.2742   -2.4763    0.0000 C   0  0  0  0  0  0  0  0  0  0  0  0
    1.5597   -2.0638    0.0000 C   0  0  0  0  0  0  0  0  0  0  0  0
    0.8453   -2.4763    0.0000 C   0  0  0  0  0  0  0  0  0  0  0  0
    0.1308   -2.0638    0.0000 C   0  0  0  0  0  0  0  0  0  0  0  0
    0.1308   -1.2388    0.0000 C   0  0  0  0  0  0  0  0  0  0  0  0
  1  2  1  0  0  0  0
  3  2  1  0  0  0  0
  3  4  2  0  0  0  0
  4  5  1  0  0  0  0
  5  6  2  0  0  0  0
  6  7  1  0  0  0  0
  7  8  2  0  0  0  0
  8  3  1  0  0  0  0
  9  8  1  0  0  0  0
 10  9  2  0  0  0  0
 11 10  1  0  0  0  0
  2 11  2  0  0  0  0
M  END
> <ChemID>
100266

> <CAS>
90-15-3

> <Original_SMILES>
Oc1cccc2ccccc21

> <preferred_name>
1-Naphthol

> <dsstox_substance_id>
DTXSID6021793

> <dsstox_compound_id>
DTXCID401793

> <qc_level>
DSSTox_Low

> <Canonical_QSARr>
OC1=CC=CC2=CC=CC=C21

> <InChI_Code_QSARr>
InChI=1S/C10H8O/c11-10-7-3-5-8-4-1-2-6-9(8)10/h1-7,11H

> <InChI Key_QSARr>
KJCVRFUGPWSIIH-UHFFFAOYSA-N

> <Salt_Solvent>


> <Salt_Solvent_ID>
0

> <MPID>
102314

> <HL Reference>
VP/WSOL

> <HL Temperature>
25

> <LogHL>
-7.221848749616351

> <Tr_1_Tst_0>
1

$$$$
100269
  Mrv171c012241914302D          

 11 11  0  0  0  0            999 V2000
    2.8613   -1.2381    0.0000 C   0  0  0  0  0  0  0  0  0  0  0  0
    3.5758   -0.8256    0.0000 O   0  0  0  0  0  0  0  0  0  0  0  0
    4.2902   -1.2381    0.0000 C   0  0  0  0  0  0  0  0  0  0  0  0
    2.1468   -0.8256    0.0000 C   0  0  0  0  0  0  0  0  0  0  0  0
    2.1468   -0.0006    0.0000 O   0  0  0  0  0  0  0  0  0  0  0  0
    1.4323   -1.2381    0.0000 C   0  0  0  0  0  0  0  0  0  0  0  0
    0.7179   -0.8256    0.0000 O   0  0  0  0  0  0  0  0  0  0  0  0
    0.0034   -1.2381    0.0000 C   0  0  0  0  0  0  0  0  0  0  0  0
    1.4323   -2.0631    0.0000 C   0  0  0  0  0  0  0  0  0  0  0  0
    2.1468   -2.4756    0.0000 C   0  0  0  0  0  0  0  0  0  0  0  0
    2.8613   -2.0631    0.0000 C   0  0  0  0  0  0  0  0  0  0  0  0
  1  2  1  0  0  0  0
  2  3  1  0  0  0  0
  4  1  2  0  0  0  0
  4  5  1  0  0  0  0
  6  4  1  0  0  0  0
  6  7  1  0  0  0  0
  7  8  1  0  0  0  0
  9  6  2  0  0  0  0
 10  9  1  0  0  0  0
 11 10  2  0  0  0  0
  1 11  1  0  0  0  0
M  END
> <ChemID>
100269

> <CAS>
91-10-1

> <Original_SMILES>
COc1cccc(OC)c1O

> <preferred_name>
2,6-Dimethoxyphenol

> <dsstox_substance_id>
DTXSID2052607

> <dsstox_compound_id>
DTXCID0031180

> <qc_level>
DSSTox_Low

> <Canonical_QSARr>
COC1=CC=CC(OC)=C1O

> <InChI_Code_QSARr>
InChI=1S/C8H10O3/c1-10-6-4-3-5-7(11-2)8(6)9/h3-5,9H,1-2H3

> <InChI Key_QSARr>
KLIDCXVFHGNTTM-UHFFFAOYSA-N

> <Salt_Solvent>


> <Salt_Solvent_ID>
0

> <MPID>
102315

> <HL Reference>
SAGEBIEL,JC ET AL. (1992)

> <HL Temperature>
25

> <LogHL>
-6.636388020107847

> <Tr_1_Tst_0>
1

$$$$
100271
  Mrv171c012241914302D          

 10 11  0  0  0  0            999 V2000
    0.7153   -1.6500    0.0000 C   0  0  0  0  0  0  0  0  0  0  0  0
    0.0008   -1.2375    0.0000 C   0  0  0  0  0  0  0  0  0  0  0  0
    0.0008   -0.4125    0.0000 C   0  0  0  0  0  0  0  0  0  0  0  0
    0.7153    0.0000    0.0000 C   0  0  0  0  0  0  0  0  0  0  0  0
    1.4297   -0.4125    0.0000 C   0  0  0  0  0  0  0  0  0  0  0  0
    2.1442    0.0000    0.0000 C   0  0  0  0  0  0  0  0  0  0  0  0
    2.8587   -0.4125    0.0000 C   0  0  0  0  0  0  0  0  0  0  0  0
    2.8587   -1.2375    0.0000 C   0  0  0  0  0  0  0  0  0  0  0  0
    2.1442   -1.6500    0.0000 C   0  0  0  0  0  0  0  0  0  0  0  0
    1.4297   -1.2375    0.0000 C   0  0  0  0  0  0  0  0  0  0  0  0
  2  1  1  0  0  0  0
  3  2  2  0  0  0  0
  4  3  1  0  0  0  0
  5  4  2  0  0  0  0
  5  6  1  0  0  0  0
  6  7  2  0  0  0  0
  7  8  1  0  0  0  0
  8  9  2  0  0  0  0
  9 10  1  0  0  0  0
  1 10  2  0  0  0  0
 10  5  1  0  0  0  0
M  END
> <ChemID>
100271

> <CAS>
91-20-3

> <Original_SMILES>
c1cccc2ccccc21

> <preferred_name>
Naphthalene

> <dsstox_substance_id>
DTXSID8020913

> <dsstox_compound_id>
DTXCID00913

> <qc_level>
DSSTox_Low

> <Canonical_QSARr>
C1=CC=CC2=CC=CC=C21

> <InChI_Code_QSARr>
InChI=1S/C10H8/c1-2-6-10-8-4-3-7-9(10)5-1/h1-8H

> <InChI Key_QSARr>
UFWIBTONFRDIAS-UHFFFAOYSA-N

> <Salt_Solvent>


> <Salt_Solvent_ID>
0

> <MPID>
102316

> <HL Reference>
SHIU,WY & MACKAY,D (1997)

> <HL Temperature>
25

> <LogHL>
-3.3565473235138135

> <Tr_1_Tst_0>
1

$$$$
100274
  Mrv171c012241914302D          

 11 12  0  0  0  0            999 V2000
    1.8110   -0.4138    0.0000 C   0  0  0  0  0  0  0  0  0  0  0  0
    1.0965   -0.0013    0.0000 C   0  0  0  0  0  0  0  0  0  0  0  0
    0.3820   -0.4138    0.0000 C   0  0  0  0  0  0  0  0  0  0  0  0
   -0.3325   -0.0013    0.0000 C   0  0  0  0  0  0  0  0  0  0  0  0
    0.3820   -1.2388    0.0000 C   0  0  0  0  0  0  0  0  0  0  0  0
    1.0965   -1.6513    0.0000 C   0  0  0  0  0  0  0  0  0  0  0  0
    1.8110   -1.2388    0.0000 C   0  0  0  0  0  0  0  0  0  0  0  0
    2.5254   -1.6513    0.0000 C   0  0  0  0  0  0  0  0  0  0  0  0
    3.2399   -1.2388    0.0000 C   0  0  0  0  0  0  0  0  0  0  0  0
    3.2399   -0.4138    0.0000 C   0  0  0  0  0  0  0  0  0  0  0  0
    2.5254   -0.0013    0.0000 C   0  0  0  0  0  0  0  0  0  0  0  0
  2  1  1  0  0  0  0
  3  2  2  0  0  0  0
  3  4  1  0  0  0  0
  5  3  1  0  0  0  0
  6  5  2  0  0  0  0
  7  6  1  0  0  0  0
  7  1  1  0  0  0  0
  8  7  2  0  0  0  0
  9  8  1  0  0  0  0
 10  9  2  0  0  0  0
 11 10  1  0  0  0  0
  1 11  2  0  0  0  0
M  END
> <ChemID>
100274

> <CAS>
91-57-6

> <Original_SMILES>
Cc1cc2ccccc2cc1

> <preferred_name>
2-Methylnaphthalene

> <dsstox_substance_id>
DTXSID4020878

> <dsstox_compound_id>
DTXCID60878

> <qc_level>
DSSTox_Low

> <Canonical_QSARr>
CC1=CC2=CC=CC=C2C=C1

> <InChI_Code_QSARr>
InChI=1S/C11H10/c1-9-6-7-10-4-2-3-5-11(10)8-9/h2-8H,1H3

> <InChI Key_QSARr>
QIMMUPPBPVKWKM-UHFFFAOYSA-N

> <Salt_Solvent>


> <Salt_Solvent_ID>
0

> <MPID>
102317

> <HL Reference>
ALTSCHUH,J ET AL. (1999)

> <HL Temperature>
25

> <LogHL>
-3.2856702402547664

> <Tr_1_Tst_0>
1

$$$$
100275
  Mrv171c012241914302D          

 11 12  0  0  0  0            999 V2000
    1.7589   -0.4252    0.0000 C   0  0  0  0  0  0  0  0  0  0  0  0
    1.0445   -0.0127    0.0000 C   0  0  0  0  0  0  0  0  0  0  0  0
    0.3300   -0.4252    0.0000 C   0  0  0  0  0  0  0  0  0  0  0  0
    0.3300   -1.2502    0.0000 C   0  0  0  0  0  0  0  0  0  0  0  0
    1.0445   -1.6627    0.0000 C   0  0  0  0  0  0  0  0  0  0  0  0
    1.7589   -1.2502    0.0000 C   0  0  0  0  0  0  0  0  0  0  0  0
    2.4734   -1.6627    0.0000 C   0  0  0  0  0  0  0  0  0  0  0  0
    3.1879   -1.2502    0.0000 C   0  0  0  0  0  0  0  0  0  0  0  0
    3.1879   -0.4252    0.0000 C   0  0  0  0  0  0  0  0  0  0  0  0
    3.9023   -0.0127    0.0000 Cl  0  0  0  0  0  0  0  0  0  0  0  0
    2.4734   -0.0127    0.0000 C   0  0  0  0  0  0  0  0  0  0  0  0
  2  1  1  0  0  0  0
  3  2  2  0  0  0  0
  4  3  1  0  0  0  0
  5  4  2  0  0  0  0
  6  5  1  0  0  0  0
  6  1  1  0  0  0  0
  7  6  2  0  0  0  0
  8  7  1  0  0  0  0
  9  8  2  0  0  0  0
  9 10  1  0  0  0  0
 11  9  1  0  0  0  0
  1 11  2  0  0  0  0
M  END
> <ChemID>
100275

> <CAS>
91-58-7

> <Original_SMILES>
Clc1cc2ccccc2cc1

> <preferred_name>
2-Chloronaphthalene

> <dsstox_substance_id>
DTXSID8023971

> <dsstox_compound_id>
DTXCID603971

> <qc_level>
DSSTox_Low

> <Canonical_QSARr>
ClC1C=C2C=CC=CC2=CC=1

> <InChI_Code_QSARr>
InChI=1S/C10H7Cl/c11-10-6-5-8-3-1-2-4-9(8)7-10/h1-7H

> <InChI Key_QSARr>
CGYGETOMCSJHJU-UHFFFAOYSA-N

> <Salt_Solvent>


> <Salt_Solvent_ID>
0

> <MPID>
102318

> <HL Reference>
SHIU,WY & MACKAY,D (1997)

> <HL Temperature>
25

> <LogHL>
-3.494850021680093

> <Tr_1_Tst_0>
1

$$$$
100276
  Mrv171c012241914302D          

 11 12  0  0  0  0            999 V2000
    1.7532   -0.5635    0.0000 C   0  0  0  0  0  0  0  0  0  0  0  0
    1.0387   -0.1510    0.0000 C   0  0  0  0  0  0  0  0  0  0  0  0
    0.3243   -0.5635    0.0000 C   0  0  0  0  0  0  0  0  0  0  0  0
    0.3243   -1.3885    0.0000 C   0  0  0  0  0  0  0  0  0  0  0  0
    1.0387   -1.8010    0.0000 C   0  0  0  0  0  0  0  0  0  0  0  0
    1.7532   -1.3885    0.0000 C   0  0  0  0  0  0  0  0  0  0  0  0
    2.4677   -1.8010    0.0000 C   0  0  0  0  0  0  0  0  0  0  0  0
    3.1822   -1.3885    0.0000 C   0  0  0  0  0  0  0  0  0  0  0  0
    3.1822   -0.5635    0.0000 C   0  0  0  0  0  0  0  0  0  0  0  0
    3.8966   -0.1510    0.0000 N   0  0  0  0  0  0  0  0  0  0  0  0
    2.4677   -0.1510    0.0000 C   0  0  0  0  0  0  0  0  0  0  0  0
  2  1  1  0  0  0  0
  3  2  2  0  0  0  0
  4  3  1  0  0  0  0
  5  4  2  0  0  0  0
  6  5  1  0  0  0  0
  6  1  2  0  0  0  0
  7  6  1  0  0  0  0
  8  7  2  0  0  0  0
  9  8  1  0  0  0  0
  9 10  1  0  0  0  0
 11  9  2  0  0  0  0
  1 11  1  0  0  0  0
M  END
> <ChemID>
100276

> <CAS>
91-59-8

> <Original_SMILES>
Nc1cc2ccccc2cc1

> <preferred_name>
2-Naphthylamine

> <dsstox_substance_id>
DTXSID2020921

> <dsstox_compound_id>
DTXCID60921

> <qc_level>
DSSTox_Low

> <Canonical_QSARr>
NC1=CC2C=CC=CC=2C=C1

> <InChI_Code_QSARr>
InChI=1S/C10H9N/c11-10-6-5-8-3-1-2-4-9(8)7-10/h1-7H,11H2

> <InChI Key_QSARr>
JBIJLHTVPXGSAM-UHFFFAOYSA-N

> <Salt_Solvent>


> <Salt_Solvent_ID>
0

> <MPID>
102319

> <HL Reference>
ABRAHAM,MH ET AL. (1994)

> <HL Temperature>
25

> <LogHL>
-7.091514981121361

> <Tr_1_Tst_0>
0

$$$$
100281
  Mrv171c012241914302D          

 12 13  0  0  0  0            999 V2000
    1.3498   -1.5392    0.0000 C   0  0  0  0  0  0  0  0  0  0  0  0
    1.3498   -2.3642    0.0000 C   0  0  0  0  0  0  0  0  0  0  0  0
    2.0643   -2.7767    0.0000 C   0  0  0  0  0  0  0  0  0  0  0  0
    2.7787   -2.3642    0.0000 C   0  0  0  0  0  0  0  0  0  0  0  0
    2.7787   -1.5392    0.0000 C   0  0  0  0  0  0  0  0  0  0  0  0
    2.0643   -1.1267    0.0000 C   0  0  0  0  0  0  0  0  0  0  0  0
    2.0643   -0.3017    0.0000 C   0  0  0  0  0  0  0  0  0  0  0  0
    2.7787    0.1108    0.0000 C   0  0  0  0  0  0  0  0  0  0  0  0
    2.7787    0.9358    0.0000 C   0  0  0  0  0  0  0  0  0  0  0  0
    2.0643    1.3483    0.0000 C   0  0  0  0  0  0  0  0  0  0  0  0
    1.3498    0.9358    0.0000 C   0  0  0  0  0  0  0  0  0  0  0  0
    1.3498    0.1108    0.0000 C   0  0  0  0  0  0  0  0  0  0  0  0
  2  1  1  0  0  0  0
  3  2  2  0  0  0  0
  4  3  1  0  0  0  0
  5  4  2  0  0  0  0
  6  5  1  0  0  0  0
  1  6  2  0  0  0  0
  6  7  1  0  0  0  0
  8  7  1  0  0  0  0
  9  8  2  0  0  0  0
 10  9  1  0  0  0  0
 11 10  2  0  0  0  0
 12 11  1  0  0  0  0
  7 12  2  0  0  0  0
M  END
> <ChemID>
100281

> <CAS>
92-52-4

> <Original_SMILES>
c1ccccc1-c1ccccc1

> <preferred_name>
Biphenyl

> <dsstox_substance_id>
DTXSID4020161

> <dsstox_compound_id>
DTXCID60161

> <qc_level>
DSSTox_Low

> <Canonical_QSARr>
C1=CC=CC=C1C1C=CC=CC=1

> <InChI_Code_QSARr>
InChI=1S/C12H10/c1-3-7-11(8-4-1)12-9-5-2-6-10-12/h1-10H

> <InChI Key_QSARr>
ZUOUZKKEUPVFJK-UHFFFAOYSA-N

> <Salt_Solvent>


> <Salt_Solvent_ID>
0

> <MPID>
102320

> <HL Reference>
SHIU,WY & MACKAY,D (1997)

> <HL Temperature>
25

> <LogHL>
-3.5114492834995557

> <Tr_1_Tst_0>
1

$$$$
100284
  Mrv171c012241914302D          

 10 10  0  0  0  0            999 V2000
    1.5054   -1.6926    0.0000 C   0  0  0  0  0  0  0  0  0  0  0  0
    2.2199   -2.1051    0.0000 O   0  0  0  0  0  0  0  0  0  0  0  0
    2.2199   -2.9301    0.0000 C   0  0  0  0  0  0  0  0  0  0  0  0
    1.5054   -0.8676    0.0000 C   0  0  0  0  0  0  0  0  0  0  0  0
    0.7910   -0.4551    0.0000 C   0  0  0  0  0  0  0  0  0  0  0  0
    0.7910    0.3699    0.0000 C   0  0  0  0  0  0  0  0  0  0  0  0
    0.0765   -0.8676    0.0000 C   0  0  0  0  0  0  0  0  0  0  0  0
    0.0765   -1.6926    0.0000 C   0  0  0  0  0  0  0  0  0  0  0  0
    0.7910   -2.1051    0.0000 C   0  0  0  0  0  0  0  0  0  0  0  0
    0.7910   -2.9301    0.0000 O   0  0  0  0  0  0  0  0  0  0  0  0
  1  2  1  0  0  0  0
  2  3  1  0  0  0  0
  4  1  2  0  0  0  0
  5  4  1  0  0  0  0
  5  6  1  0  0  0  0
  7  5  2  0  0  0  0
  8  7  1  0  0  0  0
  9  8  2  0  0  0  0
  1  9  1  0  0  0  0
  9 10  1  0  0  0  0
M  END
> <ChemID>
100284

> <CAS>
93-51-6

> <Original_SMILES>
Cc1ccc(O)c(c1)OC

> <preferred_name>
2-Methoxy-4-methylphenol

> <dsstox_substance_id>
DTXSID6047105

> <dsstox_compound_id>
DTXCID4027105

> <qc_level>
DSSTox_Low

> <Canonical_QSARr>
CC1C=C(OC)C(O)=CC=1

> <InChI_Code_QSARr>
InChI=1S/C8H10O2/c1-6-3-4-7(9)8(5-6)10-2/h3-5,9H,1-2H3

> <InChI Key_QSARr>
PETRWTHZSKVLRE-UHFFFAOYSA-N

> <Salt_Solvent>


> <Salt_Solvent_ID>
0

> <MPID>
102321

> <HL Reference>
SAGEBIEL,JC ET AL. (1992)

> <HL Temperature>
25

> <LogHL>
-5.876148359032908

> <Tr_1_Tst_0>
0

$$$$
100296
  Mrv171c012241914302D          

  8  8  0  0  0  0            999 V2000
    0.3589   -2.0602    0.0000 C   0  0  0  0  0  0  0  0  0  0  0  0
    1.0734   -2.4727    0.0000 C   0  0  0  0  0  0  0  0  0  0  0  0
    1.7879   -2.0602    0.0000 C   0  0  0  0  0  0  0  0  0  0  0  0
    1.7879   -1.2352    0.0000 C   0  0  0  0  0  0  0  0  0  0  0  0
    1.0734   -0.8227    0.0000 C   0  0  0  0  0  0  0  0  0  0  0  0
    1.0734    0.0023    0.0000 C   0  0  0  0  0  0  0  0  0  0  0  0
    0.3589   -1.2352    0.0000 C   0  0  0  0  0  0  0  0  0  0  0  0
   -0.3556   -0.8227    0.0000 C   0  0  0  0  0  0  0  0  0  0  0  0
  2  1  2  0  0  0  0
  3  2  1  0  0  0  0
  4  3  2  0  0  0  0
  5  4  1  0  0  0  0
  5  6  1  0  0  0  0
  7  5  2  0  0  0  0
  1  7  1  0  0  0  0
  7  8  1  0  0  0  0
M  END
> <ChemID>
100296

> <CAS>
95-47-6

> <Original_SMILES>
Cc1ccccc1C

> <preferred_name>
o-Xylene

> <dsstox_substance_id>
DTXSID3021807

> <dsstox_compound_id>
DTXCID501807

> <qc_level>
DSSTox_Low

> <Canonical_QSARr>
CC1C=CC=CC=1C

> <InChI_Code_QSARr>
InChI=1S/C8H10/c1-7-5-3-4-6-8(7)2/h3-6H,1-2H3

> <InChI Key_QSARr>
CTQNGGLPUBDAKN-UHFFFAOYSA-N

> <Salt_Solvent>


> <Salt_Solvent_ID>
0

> <MPID>
102322

> <HL Reference>
SANEMASA,I ET AL. (1982)

> <HL Temperature>
25

> <LogHL>
-2.285670240254769

> <Tr_1_Tst_0>
0

$$$$
100297
  Mrv171c012241914302D          

  8  8  0  0  0  0            999 V2000
    0.0913   -0.7358    0.0000 O   0  0  0  0  0  0  0  0  0  0  0  0
    0.8057   -1.1483    0.0000 C   0  0  0  0  0  0  0  0  0  0  0  0
    0.8057   -1.9733    0.0000 C   0  0  0  0  0  0  0  0  0  0  0  0
    1.5202   -2.3858    0.0000 C   0  0  0  0  0  0  0  0  0  0  0  0
    2.2347   -1.9733    0.0000 C   0  0  0  0  0  0  0  0  0  0  0  0
    2.2347   -1.1483    0.0000 C   0  0  0  0  0  0  0  0  0  0  0  0
    1.5202   -0.7358    0.0000 C   0  0  0  0  0  0  0  0  0  0  0  0
    1.5202    0.0892    0.0000 C   0  0  0  0  0  0  0  0  0  0  0  0
  1  2  1  0  0  0  0
  3  2  1  0  0  0  0
  4  3  2  0  0  0  0
  5  4  1  0  0  0  0
  6  5  2  0  0  0  0
  7  6  1  0  0  0  0
  2  7  2  0  0  0  0
  7  8  1  0  0  0  0
M  END
> <ChemID>
100297

> <CAS>
95-48-7

> <Original_SMILES>
Cc1ccccc1O

> <preferred_name>
o-Cresol

> <dsstox_substance_id>
DTXSID8021808

> <dsstox_compound_id>
DTXCID901808

> <qc_level>
DSSTox_Low

> <Canonical_QSARr>
CC1C=CC=CC=1O

> <InChI_Code_QSARr>
InChI=1S/C7H8O/c1-6-4-2-3-5-7(6)8/h2-5,8H,1H3

> <InChI Key_QSARr>
QWVGKYWNOKOFNN-UHFFFAOYSA-N

> <Salt_Solvent>


> <Salt_Solvent_ID>
0

> <MPID>
102323

> <HL Reference>
GAFFNEY,JS ET AL. (1987)

> <HL Temperature>
25

> <LogHL>
-5.920818753952366

> <Tr_1_Tst_0>
1

$$$$
100298
  Mrv171c012241914302D          

  8  8  0  0  0  0            999 V2000
    1.7860   -1.2382    0.0000 C   0  0  0  0  0  0  0  0  0  0  0  0
    2.5005   -0.8257    0.0000 C   0  0  0  0  0  0  0  0  0  0  0  0
    1.0716   -0.8257    0.0000 C   0  0  0  0  0  0  0  0  0  0  0  0
    1.0716   -0.0007    0.0000 Cl  0  0  0  0  0  0  0  0  0  0  0  0
    0.3571   -1.2382    0.0000 C   0  0  0  0  0  0  0  0  0  0  0  0
    0.3571   -2.0632    0.0000 C   0  0  0  0  0  0  0  0  0  0  0  0
    1.0716   -2.4757    0.0000 C   0  0  0  0  0  0  0  0  0  0  0  0
    1.7860   -2.0632    0.0000 C   0  0  0  0  0  0  0  0  0  0  0  0
  1  2  1  0  0  0  0
  3  1  2  0  0  0  0
  3  4  1  0  0  0  0
  5  3  1  0  0  0  0
  6  5  2  0  0  0  0
  7  6  1  0  0  0  0
  8  7  2  0  0  0  0
  1  8  1  0  0  0  0
M  END
> <ChemID>
100298

> <CAS>
95-49-8

> <Original_SMILES>
Cc1ccccc1Cl

> <preferred_name>
2-Chlorotoluene

> <dsstox_substance_id>
DTXSID8023977

> <dsstox_compound_id>
DTXCID003977

> <qc_level>
DSSTox_Low

> <Canonical_QSARr>
CC1C=CC=CC=1Cl

> <InChI_Code_QSARr>
InChI=1S/C7H7Cl/c1-6-4-2-3-5-7(6)8/h2-5H,1H3

> <InChI Key_QSARr>
IBSQPLPBRSHTTG-UHFFFAOYSA-N

> <Salt_Solvent>


> <Salt_Solvent_ID>
0

> <MPID>
102324

> <HL Reference>
LEIGHTON,DTJR & CALO,JM (1981)

> <HL Temperature>
25

> <LogHL>
-2.447331783887807

> <Tr_1_Tst_0>
1

$$$$
100299
  Mrv171c012241914302D          

  8  8  0  0  0  0            999 V2000
    0.0913   -0.7358    0.0000 Cl  0  0  0  0  0  0  0  0  0  0  0  0
    0.8057   -1.1483    0.0000 C   0  0  0  0  0  0  0  0  0  0  0  0
    0.8057   -1.9733    0.0000 C   0  0  0  0  0  0  0  0  0  0  0  0
    1.5202   -2.3858    0.0000 C   0  0  0  0  0  0  0  0  0  0  0  0
    2.2347   -1.9733    0.0000 C   0  0  0  0  0  0  0  0  0  0  0  0
    2.2347   -1.1483    0.0000 C   0  0  0  0  0  0  0  0  0  0  0  0
    1.5202   -0.7358    0.0000 C   0  0  0  0  0  0  0  0  0  0  0  0
    1.5202    0.0892    0.0000 Cl  0  0  0  0  0  0  0  0  0  0  0  0
  1  2  1  0  0  0  0
  3  2  1  0  0  0  0
  4  3  2  0  0  0  0
  5  4  1  0  0  0  0
  6  5  2  0  0  0  0
  7  6  1  0  0  0  0
  2  7  2  0  0  0  0
  7  8  1  0  0  0  0
M  END
> <ChemID>
100299

> <CAS>
95-50-1

> <Original_SMILES>
Clc1ccccc1Cl

> <preferred_name>
1,2-Dichlorobenzene

> <dsstox_substance_id>
DTXSID6020430

> <dsstox_compound_id>
DTXCID00430

> <qc_level>
DSSTox_Low

> <Canonical_QSARr>
ClC1C=CC=CC=1Cl

> <InChI_Code_QSARr>
InChI=1S/C6H4Cl2/c7-5-3-1-2-4-6(5)8/h1-4H

> <InChI Key_QSARr>
RFFLAFLAYFXFSW-UHFFFAOYSA-N

> <Salt_Solvent>


> <Salt_Solvent_ID>
0

> <MPID>
102325

> <HL Reference>
SHIU,WY & MACKAY,D (1997)

> <HL Temperature>
25

> <LogHL>
-2.716698771296451

> <Tr_1_Tst_0>
1

$$$$
100301
  Mrv171c012241914302D          

  8  8  0  0  0  0            999 V2000
    0.0913   -0.7358    0.0000 N   0  0  0  0  0  0  0  0  0  0  0  0
    0.8057   -1.1483    0.0000 C   0  0  0  0  0  0  0  0  0  0  0  0
    0.8057   -1.9733    0.0000 C   0  0  0  0  0  0  0  0  0  0  0  0
    1.5202   -2.3858    0.0000 C   0  0  0  0  0  0  0  0  0  0  0  0
    2.2347   -1.9733    0.0000 C   0  0  0  0  0  0  0  0  0  0  0  0
    2.2347   -1.1483    0.0000 C   0  0  0  0  0  0  0  0  0  0  0  0
    1.5202   -0.7358    0.0000 C   0  0  0  0  0  0  0  0  0  0  0  0
    1.5202    0.0892    0.0000 C   0  0  0  0  0  0  0  0  0  0  0  0
  1  2  1  0  0  0  0
  3  2  1  0  0  0  0
  4  3  2  0  0  0  0
  5  4  1  0  0  0  0
  6  5  2  0  0  0  0
  7  6  1  0  0  0  0
  2  7  2  0  0  0  0
  7  8  1  0  0  0  0
M  END
> <ChemID>
100301

> <CAS>
95-53-4

> <Original_SMILES>
Cc1ccccc1N

> <preferred_name>
2-Methylaniline

> <dsstox_substance_id>
DTXSID1026164

> <dsstox_compound_id>
DTXCID206164

> <qc_level>
DSSTox_Low

> <Canonical_QSARr>
CC1C=CC=CC=1N

> <InChI_Code_QSARr>
InChI=1S/C7H9N/c1-6-4-2-3-5-7(6)8/h2-5H,8H2,1H3

> <InChI Key_QSARr>
RNVCVTLRINQCPJ-UHFFFAOYSA-N

> <Salt_Solvent>


> <Salt_Solvent_ID>
0

> <MPID>
102326

> <HL Reference>
ALTSCHUH,J ET AL. (1999)

> <HL Temperature>
25

> <LogHL>
-5.703334809738455

> <Tr_1_Tst_0>
1

$$$$
100303
  Mrv171c012241914302D          

  8  8  0  0  0  0            999 V2000
    2.3863   -0.7358    0.0000 O   0  0  0  0  0  0  0  0  0  0  0  0
    1.6718   -1.1483    0.0000 C   0  0  0  0  0  0  0  0  0  0  0  0
    0.9573   -0.7358    0.0000 C   0  0  0  0  0  0  0  0  0  0  0  0
    0.9573    0.0892    0.0000 Cl  0  0  0  0  0  0  0  0  0  0  0  0
    0.2429   -1.1483    0.0000 C   0  0  0  0  0  0  0  0  0  0  0  0
    0.2429   -1.9733    0.0000 C   0  0  0  0  0  0  0  0  0  0  0  0
    0.9573   -2.3858    0.0000 C   0  0  0  0  0  0  0  0  0  0  0  0
    1.6718   -1.9733    0.0000 C   0  0  0  0  0  0  0  0  0  0  0  0
  1  2  1  0  0  0  0
  3  2  1  0  0  0  0
  3  4  1  0  0  0  0
  5  3  2  0  0  0  0
  6  5  1  0  0  0  0
  7  6  2  0  0  0  0
  8  7  1  0  0  0  0
  2  8  2  0  0  0  0
M  END
> <ChemID>
100303

> <CAS>
95-57-8

> <Original_SMILES>
Oc1ccccc1Cl

> <preferred_name>
2-Chlorophenol

> <dsstox_substance_id>
DTXSID5021544

> <dsstox_compound_id>
DTXCID901544

> <qc_level>
DSSTox_Low

> <Canonical_QSARr>
OC1=CC=CC=C1Cl

> <InChI_Code_QSARr>
InChI=1S/C6H5ClO/c7-5-3-1-2-4-6(5)8/h1-4,8H

> <InChI Key_QSARr>
ISPYQTSUDJAMAB-UHFFFAOYSA-N

> <Salt_Solvent>


> <Salt_Solvent_ID>
0

> <MPID>
102327

> <HL Reference>
ABRAHAM,MH ET AL. (1994)

> <HL Temperature>
25

> <LogHL>
-4.950781977329807

> <Tr_1_Tst_0>
1

$$$$
100304
  Mrv171c012241914302D          

  9  9  0  0  0  0            999 V2000
    2.5410   -1.6499    0.0000 C   0  0  0  0  0  0  0  0  0  0  0  0
    1.8266   -1.2374    0.0000 C   0  0  0  0  0  0  0  0  0  0  0  0
    1.8266   -0.4124    0.0000 C   0  0  0  0  0  0  0  0  0  0  0  0
    1.1121    0.0001    0.0000 C   0  0  0  0  0  0  0  0  0  0  0  0
    1.1121    0.8251    0.0000 C   0  0  0  0  0  0  0  0  0  0  0  0
    0.3976   -0.4124    0.0000 C   0  0  0  0  0  0  0  0  0  0  0  0
    0.3976   -1.2374    0.0000 C   0  0  0  0  0  0  0  0  0  0  0  0
    1.1121   -1.6499    0.0000 C   0  0  0  0  0  0  0  0  0  0  0  0
    1.1121   -2.4749    0.0000 C   0  0  0  0  0  0  0  0  0  0  0  0
  1  2  1  0  0  0  0
  3  2  1  0  0  0  0
  4  3  2  0  0  0  0
  4  5  1  0  0  0  0
  6  4  1  0  0  0  0
  7  6  2  0  0  0  0
  8  7  1  0  0  0  0
  2  8  2  0  0  0  0
  8  9  1  0  0  0  0
M  END
> <ChemID>
100304

> <CAS>
95-63-6

> <Original_SMILES>
Cc1cc(C)c(C)cc1

> <preferred_name>
1,2,4-Trimethylbenzene

> <dsstox_substance_id>
DTXSID6021402

> <dsstox_compound_id>
DTXCID701402

> <qc_level>
DSSTox_Low

> <Canonical_QSARr>
CC1=CC(C)=C(C)C=C1

> <InChI_Code_QSARr>
InChI=1S/C9H12/c1-7-4-5-8(2)9(3)6-7/h4-6H,1-3H3

> <InChI Key_QSARr>
GWHJZXXIDMPWGX-UHFFFAOYSA-N

> <Salt_Solvent>


> <Salt_Solvent_ID>
0

> <MPID>
102328

> <HL Reference>
SANEMASA,I ET AL. (1982)

> <HL Temperature>
25

> <LogHL>
-2.210419287835575

> <Tr_1_Tst_0>
0

$$$$
100305
  Mrv171c012241914302D          

  9  9  0  0  0  0            999 V2000
    2.8588   -0.1833    0.0000 C   0  0  0  0  0  0  0  0  0  0  0  0
    2.1443   -0.5958    0.0000 C   0  0  0  0  0  0  0  0  0  0  0  0
    1.4298   -0.1833    0.0000 C   0  0  0  0  0  0  0  0  0  0  0  0
    1.4298    0.6417    0.0000 C   0  0  0  0  0  0  0  0  0  0  0  0
    0.7153   -0.5958    0.0000 C   0  0  0  0  0  0  0  0  0  0  0  0
    0.7153   -1.4208    0.0000 C   0  0  0  0  0  0  0  0  0  0  0  0
    1.4298   -1.8333    0.0000 C   0  0  0  0  0  0  0  0  0  0  0  0
    1.4298   -2.6583    0.0000 N   0  0  0  0  0  0  0  0  0  0  0  0
    2.1443   -1.4208    0.0000 C   0  0  0  0  0  0  0  0  0  0  0  0
  1  2  1  0  0  0  0
  3  2  1  0  0  0  0
  3  4  1  0  0  0  0
  5  3  2  0  0  0  0
  6  5  1  0  0  0  0
  7  6  2  0  0  0  0
  7  8  1  0  0  0  0
  9  7  1  0  0  0  0
  2  9  2  0  0  0  0
M  END
> <ChemID>
100305

> <CAS>
95-64-7

> <Original_SMILES>
Cc1cc(N)ccc1C

> <preferred_name>
3,4-Dimethylaniline

> <dsstox_substance_id>
DTXSID3026308

> <dsstox_compound_id>
DTXCID406308

> <qc_level>
DSSTox_Low

> <Canonical_QSARr>
CC1=CC(N)=CC=C1C

> <InChI_Code_QSARr>
InChI=1S/C8H11N/c1-6-3-4-8(9)5-7(6)2/h3-5H,9H2,1-2H3

> <InChI Key_QSARr>
DOLQYFPDPKPQSS-UHFFFAOYSA-N

> <Salt_Solvent>


> <Salt_Solvent_ID>
0

> <MPID>
102329

> <HL Reference>
JAYASINGHE,DS ET AL. (1992)

> <HL Temperature>
25

> <LogHL>
-5.730487055782098

> <Tr_1_Tst_0>
1

$$$$
100306
  Mrv171c012241914302D          

  9  9  0  0  0  0            999 V2000
    1.4357   -1.2390    0.0000 C   0  0  0  0  0  0  0  0  0  0  0  0
    0.7212   -0.8265    0.0000 C   0  0  0  0  0  0  0  0  0  0  0  0
    0.7212   -0.0015    0.0000 O   0  0  0  0  0  0  0  0  0  0  0  0
    0.0068   -1.2390    0.0000 C   0  0  0  0  0  0  0  0  0  0  0  0
    0.0068   -2.0640    0.0000 C   0  0  0  0  0  0  0  0  0  0  0  0
    0.7212   -2.4765    0.0000 C   0  0  0  0  0  0  0  0  0  0  0  0
    0.7212   -3.3015    0.0000 C   0  0  0  0  0  0  0  0  0  0  0  0
    1.4357   -2.0640    0.0000 C   0  0  0  0  0  0  0  0  0  0  0  0
    2.1502   -2.4765    0.0000 C   0  0  0  0  0  0  0  0  0  0  0  0
  2  1  2  0  0  0  0
  2  3  1  0  0  0  0
  4  2  1  0  0  0  0
  5  4  2  0  0  0  0
  6  5  1  0  0  0  0
  6  7  1  0  0  0  0
  8  6  2  0  0  0  0
  1  8  1  0  0  0  0
  8  9  1  0  0  0  0
M  END
> <ChemID>
100306

> <CAS>
95-65-8

> <Original_SMILES>
Cc1cc(O)ccc1C

> <preferred_name>
3,4-Dimethylphenol

> <dsstox_substance_id>
DTXSID4024062

> <dsstox_compound_id>
DTXCID004062

> <qc_level>
DSSTox_Low

> <Canonical_QSARr>
CC1C=C(O)C=CC=1C

> <InChI_Code_QSARr>
InChI=1S/C8H10O/c1-6-3-4-8(9)5-7(6)2/h3-5,9H,1-2H3

> <InChI Key_QSARr>
YCOXTKKNXUZSKD-UHFFFAOYSA-N

> <Salt_Solvent>


> <Salt_Solvent_ID>
0

> <MPID>
102330

> <HL Reference>
ABRAHAM,MH ET AL. (1994)

> <HL Temperature>
25

> <LogHL>
-6.381951903287901

> <Tr_1_Tst_0>
1

$$$$
100310
  Mrv171c012241914302D          

  9  9  0  0  0  0            999 V2000
    2.5410   -1.6499    0.0000 O   0  0  0  0  0  0  0  0  0  0  0  0
    1.8266   -1.2374    0.0000 C   0  0  0  0  0  0  0  0  0  0  0  0
    1.8266   -0.4124    0.0000 C   0  0  0  0  0  0  0  0  0  0  0  0
    1.1121    0.0001    0.0000 C   0  0  0  0  0  0  0  0  0  0  0  0
    1.1121    0.8251    0.0000 C   0  0  0  0  0  0  0  0  0  0  0  0
    0.3976   -0.4124    0.0000 C   0  0  0  0  0  0  0  0  0  0  0  0
    0.3976   -1.2374    0.0000 C   0  0  0  0  0  0  0  0  0  0  0  0
    1.1121   -1.6499    0.0000 C   0  0  0  0  0  0  0  0  0  0  0  0
    1.1121   -2.4749    0.0000 C   0  0  0  0  0  0  0  0  0  0  0  0
  1  2  1  0  0  0  0
  3  2  1  0  0  0  0
  4  3  2  0  0  0  0
  4  5  1  0  0  0  0
  6  4  1  0  0  0  0
  7  6  2  0  0  0  0
  8  7  1  0  0  0  0
  2  8  2  0  0  0  0
  8  9  1  0  0  0  0
M  END
> <ChemID>
100310

> <CAS>
95-87-4

> <Original_SMILES>
Cc1cc(O)c(C)cc1

> <preferred_name>
2,5-Dimethylphenol

> <dsstox_substance_id>
DTXSID6025145

> <dsstox_compound_id>
DTXCID905145

> <qc_level>
DSSTox_Low

> <Canonical_QSARr>
CC1=CC(O)=C(C)C=C1

> <InChI_Code_QSARr>
InChI=1S/C8H10O/c1-6-3-4-7(2)8(9)5-6/h3-5,9H,1-2H3

> <InChI Key_QSARr>
NKTOLZVEWDHZMU-UHFFFAOYSA-N

> <Salt_Solvent>


> <Salt_Solvent_ID>
0

> <MPID>
102331

> <HL Reference>
ABRAHAM,MH ET AL. (1994)

> <HL Temperature>
25

> <LogHL>
-5.9507819773298305

> <Tr_1_Tst_0>
1

$$$$
100312
  Mrv171c012241914302D          

 10 10  0  0  0  0            999 V2000
    3.0867   -0.6079    0.0000 Cl  0  0  0  0  0  0  0  0  0  0  0  0
    2.3722   -1.0204    0.0000 C   0  0  0  0  0  0  0  0  0  0  0  0
    1.6577   -0.6079    0.0000 C   0  0  0  0  0  0  0  0  0  0  0  0
    1.6577    0.2171    0.0000 Cl  0  0  0  0  0  0  0  0  0  0  0  0
    0.9433   -1.0204    0.0000 C   0  0  0  0  0  0  0  0  0  0  0  0
    0.9433   -1.8454    0.0000 C   0  0  0  0  0  0  0  0  0  0  0  0
    0.2288   -2.2579    0.0000 Cl  0  0  0  0  0  0  0  0  0  0  0  0
    1.6577   -2.2579    0.0000 C   0  0  0  0  0  0  0  0  0  0  0  0
    1.6577   -3.0829    0.0000 Cl  0  0  0  0  0  0  0  0  0  0  0  0
    2.3722   -1.8454    0.0000 C   0  0  0  0  0  0  0  0  0  0  0  0
  1  2  1  0  0  0  0
  3  2  2  0  0  0  0
  3  4  1  0  0  0  0
  5  3  1  0  0  0  0
  6  5  2  0  0  0  0
  6  7  1  0  0  0  0
  8  6  1  0  0  0  0
  8  9  1  0  0  0  0
 10  8  2  0  0  0  0
  2 10  1  0  0  0  0
M  END
> <ChemID>
100312

> <CAS>
95-94-3

> <Original_SMILES>
Clc1cc(Cl)c(Cl)cc1Cl

> <preferred_name>
1,2,4,5-Tetrachlorobenzene

> <dsstox_substance_id>
DTXSID7024320

> <dsstox_compound_id>
DTXCID604320

> <qc_level>
DSSTox_Low

> <Canonical_QSARr>
ClC1C=C(Cl)C(Cl)=CC=1Cl

> <InChI_Code_QSARr>
InChI=1S/C6H2Cl4/c7-3-1-4(8)6(10)2-5(3)9/h1-2H

> <InChI Key_QSARr>
JHBKHLUZVFWLAG-UHFFFAOYSA-N

> <Salt_Solvent>


> <Salt_Solvent_ID>
0

> <MPID>
102332

> <HL Reference>
OLIVER,BG (1985)

> <HL Temperature>
20

> <LogHL>
-3.0000000000000013

> <Tr_1_Tst_0>
0

$$$$
100317
  Mrv171c012241914302D          

  6  5  0  0  0  0            999 V2000
    0.8266   -1.6670    0.0000 Cl  0  0  0  0  0  0  0  0  0  0  0  0
    1.2391   -0.9525    0.0000 C   0  0  0  0  0  0  0  0  0  0  0  0
    2.0641   -0.9525    0.0000 C   0  0  0  0  0  0  0  0  0  0  0  0
    2.4766   -1.6670    0.0000 Cl  0  0  0  0  0  0  0  0  0  0  0  0
    0.8266   -0.2381    0.0000 C   0  0  0  0  0  0  0  0  0  0  0  0
    0.0016   -0.2381    0.0000 Cl  0  0  0  0  0  0  0  0  0  0  0  0
  1  2  1  0  0  0  0
  2  3  1  0  0  0  0
  3  4  1  0  0  0  0
  2  5  1  0  0  0  0
  5  6  1  0  0  0  0
M  END
> <ChemID>
100317

> <CAS>
96-18-4

> <Original_SMILES>
ClC(CCl)CCl

> <preferred_name>
1,2,3-Trichloropropane

> <dsstox_substance_id>
DTXSID9021390

> <dsstox_compound_id>
DTXCID401390

> <qc_level>
DSSTox_Low

> <Canonical_QSARr>
ClC(CCl)CCl

> <InChI_Code_QSARr>
InChI=1S/C3H5Cl3/c4-1-3(6)2-5/h3H,1-2H2

> <InChI Key_QSARr>
CFXQEHVMCRXUSD-UHFFFAOYSA-N

> <Salt_Solvent>


> <Salt_Solvent_ID>
0

> <MPID>
102333

> <HL Reference>
LEIGHTON,DTJR & CALO,JM (1981)

> <HL Temperature>
25

> <LogHL>
-3.4647058799572275

> <Tr_1_Tst_0>
1

$$$$
100318
  Mrv171c012241914302D          

  6  5  0  0  0  0            999 V2000
    1.2375   -2.1439    0.0000 C   0  0  0  0  0  0  0  0  0  0  0  0
    1.6500   -1.4295    0.0000 C   0  0  0  0  0  0  0  0  0  0  0  0
    1.2375   -0.7150    0.0000 C   0  0  0  0  0  0  0  0  0  0  0  0
    1.6500   -0.0005    0.0000 C   0  0  0  0  0  0  0  0  0  0  0  0
    1.2375    0.7139    0.0000 C   0  0  0  0  0  0  0  0  0  0  0  0
    0.4125   -0.7150    0.0000 O   0  0  0  0  0  0  0  0  0  0  0  0
  1  2  1  0  0  0  0
  2  3  1  0  0  0  0
  3  4  1  0  0  0  0
  4  5  1  0  0  0  0
  3  6  2  0  0  0  0
M  END
> <ChemID>
100318

> <CAS>
96-22-0

> <Original_SMILES>
CCC(=O)CC

> <preferred_name>
3-Pentanone

> <dsstox_substance_id>
DTXSID6021820

> <dsstox_compound_id>
DTXCID301820

> <qc_level>
DSSTox_Low

> <Canonical_QSARr>
CCC(=O)CC

> <InChI_Code_QSARr>
InChI=1S/C5H10O/c1-3-5(6)4-2/h3-4H2,1-2H3

> <InChI Key_QSARr>
FDPIMTJIUBPUKL-UHFFFAOYSA-N

> <Salt_Solvent>


> <Salt_Solvent_ID>
0

> <MPID>
102334

> <HL Reference>
SANDER,R (1999)

> <HL Temperature>
25

> <LogHL>
-4.301029995663982

> <Tr_1_Tst_0>
1

$$$$
100324
  Mrv171c012241914302D          

  6  6  0  0  0  0            999 V2000
    1.3097   -1.2871    0.0000 O   0  0  0  0  0  0  0  0  0  0  0  0
    0.6423   -0.8022    0.0000 C   0  0  0  0  0  0  0  0  0  0  0  0
    0.6423    0.0228    0.0000 C   0  0  0  0  0  0  0  0  0  0  0  0
   -0.0252   -1.2871    0.0000 C   0  0  0  0  0  0  0  0  0  0  0  0
    0.2298   -2.0718    0.0000 C   0  0  0  0  0  0  0  0  0  0  0  0
    1.0548   -2.0718    0.0000 C   0  0  0  0  0  0  0  0  0  0  0  0
  2  1  1  0  0  0  0
  2  3  1  0  0  0  0
  4  2  1  0  0  0  0
  5  4  1  0  0  0  0
  6  5  1  0  0  0  0
  1  6  1  0  0  0  0
M  END
> <ChemID>
100324

> <CAS>
96-47-9

> <Original_SMILES>
CC1CCCO1

> <preferred_name>
2-Methyltetrahydrofuran

> <dsstox_substance_id>
DTXSID9030258

> <dsstox_compound_id>
DTXCID7010258

> <qc_level>
DSSTox_Low

> <Canonical_QSARr>
CC1CCCO1

> <InChI_Code_QSARr>
InChI=1S/C5H10O/c1-5-3-2-4-6-5/h5H,2-4H2,1H3

> <InChI Key_QSARr>
JWUJQDFVADABEY-UHFFFAOYSA-N

> <Salt_Solvent>


> <Salt_Solvent_ID>
0

> <MPID>
102335

> <HL Reference>
CABANI,S ET AL. (1971A)

> <HL Temperature>
25

> <LogHL>
-4.031517051446065

> <Tr_1_Tst_0>
0

$$$$
100343
  Mrv171c012241914302D          

 11 11  0  0  0  0            999 V2000
    2.1750   -1.9500    0.0000 C   0  0  0  0  0  0  0  0  0  0  0  0
    2.1750   -2.7750    0.0000 C   0  0  0  0  0  0  0  0  0  0  0  0
    3.0000   -1.9500    0.0000 C   0  0  0  0  0  0  0  0  0  0  0  0
    1.3500   -1.9500    0.0000 C   0  0  0  0  0  0  0  0  0  0  0  0
    2.1750   -1.1250    0.0000 C   0  0  0  0  0  0  0  0  0  0  0  0
    2.8895   -0.7125    0.0000 C   0  0  0  0  0  0  0  0  0  0  0  0
    2.8895    0.1125    0.0000 C   0  0  0  0  0  0  0  0  0  0  0  0
    2.1750    0.5250    0.0000 C   0  0  0  0  0  0  0  0  0  0  0  0
    2.1750    1.3500    0.0000 O   0  0  0  0  0  0  0  0  0  0  0  0
    1.4606    0.1125    0.0000 C   0  0  0  0  0  0  0  0  0  0  0  0
    1.4606   -0.7125    0.0000 C   0  0  0  0  0  0  0  0  0  0  0  0
  1  2  1  0  0  0  0
  1  3  1  0  0  0  0
  1  4  1  0  0  0  0
  1  5  1  0  0  0  0
  6  5  1  0  0  0  0
  7  6  2  0  0  0  0
  8  7  1  0  0  0  0
  8  9  1  0  0  0  0
 10  8  2  0  0  0  0
 11 10  1  0  0  0  0
  5 11  2  0  0  0  0
M  END
> <ChemID>
100343

> <CAS>
98-54-4

> <Original_SMILES>
CC(C)(C)c1ccc(O)cc1

> <preferred_name>
4-tert-Butylphenol

> <dsstox_substance_id>
DTXSID1020221

> <dsstox_compound_id>
DTXCID90221

> <qc_level>
DSSTox_Low

> <Canonical_QSARr>
CC(C)(C)C1C=CC(O)=CC=1

> <InChI_Code_QSARr>
InChI=1S/C10H14O/c1-10(2,3)8-4-6-9(11)7-5-8/h4-7,11H,1-3H3

> <InChI Key_QSARr>
QHPQWRBYOIRBIT-UHFFFAOYSA-N

> <Salt_Solvent>


> <Salt_Solvent_ID>
0

> <MPID>
102336

> <HL Reference>
PARSONS,GH ET AL. (1972)

> <HL Temperature>
25

> <LogHL>
-5.924453038607453

> <Tr_1_Tst_0>
1

$$$$
100344
  Mrv171c012241914302D          

 11 11  0  0  0  0            999 V2000
    3.4287   -1.6259    0.0000 C   0  0  0  0  0  0  0  0  0  0  0  0
    3.4287   -2.4509    0.0000 C   0  0  0  0  0  0  0  0  0  0  0  0
    3.4287   -3.2759    0.0000 O   0  0  0  0  0  0  0  0  0  0  0  0
    4.2537   -2.4509    0.0000 C   0  0  0  0  0  0  0  0  0  0  0  0
    2.6037   -2.4509    0.0000 C   0  0  0  0  0  0  0  0  0  0  0  0
    4.1432   -1.2134    0.0000 C   0  0  0  0  0  0  0  0  0  0  0  0
    4.1432   -0.3884    0.0000 C   0  0  0  0  0  0  0  0  0  0  0  0
    3.4287    0.0241    0.0000 C   0  0  0  0  0  0  0  0  0  0  0  0
    3.4287    0.8491    0.0000 C   0  0  0  0  0  0  0  0  0  0  0  0
    2.7143   -0.3884    0.0000 C   0  0  0  0  0  0  0  0  0  0  0  0
    2.7143   -1.2134    0.0000 C   0  0  0  0  0  0  0  0  0  0  0  0
  1  2  1  0  0  0  0
  2  3  1  0  0  0  0
  2  4  1  0  0  0  0
  2  5  1  0  0  0  0
  6  1  1  0  0  0  0
  7  6  1  0  0  0  0
  8  7  1  0  0  0  0
  8  9  1  0  0  0  0
 10  8  2  0  0  0  0
 11 10  1  0  0  0  0
  1 11  1  0  0  0  0
M  END
> <ChemID>
100344

> <CAS>
98-55-5

> <Original_SMILES>
CC1CCC(CC=1)C(C)(C)O

> <preferred_name>
alpha-Terpineol

> <dsstox_substance_id>
DTXSID5026625

> <dsstox_compound_id>
DTXCID406625

> <qc_level>
DSSTox_High

> <Canonical_QSARr>
CC1CCC(CC=1)C(C)(C)O

> <InChI_Code_QSARr>
InChI=1S/C10H18O/c1-8-4-6-9(7-5-8)10(2,3)11/h4,9,11H,5-7H2,1-3H3

> <InChI Key_QSARr>
WUOACPNHFRMFPN-UHFFFAOYSA-N

> <Salt_Solvent>


> <Salt_Solvent_ID>
0

> <MPID>
102337

> <HL Reference>
COPOLOVICI,LO & NIINEMETS,U (2005)

> <HL Temperature>
25

> <LogHL>
-5.651695136951819

> <Tr_1_Tst_0>
1

$$$$
100345
  Mrv171c012241914302D          

  9  9  0  0  0  0            999 V2000
    2.1337   -0.9436    0.0000 C   0  0  0  0  0  0  0  0  0  0  0  0
    1.4193   -0.5311    0.0000 C   0  0  0  0  0  0  0  0  0  0  0  0
    1.4193    0.2939    0.0000 C   0  0  0  0  0  0  0  0  0  0  0  0
    0.7048    0.7064    0.0000 C   0  0  0  0  0  0  0  0  0  0  0  0
    2.1337    0.7064    0.0000 C   0  0  0  0  0  0  0  0  0  0  0  0
    0.7048   -0.9436    0.0000 C   0  0  0  0  0  0  0  0  0  0  0  0
    0.7048   -1.7686    0.0000 C   0  0  0  0  0  0  0  0  0  0  0  0
    1.4193   -2.1811    0.0000 C   0  0  0  0  0  0  0  0  0  0  0  0
    2.1337   -1.7686    0.0000 C   0  0  0  0  0  0  0  0  0  0  0  0
  2  1  1  0  0  0  0
  2  3  1  0  0  0  0
  3  4  1  0  0  0  0
  3  5  1  0  0  0  0
  6  2  2  0  0  0  0
  7  6  1  0  0  0  0
  8  7  2  0  0  0  0
  9  8  1  0  0  0  0
  1  9  2  0  0  0  0
M  END
> <ChemID>
100345

> <CAS>
98-82-8

> <Original_SMILES>
CC(C)c1ccccc1

> <preferred_name>
Cumene

> <dsstox_substance_id>
DTXSID1021827

> <dsstox_compound_id>
DTXCID101827

> <qc_level>
DSSTox_High

> <Canonical_QSARr>
CC(C)C1C=CC=CC=1

> <InChI_Code_QSARr>
InChI=1S/C9H12/c1-8(2)9-6-4-3-5-7-9/h3-8H,1-2H3

> <InChI Key_QSARr>
RWGFKTVRMDUZSP-UHFFFAOYSA-N

> <Salt_Solvent>


> <Salt_Solvent_ID>
0

> <MPID>
102338

> <HL Reference>
SANEMASA,I ET AL. (1982)

> <HL Temperature>
25

> <LogHL>
-1.9393021596463869

> <Tr_1_Tst_0>
1

$$$$
100347
  Mrv171c012241914302D          

  9  9  0  0  0  0            999 V2000
    1.5821   -0.3257    0.0000 C   0  0  0  0  0  0  0  0  0  0  0  0
    1.5821   -1.1507    0.0000 C   0  0  0  0  0  0  0  0  0  0  0  0
    0.8676   -1.5632    0.0000 C   0  0  0  0  0  0  0  0  0  0  0  0
    0.8676   -2.3882    0.0000 C   0  0  0  0  0  0  0  0  0  0  0  0
    1.5821   -2.8007    0.0000 C   0  0  0  0  0  0  0  0  0  0  0  0
    2.2966   -2.3882    0.0000 C   0  0  0  0  0  0  0  0  0  0  0  0
    2.2966   -1.5632    0.0000 C   0  0  0  0  0  0  0  0  0  0  0  0
    0.8676    0.0868    0.0000 O   0  0  0  0  0  0  0  0  0  0  0  0
    2.2966    0.0868    0.0000 C   0  0  0  0  0  0  0  0  0  0  0  0
  1  2  1  0  0  0  0
  3  2  1  0  0  0  0
  4  3  2  0  0  0  0
  5  4  1  0  0  0  0
  6  5  2  0  0  0  0
  7  6  1  0  0  0  0
  2  7  2  0  0  0  0
  1  8  2  0  0  0  0
  1  9  1  0  0  0  0
M  END
> <ChemID>
100347

> <CAS>
98-86-2

> <Original_SMILES>
CC(=O)c1ccccc1

> <preferred_name>
Acetophenone

> <dsstox_substance_id>
DTXSID6021828

> <dsstox_compound_id>
DTXCID501828

> <qc_level>
DSSTox_Low

> <Canonical_QSARr>
CC(=O)C1C=CC=CC=1

> <InChI_Code_QSARr>
InChI=1S/C8H8O/c1-7(9)8-5-3-2-4-6-8/h2-6H,1H3

> <InChI Key_QSARr>
KWOLFJPFCHCOCG-UHFFFAOYSA-N

> <Salt_Solvent>


> <Salt_Solvent_ID>
0

> <MPID>
102339

> <HL Reference>
BETTERTON,EA (1991)

> <HL Temperature>
25

> <LogHL>
-4.982966660701199

> <Tr_1_Tst_0>
1

$$$$
100349
  Mrv171c012241914302D          

  9  9  0  0  0  0            999 V2000
    1.4661   -0.5311    0.0000 C   0  0  0  0  0  0  0  0  0  0  0  0
    1.4661    0.2939    0.0000 N   0  0  0  0  0  0  0  0  0  0  0  0
    2.1806    0.7064    0.0000 C   0  0  0  0  0  0  0  0  0  0  0  0
    0.7517    0.7064    0.0000 C   0  0  0  0  0  0  0  0  0  0  0  0
    0.7517   -0.9436    0.0000 C   0  0  0  0  0  0  0  0  0  0  0  0
    0.7517   -1.7686    0.0000 C   0  0  0  0  0  0  0  0  0  0  0  0
    1.4661   -2.1811    0.0000 C   0  0  0  0  0  0  0  0  0  0  0  0
    2.1806   -1.7686    0.0000 C   0  0  0  0  0  0  0  0  0  0  0  0
    2.1806   -0.9436    0.0000 C   0  0  0  0  0  0  0  0  0  0  0  0
  1  2  1  0  0  0  0
  2  3  1  0  0  0  0
  2  4  1  0  0  0  0
  5  1  1  0  0  0  0
  6  5  1  0  0  0  0
  7  6  1  0  0  0  0
  8  7  1  0  0  0  0
  9  8  1  0  0  0  0
  1  9  1  0  0  0  0
M  END
> <ChemID>
100349

> <CAS>
98-94-2

> <Original_SMILES>
CN(C)C1CCCCC1

> <preferred_name>
N,N-Dimethylcyclohexylamine

> <dsstox_substance_id>
DTXSID9026633

> <dsstox_compound_id>
DTXCID906633

> <qc_level>
DSSTox_Low

> <Canonical_QSARr>
CN(C)C1CCCCC1

> <InChI_Code_QSARr>
InChI=1S/C8H17N/c1-9(2)8-6-4-3-5-7-8/h8H,3-7H2,1-2H3

> <InChI Key_QSARr>
SVYKKECYCPFKGB-UHFFFAOYSA-N

> <Salt_Solvent>


> <Salt_Solvent_ID>
0

> <MPID>
102340

> <HL Reference>
ALTSCHUH,J ET AL. (1999)

> <HL Temperature>
25

> <LogHL>
-4.62893213772828

> <Tr_1_Tst_0>
1

$$$$
100350
  Mrv171c012241914302D          

  9  9  0  0  0  0            999 V2000
    2.1337    0.7064    0.0000 O   0  0  0  0  0  0  0  0  0  0  0  0
    1.4193    0.2939    0.0000 N   0  3  0  0  0  0  0  0  0  0  0  0
    0.7048    0.7064    0.0000 O   0  5  0  0  0  0  0  0  0  0  0  0
    1.4193   -0.5311    0.0000 C   0  0  0  0  0  0  0  0  0  0  0  0
    0.7048   -0.9436    0.0000 C   0  0  0  0  0  0  0  0  0  0  0  0
    0.7048   -1.7686    0.0000 C   0  0  0  0  0  0  0  0  0  0  0  0
    1.4193   -2.1811    0.0000 C   0  0  0  0  0  0  0  0  0  0  0  0
    2.1337   -1.7686    0.0000 C   0  0  0  0  0  0  0  0  0  0  0  0
    2.1337   -0.9436    0.0000 C   0  0  0  0  0  0  0  0  0  0  0  0
  1  2  2  0  0  0  0
  2  3  1  0  0  0  0
  2  4  1  0  0  0  0
  5  4  1  0  0  0  0
  6  5  2  0  0  0  0
  7  6  1  0  0  0  0
  8  7  2  0  0  0  0
  9  8  1  0  0  0  0
  4  9  2  0  0  0  0
M  CHG  2   2   1   3  -1
M  END
> <ChemID>
100350

> <CAS>
98-95-3

> <Original_SMILES>
[O-][N+](=O)c1ccccc1

> <preferred_name>
Nitrobenzene

> <dsstox_substance_id>
DTXSID3020964

> <dsstox_compound_id>
DTXCID30964

> <qc_level>
DSSTox_Low

> <Canonical_QSARr>
[O-][N+](=O)C1C=CC=CC=1

> <InChI_Code_QSARr>
InChI=1S/C6H5NO2/c8-7(9)6-4-2-1-3-5-6/h1-5H

> <InChI Key_QSARr>
LQNUZADURLCDLV-UHFFFAOYSA-N

> <Salt_Solvent>


> <Salt_Solvent_ID>
0

> <MPID>
102341

> <HL Reference>
WARNER,HP ET AL. (1987)

> <HL Temperature>
25

> <LogHL>
-4.619788758288381

> <Tr_1_Tst_0>
0

$$$$
100351
  Mrv171c012241914302D          

 10 10  0  0  0  0            999 V2000
    0.0338   -2.6052    0.0000 C   0  0  0  0  0  0  0  0  0  0  0  0
    0.7483   -2.1927    0.0000 C   0  0  0  0  0  0  0  0  0  0  0  0
    1.4628   -2.6052    0.0000 C   0  0  0  0  0  0  0  0  0  0  0  0
    2.1772   -2.1927    0.0000 C   0  0  0  0  0  0  0  0  0  0  0  0
    2.1772   -1.3677    0.0000 C   0  0  0  0  0  0  0  0  0  0  0  0
    1.4628   -0.9552    0.0000 C   0  0  0  0  0  0  0  0  0  0  0  0
    1.4628   -0.1302    0.0000 N   0  3  0  0  0  0  0  0  0  0  0  0
    0.7483    0.2823    0.0000 O   0  5  0  0  0  0  0  0  0  0  0  0
    2.1772    0.2823    0.0000 O   0  0  0  0  0  0  0  0  0  0  0  0
    0.7483   -1.3677    0.0000 C   0  0  0  0  0  0  0  0  0  0  0  0
  1  2  1  0  0  0  0
  3  2  1  0  0  0  0
  4  3  2  0  0  0  0
  5  4  1  0  0  0  0
  6  5  2  0  0  0  0
  6  7  1  0  0  0  0
  7  8  1  0  0  0  0
  7  9  2  0  0  0  0
 10  6  1  0  0  0  0
  2 10  2  0  0  0  0
M  CHG  2   7   1   8  -1
M  END
> <ChemID>
100351

> <CAS>
99-08-1

> <Original_SMILES>
Cc1cc(ccc1)[N+]([O-])=O

> <preferred_name>
3-Nitrotoluene

> <dsstox_substance_id>
DTXSID5021831

> <dsstox_compound_id>
DTXCID001831

> <qc_level>
DSSTox_Low

> <Canonical_QSARr>
CC1=CC(=CC=C1)[N+]([O-])=O

> <InChI_Code_QSARr>
InChI=1S/C7H7NO2/c1-6-3-2-4-7(5-6)8(9)10/h2-5H,1H3

> <InChI Key_QSARr>
QZYHIOPPLUPUJF-UHFFFAOYSA-N

> <Salt_Solvent>


> <Salt_Solvent_ID>
0

> <MPID>
102342

> <HL Reference>
ALTSCHUH,J ET AL. (1999)

> <HL Temperature>
25

> <LogHL>
-5.03151705144608

> <Tr_1_Tst_0>
1

$$$$
100352
  Mrv171c012241914302D          

 10 10  0  0  0  0            999 V2000
    2.2482   -1.9860    0.0000 N   0  3  0  0  0  0  0  0  0  0  0  0
    1.5337   -1.5735    0.0000 C   0  0  0  0  0  0  0  0  0  0  0  0
    1.5337   -0.7485    0.0000 C   0  0  0  0  0  0  0  0  0  0  0  0
    0.8192   -0.3360    0.0000 C   0  0  0  0  0  0  0  0  0  0  0  0
    0.8192    0.4890    0.0000 N   0  0  0  0  0  0  0  0  0  0  0  0
    0.1048   -0.7485    0.0000 C   0  0  0  0  0  0  0  0  0  0  0  0
    0.1048   -1.5735    0.0000 C   0  0  0  0  0  0  0  0  0  0  0  0
    0.8192   -1.9860    0.0000 C   0  0  0  0  0  0  0  0  0  0  0  0
    2.9627   -1.5735    0.0000 O   0  5  0  0  0  0  0  0  0  0  0  0
    2.2482   -2.8110    0.0000 O   0  0  0  0  0  0  0  0  0  0  0  0
  1  2  1  0  0  0  0
  3  2  1  0  0  0  0
  4  3  2  0  0  0  0
  4  5  1  0  0  0  0
  6  4  1  0  0  0  0
  7  6  2  0  0  0  0
  8  7  1  0  0  0  0
  2  8  2  0  0  0  0
  1  9  1  0  0  0  0
  1 10  2  0  0  0  0
M  CHG  2   1   1   9  -1
M  END
> <ChemID>
100352

> <CAS>
99-09-2

> <Original_SMILES>
Nc1cc(ccc1)[N+]([O-])=O

> <preferred_name>
3-Nitroaniline

> <dsstox_substance_id>
DTXSID6025725

> <dsstox_compound_id>
DTXCID505725

> <qc_level>
DSSTox_High

> <Canonical_QSARr>
NC1=CC(=CC=C1)[N+]([O-])=O

> <InChI_Code_QSARr>
InChI=1S/C6H6N2O2/c7-5-2-1-3-6(4-5)8(9)10/h1-4H,7H2

> <InChI Key_QSARr>
XJCVRTZCHMZPBD-UHFFFAOYSA-N

> <Salt_Solvent>


> <Salt_Solvent_ID>
0

> <MPID>
102343

> <HL Reference>
ABRAHAM,MH ET AL. (1994)

> <HL Temperature>
25

> <LogHL>
-8.1018235165023

> <Tr_1_Tst_0>
1

$$$$
100355
  Mrv171c012241914302D          

 11 11  0  0  0  0            999 V2000
    3.0507   -2.0835    0.0000 N   0  3  0  0  0  0  0  0  0  0  0  0
    2.3362   -1.6710    0.0000 C   0  0  0  0  0  0  0  0  0  0  0  0
    2.3362   -0.8460    0.0000 C   0  0  0  0  0  0  0  0  0  0  0  0
    1.6217   -0.4335    0.0000 C   0  0  0  0  0  0  0  0  0  0  0  0
    1.6217    0.3915    0.0000 Cl  0  0  0  0  0  0  0  0  0  0  0  0
    0.9073   -0.8460    0.0000 C   0  0  0  0  0  0  0  0  0  0  0  0
    0.1928   -0.4335    0.0000 Cl  0  0  0  0  0  0  0  0  0  0  0  0
    0.9073   -1.6710    0.0000 C   0  0  0  0  0  0  0  0  0  0  0  0
    1.6217   -2.0835    0.0000 C   0  0  0  0  0  0  0  0  0  0  0  0
    3.7651   -1.6710    0.0000 O   0  5  0  0  0  0  0  0  0  0  0  0
    3.0507   -2.9085    0.0000 O   0  0  0  0  0  0  0  0  0  0  0  0
  1  2  1  0  0  0  0
  3  2  1  0  0  0  0
  4  3  2  0  0  0  0
  4  5  1  0  0  0  0
  6  4  1  0  0  0  0
  6  7  1  0  0  0  0
  8  6  2  0  0  0  0
  9  8  1  0  0  0  0
  2  9  2  0  0  0  0
  1 10  1  0  0  0  0
  1 11  2  0  0  0  0
M  CHG  2   1   1  10  -1
M  END
> <ChemID>
100355

> <CAS>
99-54-7

> <Original_SMILES>
[O-][N+](=O)c1cc(Cl)c(Cl)cc1

> <preferred_name>
3,4-Dichloronitrobenzene

> <dsstox_substance_id>
DTXSID8024999

> <dsstox_compound_id>
DTXCID504999

> <qc_level>
DSSTox_Low

> <Canonical_QSARr>
[O-][N+](=O)C1C=C(Cl)C(Cl)=CC=1

> <InChI_Code_QSARr>
InChI=1S/C6H3Cl2NO2/c7-5-2-1-4(9(10)11)3-6(5)8/h1-3H

> <InChI Key_QSARr>
NTBYINQTYWZXLH-UHFFFAOYSA-N

> <Salt_Solvent>


> <Salt_Solvent_ID>
0

> <MPID>
102344

> <HL Reference>
ALTSCHUH,J ET AL. (1999)

> <HL Temperature>
25

> <LogHL>
-5.093126465277922

> <Tr_1_Tst_0>
1

$$$$
100356
  Mrv171c012241914302D          

 12 12  0  0  0  0            999 V2000
    2.1162   -2.3778    0.0000 C   0  0  0  0  0  0  0  0  0  0  0  0
    2.8307   -2.7903    0.0000 N   0  3  0  0  0  0  0  0  0  0  0  0
    2.8307   -3.6153    0.0000 O   0  0  0  0  0  0  0  0  0  0  0  0
    3.5452   -2.3778    0.0000 O   0  5  0  0  0  0  0  0  0  0  0  0
    2.1162   -1.5528    0.0000 C   0  0  0  0  0  0  0  0  0  0  0  0
    1.4018   -1.1403    0.0000 C   0  0  0  0  0  0  0  0  0  0  0  0
    1.4018   -0.3153    0.0000 N   0  3  0  0  0  0  0  0  0  0  0  0
    0.6873    0.0972    0.0000 O   0  0  0  0  0  0  0  0  0  0  0  0
    2.1162    0.0972    0.0000 O   0  5  0  0  0  0  0  0  0  0  0  0
    0.6873   -1.5528    0.0000 C   0  0  0  0  0  0  0  0  0  0  0  0
    0.6873   -2.3778    0.0000 C   0  0  0  0  0  0  0  0  0  0  0  0
    1.4018   -2.7903    0.0000 C   0  0  0  0  0  0  0  0  0  0  0  0
  1  2  1  0  0  0  0
  2  3  2  0  0  0  0
  2  4  1  0  0  0  0
  5  1  1  0  0  0  0
  6  5  2  0  0  0  0
  6  7  1  0  0  0  0
  7  8  2  0  0  0  0
  7  9  1  0  0  0  0
 10  6  1  0  0  0  0
 11 10  2  0  0  0  0
 12 11  1  0  0  0  0
  1 12  2  0  0  0  0
M  CHG  4   2   1   4  -1   7   1   9  -1
M  END
> <ChemID>
100356

> <CAS>
99-65-0

> <Original_SMILES>
[O-][N+](=O)c1cc(ccc1)[N+]([O-])=O

> <preferred_name>
1,3-Dinitrobenzene

> <dsstox_substance_id>
DTXSID9024065

> <dsstox_compound_id>
DTXCID204065

> <qc_level>
DSSTox_Low

> <Canonical_QSARr>
[O-][N+](=O)C1C=C(C=CC=1)[N+]([O-])=O

> <InChI_Code_QSARr>
InChI=1S/C6H4N2O4/c9-7(10)5-2-1-3-6(4-5)8(11)12/h1-4H

> <InChI Key_QSARr>
WDCYWAQPCXBPJA-UHFFFAOYSA-N

> <Salt_Solvent>


> <Salt_Solvent_ID>
0

> <MPID>
102345

> <HL Reference>
ALTSCHUH,J ET AL. (1999)

> <HL Temperature>
25

> <LogHL>
-7.309803919971493

> <Tr_1_Tst_0>
1

$$$$
100358
  Mrv171c012241914302D          

 10 10  0  0  0  0            999 V2000
    1.6622   -1.1277    0.0000 C   0  0  0  0  0  0  0  0  0  0  0  0
    1.6622   -1.9527    0.0000 C   0  0  0  0  0  0  0  0  0  0  0  0
    0.9477   -2.3652    0.0000 C   0  0  0  0  0  0  0  0  0  0  0  0
    2.3767   -2.3652    0.0000 C   0  0  0  0  0  0  0  0  0  0  0  0
    2.3767   -0.7152    0.0000 C   0  0  0  0  0  0  0  0  0  0  0  0
    2.3767    0.1098    0.0000 C   0  0  0  0  0  0  0  0  0  0  0  0
    1.6622    0.5223    0.0000 C   0  0  0  0  0  0  0  0  0  0  0  0
    1.6622    1.3473    0.0000 C   0  0  0  0  0  0  0  0  0  0  0  0
    0.9477    0.1098    0.0000 C   0  0  0  0  0  0  0  0  0  0  0  0
    0.9477   -0.7152    0.0000 C   0  0  0  0  0  0  0  0  0  0  0  0
  1  2  1  0  0  0  0
  2  3  1  0  0  0  0
  2  4  1  0  0  0  0
  5  1  1  0  0  0  0
  6  5  1  0  0  0  0
  7  6  2  0  0  0  0
  7  8  1  0  0  0  0
  9  7  1  0  0  0  0
 10  9  1  0  0  0  0
  1 10  2  0  0  0  0
M  END
> <ChemID>
100358

> <CAS>
99-85-4

> <Original_SMILES>
CC1CC=C(CC=1)C(C)C

> <preferred_name>
gamma-Terpinene

> <dsstox_substance_id>
DTXSID6041210

> <dsstox_compound_id>
DTXCID4021210

> <qc_level>
DSSTox_Low

> <Canonical_QSARr>
CC1CC=C(CC=1)C(C)C

> <InChI_Code_QSARr>
InChI=1S/C10H16/c1-8(2)10-6-4-9(3)5-7-10/h4,7-8H,5-6H2,1-3H3

> <InChI Key_QSARr>
YKFLAYDHMOASIY-UHFFFAOYSA-N

> <Salt_Solvent>


> <Salt_Solvent_ID>
0

> <MPID>
102346

> <HL Reference>
COPOLOVICI,LO & NIINEMETS,U (2005)

> <HL Temperature>
25

> <LogHL>
-1.5883802940367717

> <Tr_1_Tst_0>
0

$$$$
100362
  Mrv171c012241914302D          

 10 10  0  0  0  0            999 V2000
    2.7572   -0.8138    0.0000 C   0  0  0  0  0  0  0  0  0  0  0  0
    2.0427   -0.4013    0.0000 C   0  0  0  0  0  0  0  0  0  0  0  0
    2.0427    0.4237    0.0000 N   0  3  0  0  0  0  0  0  0  0  0  0
    1.3283    0.8362    0.0000 O   0  5  0  0  0  0  0  0  0  0  0  0
    2.7572    0.8362    0.0000 O   0  0  0  0  0  0  0  0  0  0  0  0
    1.3283   -0.8138    0.0000 C   0  0  0  0  0  0  0  0  0  0  0  0
    1.3283   -1.6388    0.0000 C   0  0  0  0  0  0  0  0  0  0  0  0
    2.0427   -2.0513    0.0000 C   0  0  0  0  0  0  0  0  0  0  0  0
    2.0427   -2.8763    0.0000 C   0  0  0  0  0  0  0  0  0  0  0  0
    2.7572   -1.6388    0.0000 C   0  0  0  0  0  0  0  0  0  0  0  0
  2  1  1  0  0  0  0
  2  3  1  0  0  0  0
  3  4  1  0  0  0  0
  3  5  2  0  0  0  0
  6  2  2  0  0  0  0
  7  6  1  0  0  0  0
  8  7  2  0  0  0  0
  8  9  1  0  0  0  0
 10  8  1  0  0  0  0
  1 10  2  0  0  0  0
M  CHG  2   3   1   4  -1
M  END
> <ChemID>
100362

> <CAS>
99-99-0

> <Original_SMILES>
Cc1ccc(cc1)[N+]([O-])=O

> <preferred_name>
4-Nitrotoluene

> <dsstox_substance_id>
DTXSID5023792

> <dsstox_compound_id>
DTXCID203792

> <qc_level>
DSSTox_Low

> <Canonical_QSARr>
CC1=CC=C(C=C1)[N+]([O-])=O

> <InChI_Code_QSARr>
InChI=1S/C7H7NO2/c1-6-2-4-7(5-3-6)8(9)10/h2-5H,1H3

> <InChI Key_QSARr>
ZPTVNYMJQHSSEA-UHFFFAOYSA-N

> <Salt_Solvent>


> <Salt_Solvent_ID>
0

> <MPID>
102347

> <HL Reference>
ALTSCHUH,J ET AL. (1999)

> <HL Temperature>
25

> <LogHL>
-5.2494916051486635

> <Tr_1_Tst_0>
0

$$$$
100363
  Mrv171c012241914302D          

 10 10  0  0  0  0            999 V2000
    0.9322   -2.3640    0.0000 O   0  0  0  0  0  0  0  0  0  0  0  0
    1.6467   -1.9515    0.0000 N   0  3  0  0  0  0  0  0  0  0  0  0
    2.3611   -2.3640    0.0000 O   0  5  0  0  0  0  0  0  0  0  0  0
    1.6467   -1.1265    0.0000 C   0  0  0  0  0  0  0  0  0  0  0  0
    2.3611   -0.7140    0.0000 C   0  0  0  0  0  0  0  0  0  0  0  0
    2.3611    0.1110    0.0000 C   0  0  0  0  0  0  0  0  0  0  0  0
    1.6467    0.5235    0.0000 C   0  0  0  0  0  0  0  0  0  0  0  0
    1.6467    1.3485    0.0000 Cl  0  0  0  0  0  0  0  0  0  0  0  0
    0.9322    0.1110    0.0000 C   0  0  0  0  0  0  0  0  0  0  0  0
    0.9322   -0.7140    0.0000 C   0  0  0  0  0  0  0  0  0  0  0  0
  1  2  2  0  0  0  0
  2  3  1  0  0  0  0
  2  4  1  0  0  0  0
  5  4  1  0  0  0  0
  6  5  2  0  0  0  0
  7  6  1  0  0  0  0
  7  8  1  0  0  0  0
  9  7  2  0  0  0  0
 10  9  1  0  0  0  0
  4 10  2  0  0  0  0
M  CHG  2   2   1   3  -1
M  END
> <ChemID>
100363

> <CAS>
100-00-5

> <Original_SMILES>
[O-][N+](=O)c1ccc(Cl)cc1

> <preferred_name>
1-Chloro-4-nitrobenzene

> <dsstox_substance_id>
DTXSID5020281

> <dsstox_compound_id>
DTXCID10281

> <qc_level>
DSSTox_Low

> <Canonical_QSARr>
[O-][N+](=O)C1C=CC(Cl)=CC=1

> <InChI_Code_QSARr>
InChI=1S/C6H4ClNO2/c7-5-1-3-6(4-2-5)8(9)10/h1-4H

> <InChI Key_QSARr>
CZGCEKJOLUNIFY-UHFFFAOYSA-N

> <Salt_Solvent>


> <Salt_Solvent_ID>
0

> <MPID>
102348

> <HL Reference>
ALTSCHUH,J ET AL. (1999)

> <HL Temperature>
25

> <LogHL>
-5.310691140876382

> <Tr_1_Tst_0>
1

$$$$
100364
  Mrv171c012241914302D          

 10 10  0  0  0  0            999 V2000
    0.9322   -2.3640    0.0000 O   0  0  0  0  0  0  0  0  0  0  0  0
    1.6467   -1.9515    0.0000 N   0  3  0  0  0  0  0  0  0  0  0  0
    2.3611   -2.3640    0.0000 O   0  5  0  0  0  0  0  0  0  0  0  0
    1.6467   -1.1265    0.0000 C   0  0  0  0  0  0  0  0  0  0  0  0
    2.3611   -0.7140    0.0000 C   0  0  0  0  0  0  0  0  0  0  0  0
    2.3611    0.1110    0.0000 C   0  0  0  0  0  0  0  0  0  0  0  0
    1.6467    0.5235    0.0000 C   0  0  0  0  0  0  0  0  0  0  0  0
    1.6467    1.3485    0.0000 N   0  0  0  0  0  0  0  0  0  0  0  0
    0.9322    0.1110    0.0000 C   0  0  0  0  0  0  0  0  0  0  0  0
    0.9322   -0.7140    0.0000 C   0  0  0  0  0  0  0  0  0  0  0  0
  1  2  2  0  0  0  0
  2  3  1  0  0  0  0
  2  4  1  0  0  0  0
  5  4  1  0  0  0  0
  6  5  2  0  0  0  0
  7  6  1  0  0  0  0
  7  8  1  0  0  0  0
  9  7  2  0  0  0  0
 10  9  1  0  0  0  0
  4 10  2  0  0  0  0
M  CHG  2   2   1   3  -1
M  END
> <ChemID>
100364

> <CAS>
100-01-6

> <Original_SMILES>
Nc1ccc(cc1)[N+]([O-])=O

> <preferred_name>
4-Nitroaniline

> <dsstox_substance_id>
DTXSID8020961

> <dsstox_compound_id>
DTXCID40961

> <qc_level>
DSSTox_Low

> <Canonical_QSARr>
NC1=CC=C(C=C1)[N+]([O-])=O

> <InChI_Code_QSARr>
InChI=1S/C6H6N2O2/c7-5-1-3-6(4-2-5)8(9)10/h1-4H,7H2

> <InChI Key_QSARr>
TYMLOMAKGOJONV-UHFFFAOYSA-N

> <Salt_Solvent>


> <Salt_Solvent_ID>
0

> <MPID>
102349

> <HL Reference>
ALTSCHUH,J ET AL. (1999)

> <HL Temperature>
25

> <LogHL>
-8.899629454882424

> <Tr_1_Tst_0>
1

$$$$
100365
  Mrv171c012241914302D          

 10 10  0  0  0  0            999 V2000
    1.6467   -2.7765    0.0000 O   0  0  0  0  0  0  0  0  0  0  0  0
    1.6467   -1.9515    0.0000 C   0  0  0  0  0  0  0  0  0  0  0  0
    2.3611   -1.5390    0.0000 C   0  0  0  0  0  0  0  0  0  0  0  0
    2.3611   -0.7140    0.0000 C   0  0  0  0  0  0  0  0  0  0  0  0
    1.6467   -0.3015    0.0000 C   0  0  0  0  0  0  0  0  0  0  0  0
    1.6467    0.5235    0.0000 N   0  3  0  0  0  0  0  0  0  0  0  0
    0.9322    0.9360    0.0000 O   0  5  0  0  0  0  0  0  0  0  0  0
    2.3611    0.9360    0.0000 O   0  0  0  0  0  0  0  0  0  0  0  0
    0.9322   -0.7140    0.0000 C   0  0  0  0  0  0  0  0  0  0  0  0
    0.9322   -1.5390    0.0000 C   0  0  0  0  0  0  0  0  0  0  0  0
  1  2  1  0  0  0  0
  3  2  1  0  0  0  0
  4  3  2  0  0  0  0
  5  4  1  0  0  0  0
  5  6  1  0  0  0  0
  6  7  1  0  0  0  0
  6  8  2  0  0  0  0
  9  5  2  0  0  0  0
 10  9  1  0  0  0  0
  2 10  2  0  0  0  0
M  CHG  2   6   1   7  -1
M  END
> <ChemID>
100365

> <CAS>
100-02-7

> <Original_SMILES>
[O-][N+](=O)c1ccc(O)cc1

> <preferred_name>
4-Nitrophenol

> <dsstox_substance_id>
DTXSID0021834

> <dsstox_compound_id>
DTXCID201834

> <qc_level>
DSSTox_Low

> <Canonical_QSARr>
[O-][N+](=O)C1C=CC(O)=CC=1

> <InChI_Code_QSARr>
InChI=1S/C6H5NO3/c8-6-3-1-5(2-4-6)7(9)10/h1-4,8H

> <InChI Key_QSARr>
BTJIUGUIPKRLHP-UHFFFAOYSA-N

> <Salt_Solvent>


> <Salt_Solvent_ID>
0

> <MPID>
102350

> <HL Reference>
PARSONS,GH ET AL. (1971)

> <HL Temperature>
25

> <LogHL>
-9.381951903287929

> <Tr_1_Tst_0>
1

$$$$
100367
  Mrv171c012241914302D          

  8  8  0  0  0  0            999 V2000
    2.2218    0.9732    0.0000 C   0  0  0  0  0  0  0  0  0  0  0  0
    1.5073    0.5607    0.0000 C   0  0  0  0  0  0  0  0  0  0  0  0
    1.5073   -0.2643    0.0000 C   0  0  0  0  0  0  0  0  0  0  0  0
    0.7928   -0.6768    0.0000 C   0  0  0  0  0  0  0  0  0  0  0  0
    0.7928   -1.5018    0.0000 C   0  0  0  0  0  0  0  0  0  0  0  0
    1.5073   -1.9143    0.0000 C   0  0  0  0  0  0  0  0  0  0  0  0
    2.2218   -1.5018    0.0000 C   0  0  0  0  0  0  0  0  0  0  0  0
    2.2218   -0.6768    0.0000 C   0  0  0  0  0  0  0  0  0  0  0  0
  1  2  1  0  0  0  0
  2  3  1  0  0  0  0
  4  3  1  0  0  0  0
  5  4  2  0  0  0  0
  6  5  1  0  0  0  0
  7  6  2  0  0  0  0
  8  7  1  0  0  0  0
  3  8  2  0  0  0  0
M  END
> <ChemID>
100367

> <CAS>
100-41-4

> <Original_SMILES>
CCc1ccccc1

> <preferred_name>
Ethylbenzene

> <dsstox_substance_id>
DTXSID3020596

> <dsstox_compound_id>
DTXCID10596

> <qc_level>
DSSTox_High

> <Canonical_QSARr>
CCC1C=CC=CC=1

> <InChI_Code_QSARr>
InChI=1S/C8H10/c1-2-8-6-4-3-5-7-8/h3-7H,2H2,1H3

> <InChI Key_QSARr>
YNQLUTRBYVCPMQ-UHFFFAOYSA-N

> <Salt_Solvent>


> <Salt_Solvent_ID>
0

> <MPID>
102351

> <HL Reference>
SANEMASA,I ET AL. (1982)

> <HL Temperature>
25

> <LogHL>
-2.103473782510445

> <Tr_1_Tst_0>
1

$$$$
100368
  Mrv171c012241914302D          

  8  8  0  0  0  0            999 V2000
    3.1082    0.5344    0.0000 C   0  0  0  0  0  0  0  0  0  0  0  0
    2.3938    0.1219    0.0000 C   0  0  0  0  0  0  0  0  0  0  0  0
    2.3938   -0.7031    0.0000 C   0  0  0  0  0  0  0  0  0  0  0  0
    1.6793   -1.1156    0.0000 C   0  0  0  0  0  0  0  0  0  0  0  0
    1.6793   -1.9406    0.0000 C   0  0  0  0  0  0  0  0  0  0  0  0
    2.3938   -2.3531    0.0000 C   0  0  0  0  0  0  0  0  0  0  0  0
    3.1082   -1.9406    0.0000 C   0  0  0  0  0  0  0  0  0  0  0  0
    3.1082   -1.1156    0.0000 C   0  0  0  0  0  0  0  0  0  0  0  0
  1  2  2  0  0  0  0
  2  3  1  0  0  0  0
  4  3  1  0  0  0  0
  5  4  2  0  0  0  0
  6  5  1  0  0  0  0
  7  6  2  0  0  0  0
  8  7  1  0  0  0  0
  3  8  2  0  0  0  0
M  END
> <ChemID>
100368

> <CAS>
100-42-5

> <Original_SMILES>
C=Cc1ccccc1

> <preferred_name>
Styrene

> <dsstox_substance_id>
DTXSID2021284

> <dsstox_compound_id>
DTXCID501284

> <qc_level>
DSSTox_High

> <Canonical_QSARr>
C=CC1C=CC=CC=1

> <InChI_Code_QSARr>
InChI=1S/C8H8/c1-2-8-6-4-3-5-7-8/h2-7H,1H2

> <InChI Key_QSARr>
PPBRXRYQALVLMV-UHFFFAOYSA-N

> <Salt_Solvent>


> <Salt_Solvent_ID>
0

> <MPID>
102352

> <HL Reference>
BOCEK,K (1976)

> <HL Temperature>
25

> <LogHL>
-2.560667306169738

> <Tr_1_Tst_0>
1

$$$$
100372
  Mrv171c012241914302D          

  8  8  0  0  0  0            999 V2000
    1.2886   -2.1443    0.0000 N   0  0  0  0  0  0  0  0  0  0  0  0
    2.0031   -1.7318    0.0000 C   0  0  0  0  0  0  0  0  0  0  0  0
    2.0031   -0.9068    0.0000 C   0  0  0  0  0  0  0  0  0  0  0  0
    1.2886   -0.4943    0.0000 C   0  0  0  0  0  0  0  0  0  0  0  0
    1.2886    0.3307    0.0000 C   0  0  0  0  0  0  0  0  0  0  0  0
    1.2886    1.1557    0.0000 N   0  0  0  0  0  0  0  0  0  0  0  0
    0.5742   -0.9068    0.0000 C   0  0  0  0  0  0  0  0  0  0  0  0
    0.5742   -1.7318    0.0000 C   0  0  0  0  0  0  0  0  0  0  0  0
  2  1  1  0  0  0  0
  3  2  2  0  0  0  0
  4  3  1  0  0  0  0
  4  5  1  0  0  0  0
  5  6  3  0  0  0  0
  7  4  2  0  0  0  0
  8  7  1  0  0  0  0
  1  8  2  0  0  0  0
M  END
> <ChemID>
100372

> <CAS>
100-48-1

> <Original_SMILES>
N#Cc1cc[n]cc1

> <preferred_name>
4-Pyridinecarbonitrile

> <dsstox_substance_id>
DTXSID9041528

> <dsstox_compound_id>
DTXCID7021528

> <qc_level>
DSSTox_Low

> <Canonical_QSARr>
N#CC1C=CN=CC=1

> <InChI_Code_QSARr>
InChI=1S/C6H4N2/c7-5-6-1-3-8-4-2-6/h1-4H

> <InChI Key_QSARr>
GPHQHTOMRSGBNZ-UHFFFAOYSA-N

> <Salt_Solvent>


> <Salt_Solvent_ID>
0

> <MPID>
102353

> <HL Reference>
ABRAHAM,MH ET AL. (1994)

> <HL Temperature>
25

> <LogHL>
-6.031984286006369

> <Tr_1_Tst_0>
1

$$$$
100373
  Mrv171c012241914302D          

  8  8  0  0  0  0            999 V2000
    2.2218    0.9732    0.0000 O   0  0  0  0  0  0  0  0  0  0  0  0
    1.5073    0.5607    0.0000 C   0  0  0  0  0  0  0  0  0  0  0  0
    1.5073   -0.2643    0.0000 C   0  0  0  0  0  0  0  0  0  0  0  0
    0.7928   -0.6768    0.0000 C   0  0  0  0  0  0  0  0  0  0  0  0
    0.7928   -1.5018    0.0000 C   0  0  0  0  0  0  0  0  0  0  0  0
    1.5073   -1.9143    0.0000 C   0  0  0  0  0  0  0  0  0  0  0  0
    2.2218   -1.5018    0.0000 C   0  0  0  0  0  0  0  0  0  0  0  0
    2.2218   -0.6768    0.0000 C   0  0  0  0  0  0  0  0  0  0  0  0
  1  2  1  0  0  0  0
  2  3  1  0  0  0  0
  4  3  1  0  0  0  0
  5  4  2  0  0  0  0
  6  5  1  0  0  0  0
  7  6  2  0  0  0  0
  8  7  1  0  0  0  0
  3  8  2  0  0  0  0
M  END
> <ChemID>
100373

> <CAS>
100-51-6

> <Original_SMILES>
OCc1ccccc1

> <preferred_name>
Benzyl alcohol

> <dsstox_substance_id>
DTXSID5020152

> <dsstox_compound_id>
DTXCID70152

> <qc_level>
DSSTox_Low

> <Canonical_QSARr>
OCC1C=CC=CC=1

> <InChI_Code_QSARr>
InChI=1S/C7H8O/c8-6-7-4-2-1-3-5-7/h1-5,8H,6H2

> <InChI Key_QSARr>
WVDDGKGOMKODPV-UHFFFAOYSA-N

> <Salt_Solvent>


> <Salt_Solvent_ID>
0

> <MPID>
102354

> <HL Reference>
ABRAHAM,MH ET AL. (1994)

> <HL Temperature>
25

> <LogHL>
-6.472370099128639

> <Tr_1_Tst_0>
1

$$$$
100374
  Mrv171c012241914302D          

  8  8  0  0  0  0            999 V2000
    2.2218    0.9732    0.0000 O   0  0  0  0  0  0  0  0  0  0  0  0
    1.5073    0.5607    0.0000 C   0  0  0  0  0  0  0  0  0  0  0  0
    1.5073   -0.2643    0.0000 C   0  0  0  0  0  0  0  0  0  0  0  0
    0.7928   -0.6768    0.0000 C   0  0  0  0  0  0  0  0  0  0  0  0
    0.7928   -1.5018    0.0000 C   0  0  0  0  0  0  0  0  0  0  0  0
    1.5073   -1.9143    0.0000 C   0  0  0  0  0  0  0  0  0  0  0  0
    2.2218   -1.5018    0.0000 C   0  0  0  0  0  0  0  0  0  0  0  0
    2.2218   -0.6768    0.0000 C   0  0  0  0  0  0  0  0  0  0  0  0
  1  2  2  0  0  0  0
  2  3  1  0  0  0  0
  4  3  1  0  0  0  0
  5  4  2  0  0  0  0
  6  5  1  0  0  0  0
  7  6  2  0  0  0  0
  8  7  1  0  0  0  0
  3  8  2  0  0  0  0
M  END
> <ChemID>
100374

> <CAS>
100-52-7

> <Original_SMILES>
O=Cc1ccccc1

> <preferred_name>
Benzaldehyde

> <dsstox_substance_id>
DTXSID8039241

> <dsstox_compound_id>
DTXCID90134

> <qc_level>
DSSTox_Low

> <Canonical_QSARr>
O=CC1C=CC=CC=1

> <InChI_Code_QSARr>
InChI=1S/C7H6O/c8-6-7-4-2-1-3-5-7/h1-6H

> <InChI Key_QSARr>
HUMNYLRZRPPJDN-UHFFFAOYSA-N

> <Salt_Solvent>


> <Salt_Solvent_ID>
0

> <MPID>
102355

> <HL Reference>
BETTERTON,EA & HOFFMAN,MR (1988)

> <HL Temperature>
25

> <LogHL>
-4.5734887386354375

> <Tr_1_Tst_0>
0

$$$$
100375
  Mrv171c012241914302D          

  8  8  0  0  0  0            999 V2000
    2.0326   -1.5894    0.0000 N   0  0  0  0  0  0  0  0  0  0  0  0
    2.0326   -0.7644    0.0000 C   0  0  0  0  0  0  0  0  0  0  0  0
    1.3181   -0.3519    0.0000 C   0  0  0  0  0  0  0  0  0  0  0  0
    1.3181    0.4731    0.0000 C   0  0  0  0  0  0  0  0  0  0  0  0
    1.3181    1.2981    0.0000 N   0  0  0  0  0  0  0  0  0  0  0  0
    0.6037   -0.7644    0.0000 C   0  0  0  0  0  0  0  0  0  0  0  0
    0.6037   -1.5894    0.0000 C   0  0  0  0  0  0  0  0  0  0  0  0
    1.3181   -2.0019    0.0000 C   0  0  0  0  0  0  0  0  0  0  0  0
  2  1  1  0  0  0  0
  3  2  2  0  0  0  0
  3  4  1  0  0  0  0
  4  5  3  0  0  0  0
  6  3  1  0  0  0  0
  7  6  2  0  0  0  0
  8  7  1  0  0  0  0
  1  8  2  0  0  0  0
M  END
> <ChemID>
100375

> <CAS>
100-54-9

> <Original_SMILES>
N#Cc1c[n]ccc1

> <preferred_name>
3-Pyridinecarbonitrile

> <dsstox_substance_id>
DTXSID1026665

> <dsstox_compound_id>
DTXCID606665

> <qc_level>
DSSTox_Low

> <Canonical_QSARr>
N#CC1=CN=CC=C1

> <InChI_Code_QSARr>
InChI=1S/C6H4N2/c7-4-6-2-1-3-8-5-6/h1-3,5H

> <InChI Key_QSARr>
GZPHSAQLYPIAIN-UHFFFAOYSA-N

> <Salt_Solvent>


> <Salt_Solvent_ID>
0

> <MPID>
102356

> <HL Reference>
ABRAHAM,MH ET AL. (1994)

> <HL Temperature>
25

> <LogHL>
-6.562249437179593

> <Tr_1_Tst_0>
1

$$$$
100376
  Mrv171c012241914302D          

  8  8  0  0  0  0            999 V2000
    1.6859   -1.9143    0.0000 C   0  0  0  0  0  0  0  0  0  0  0  0
    2.4004   -1.5018    0.0000 C   0  0  0  0  0  0  0  0  0  0  0  0
    2.4004   -0.6768    0.0000 C   0  0  0  0  0  0  0  0  0  0  0  0
    1.6859   -0.2643    0.0000 C   0  0  0  0  0  0  0  0  0  0  0  0
    1.6859    0.5607    0.0000 N   0  0  0  0  0  0  0  0  0  0  0  0
    0.9715    0.9732    0.0000 C   0  0  0  0  0  0  0  0  0  0  0  0
    0.9715   -0.6768    0.0000 C   0  0  0  0  0  0  0  0  0  0  0  0
    0.9715   -1.5018    0.0000 C   0  0  0  0  0  0  0  0  0  0  0  0
  2  1  1  0  0  0  0
  3  2  2  0  0  0  0
  4  3  1  0  0  0  0
  4  5  1  0  0  0  0
  5  6  1  0  0  0  0
  7  4  2  0  0  0  0
  8  7  1  0  0  0  0
  1  8  2  0  0  0  0
M  END
> <ChemID>
100376

> <CAS>
100-61-8

> <Original_SMILES>
CNc1ccccc1

> <preferred_name>
N-Methylaniline

> <dsstox_substance_id>
DTXSID9021841

> <dsstox_compound_id>
DTXCID301841

> <qc_level>
DSSTox_Low

> <Canonical_QSARr>
CNC1C=CC=CC=1

> <InChI_Code_QSARr>
InChI=1S/C7H9N/c1-8-7-5-3-2-4-6-7/h2-6,8H,1H3

> <InChI Key_QSARr>
AFBPFSWMIHJQDM-UHFFFAOYSA-N

> <Salt_Solvent>


> <Salt_Solvent_ID>
0

> <MPID>
102357

> <HL Reference>
ABRAHAM,MH ET AL. (1994)

> <HL Temperature>
25

> <LogHL>
-5.0515870342214

> <Tr_1_Tst_0>
1

$$$$
100381
  Mrv171c012241914302D          

  8  8  0  0  0  0            999 V2000
    0.6633   -0.8556    0.0000 N   0  0  0  0  0  0  0  0  0  0  0  0
    0.6633   -1.6806    0.0000 C   0  0  0  0  0  0  0  0  0  0  0  0
    1.3778   -2.0931    0.0000 C   0  0  0  0  0  0  0  0  0  0  0  0
    2.0923   -1.6806    0.0000 C   0  0  0  0  0  0  0  0  0  0  0  0
    2.0923   -0.8556    0.0000 C   0  0  0  0  0  0  0  0  0  0  0  0
    1.3778   -0.4431    0.0000 C   0  0  0  0  0  0  0  0  0  0  0  0
    1.3778    0.3819    0.0000 C   0  0  0  0  0  0  0  0  0  0  0  0
    0.6633    0.7944    0.0000 C   0  0  0  0  0  0  0  0  0  0  0  0
  2  1  1  0  0  0  0
  3  2  2  0  0  0  0
  4  3  1  0  0  0  0
  5  4  2  0  0  0  0
  6  5  1  0  0  0  0
  1  6  2  0  0  0  0
  6  7  1  0  0  0  0
  7  8  1  0  0  0  0
M  END
> <ChemID>
100381

> <CAS>
100-71-0

> <Original_SMILES>
CCc1cccc[n]1

> <preferred_name>
2-Ethylpyridine

> <dsstox_substance_id>
DTXSID4021844

> <dsstox_compound_id>
DTXCID501844

> <qc_level>
DSSTox_Low

> <Canonical_QSARr>
CCC1C=CC=CN=1

> <InChI_Code_QSARr>
InChI=1S/C7H9N/c1-2-7-5-3-4-6-8-7/h3-6H,2H2,1H3

> <InChI Key_QSARr>
NRGGMCIBEHEAIL-UHFFFAOYSA-N

> <Salt_Solvent>


> <Salt_Solvent_ID>
0

> <MPID>
102358

> <HL Reference>
ANDON,RJL ET AL. (1954)

> <HL Temperature>
25

> <LogHL>
-4.782516055786076

> <Tr_1_Tst_0>
1

$$$$
100384
  Mrv171c012241914302D          

  9  9  0  0  0  0            999 V2000
    0.4763    0.2750    0.0000 C   0  0  0  0  0  0  0  0  0  0  0  0
   -0.2382   -0.1375    0.0000 C   0  0  0  0  0  0  0  0  0  0  0  0
   -0.9526    0.2750    0.0000 O   0  0  0  0  0  0  0  0  0  0  0  0
    1.1908   -0.1375    0.0000 C   0  0  0  0  0  0  0  0  0  0  0  0
    1.9053    0.2750    0.0000 C   0  0  0  0  0  0  0  0  0  0  0  0
    1.9053    1.1000    0.0000 C   0  0  0  0  0  0  0  0  0  0  0  0
    1.1908    1.5125    0.0000 C   0  0  0  0  0  0  0  0  0  0  0  0
    1.1908    2.3375    0.0000 O   0  0  0  0  0  0  0  0  0  0  0  0
    0.4763    1.1000    0.0000 C   0  0  0  0  0  0  0  0  0  0  0  0
  1  2  1  0  0  0  0
  2  3  2  0  0  0  0
  4  1  1  0  0  0  0
  5  4  2  0  0  0  0
  6  5  1  0  0  0  0
  7  6  2  0  0  0  0
  7  8  1  0  0  0  0
  9  7  1  0  0  0  0
  1  9  2  0  0  0  0
M  END
> <ChemID>
100384

> <CAS>
100-83-4

> <Original_SMILES>
Oc1cc(C=O)ccc1

> <preferred_name>
Benzaldehyde, 3-hydroxy-

> <dsstox_substance_id>
DTXSID7059220

> <dsstox_compound_id>
DTXCID8032461

> <qc_level>
Public_High

> <Canonical_QSARr>
OC1C=C(C=O)C=CC=1

> <InChI_Code_QSARr>
InChI=1S/C7H6O2/c8-5-6-2-1-3-7(9)4-6/h1-5,9H

> <InChI Key_QSARr>
IAVREABSGIHHMO-UHFFFAOYSA-N

> <Salt_Solvent>


> <Salt_Solvent_ID>
0

> <MPID>
102359

> <HL Reference>
GAFFNEY,JS ET AL. (1987)

> <HL Temperature>
25

> <LogHL>
-8.60205999132798

> <Tr_1_Tst_0>
1

$$$$
100398
  Mrv171c012241914302D          

 26 25  0  0  0  0            999 V2000
    2.7458   -3.9001    0.0000 C   0  0  0  0  0  0  0  0  0  0  0  0
    2.0313   -3.4876    0.0000 C   0  0  0  0  0  0  0  0  0  0  0  0
    2.0313   -2.6626    0.0000 C   0  0  0  0  0  0  0  0  0  0  0  0
    1.3169   -2.2501    0.0000 C   0  0  0  0  0  0  0  0  0  0  0  0
    0.6024   -2.6626    0.0000 C   0  0  0  0  0  0  0  0  0  0  0  0
   -0.1121   -2.2501    0.0000 C   0  0  0  0  0  0  0  0  0  0  0  0
   -0.8265   -2.6626    0.0000 C   0  0  0  0  0  0  0  0  0  0  0  0
    2.7458   -2.2501    0.0000 C   0  0  0  0  0  0  0  0  0  0  0  0
    3.4603   -2.6626    0.0000 O   0  0  0  0  0  0  0  0  0  0  0  0
    4.1748   -2.2501    0.0000 C   0  0  0  0  0  0  0  0  0  0  0  0
    4.8892   -2.6626    0.0000 C   0  0  0  0  0  0  0  0  0  0  0  0
    5.6037   -2.2501    0.0000 C   0  0  0  0  0  0  0  0  0  0  0  0
    6.3182   -2.6626    0.0000 C   0  0  0  0  0  0  0  0  0  0  0  0
    7.0326   -2.2501    0.0000 C   0  0  0  0  0  0  0  0  0  0  0  0
    7.7471   -2.6626    0.0000 C   0  0  0  0  0  0  0  0  0  0  0  0
    8.4616   -2.2501    0.0000 O   0  0  0  0  0  0  0  0  0  0  0  0
    9.1761   -2.6626    0.0000 C   0  0  0  0  0  0  0  0  0  0  0  0
    9.8905   -2.2501    0.0000 C   0  0  0  0  0  0  0  0  0  0  0  0
    9.8905   -1.4251    0.0000 C   0  0  0  0  0  0  0  0  0  0  0  0
   10.6050   -1.0126    0.0000 C   0  0  0  0  0  0  0  0  0  0  0  0
   10.6050   -2.6626    0.0000 C   0  0  0  0  0  0  0  0  0  0  0  0
   11.3195   -2.2501    0.0000 C   0  0  0  0  0  0  0  0  0  0  0  0
   12.0339   -2.6626    0.0000 C   0  0  0  0  0  0  0  0  0  0  0  0
   12.7484   -2.2501    0.0000 C   0  0  0  0  0  0  0  0  0  0  0  0
    7.7471   -3.4876    0.0000 O   0  0  0  0  0  0  0  0  0  0  0  0
    4.1748   -1.4251    0.0000 O   0  0  0  0  0  0  0  0  0  0  0  0
  1  2  1  0  0  0  0
  2  3  1  0  0  0  0
  3  4  1  0  0  0  0
  4  5  1  0  0  0  0
  5  6  1  0  0  0  0
  6  7  1  0  0  0  0
  3  8  1  0  0  0  0
  8  9  1  0  0  0  0
  9 10  1  0  0  0  0
 10 11  1  0  0  0  0
 11 12  1  0  0  0  0
 12 13  1  0  0  0  0
 13 14  1  0  0  0  0
 14 15  1  0  0  0  0
 15 16  1  0  0  0  0
 16 17  1  0  0  0  0
 17 18  1  0  0  0  0
 18 19  1  0  0  0  0
 19 20  1  0  0  0  0
 18 21  1  0  0  0  0
 21 22  1  0  0  0  0
 22 23  1  0  0  0  0
 23 24  1  0  0  0  0
 15 25  2  0  0  0  0
 10 26  2  0  0  0  0
M  END
> <ChemID>
100398

> <CAS>
103-23-1

> <Original_SMILES>
CCCCC(COC(=O)CCCCC(=O)OCC(CCCC)CC)CC

> <preferred_name>
Di(2-ethylhexyl) adipate

> <dsstox_substance_id>
DTXSID0020606

> <dsstox_compound_id>
DTXCID40606

> <qc_level>
DSSTox_High

> <Canonical_QSARr>
CCCCC(COC(=O)CCCCC(=O)OCC(CCCC)CC)CC

> <InChI_Code_QSARr>
InChI=1S/C22H42O4/c1-5-9-13-19(7-3)17-25-21(23)15-11-12-16-22(24)26-18-20(8-4)14-10-6-2/h19-20H,5-18H2,1-4H3

> <InChI Key_QSARr>
SAOKZLXYCUGLFA-UHFFFAOYSA-N

> <Salt_Solvent>


> <Salt_Solvent_ID>
0

> <MPID>
102360

> <HL Reference>
FELDER,JD ET AL. (1986)

> <HL Temperature>
20

> <LogHL>
-6.362510270487486

> <Tr_1_Tst_0>
1

$$$$
100404
  Mrv171c012241914302D          

  9  9  0  0  0  0            999 V2000
    1.2747   -0.5068    0.0000 C   0  0  0  0  0  0  0  0  0  0  0  0
    1.2747    0.3182    0.0000 C   0  0  0  0  0  0  0  0  0  0  0  0
    1.9892    0.7307    0.0000 C   0  0  0  0  0  0  0  0  0  0  0  0
    1.9892    1.5557    0.0000 C   0  0  0  0  0  0  0  0  0  0  0  0
    0.5603   -0.9193    0.0000 C   0  0  0  0  0  0  0  0  0  0  0  0
    0.5603   -1.7443    0.0000 C   0  0  0  0  0  0  0  0  0  0  0  0
    1.2747   -2.1568    0.0000 C   0  0  0  0  0  0  0  0  0  0  0  0
    1.9892   -1.7443    0.0000 C   0  0  0  0  0  0  0  0  0  0  0  0
    1.9892   -0.9193    0.0000 C   0  0  0  0  0  0  0  0  0  0  0  0
  1  2  1  0  0  0  0
  2  3  1  0  0  0  0
  3  4  1  0  0  0  0
  5  1  2  0  0  0  0
  6  5  1  0  0  0  0
  7  6  2  0  0  0  0
  8  7  1  0  0  0  0
  9  8  2  0  0  0  0
  1  9  1  0  0  0  0
M  END
> <ChemID>
100404

> <CAS>
103-65-1

> <Original_SMILES>
CCCc1ccccc1

> <preferred_name>
Propylbenzene

> <dsstox_substance_id>
DTXSID3042219

> <dsstox_compound_id>
DTXCID1022219

> <qc_level>
DSSTox_Low

> <Canonical_QSARr>
CCCC1C=CC=CC=1

> <InChI_Code_QSARr>
InChI=1S/C9H12/c1-2-6-9-7-4-3-5-8-9/h3-5,7-8H,2,6H2,1H3

> <InChI Key_QSARr>
ODLMAHJVESYWTB-UHFFFAOYSA-N

> <Salt_Solvent>


> <Salt_Solvent_ID>
0

> <MPID>
102361

> <HL Reference>
SANEMASA,I ET AL. (1982)

> <HL Temperature>
25

> <LogHL>
-1.978810700930062

> <Tr_1_Tst_0>
1

$$$$
100405
  Mrv171c012241914302D          

  9  9  0  0  0  0            999 V2000
    1.9978    0.3597    0.0000 N   0  0  0  0  0  0  0  0  0  0  0  0
    2.7123    0.7722    0.0000 C   0  0  0  0  0  0  0  0  0  0  0  0
    2.7123    1.5972    0.0000 C   0  0  0  0  0  0  0  0  0  0  0  0
    1.9978   -0.4653    0.0000 C   0  0  0  0  0  0  0  0  0  0  0  0
    1.2833   -0.8778    0.0000 C   0  0  0  0  0  0  0  0  0  0  0  0
    1.2833   -1.7028    0.0000 C   0  0  0  0  0  0  0  0  0  0  0  0
    1.9978   -2.1153    0.0000 C   0  0  0  0  0  0  0  0  0  0  0  0
    2.7123   -1.7028    0.0000 C   0  0  0  0  0  0  0  0  0  0  0  0
    2.7123   -0.8778    0.0000 C   0  0  0  0  0  0  0  0  0  0  0  0
  1  2  1  0  0  0  0
  2  3  1  0  0  0  0
  1  4  1  0  0  0  0
  5  4  1  0  0  0  0
  6  5  2  0  0  0  0
  7  6  1  0  0  0  0
  8  7  2  0  0  0  0
  9  8  1  0  0  0  0
  4  9  2  0  0  0  0
M  END
> <ChemID>
100405

> <CAS>
103-69-5

> <Original_SMILES>
CCNc1ccccc1

> <preferred_name>
N-Ethylaniline

> <dsstox_substance_id>
DTXSID1025271

> <dsstox_compound_id>
DTXCID405271

> <qc_level>
DSSTox_Low

> <Canonical_QSARr>
CCNC1C=CC=CC=1

> <InChI_Code_QSARr>
InChI=1S/C8H11N/c1-2-9-8-6-4-3-5-7-8/h3-7,9H,2H2,1H3

> <InChI Key_QSARr>
OJGMBLNIHDZDGS-UHFFFAOYSA-N

> <Salt_Solvent>


> <Salt_Solvent_ID>
0

> <MPID>
102362

> <HL Reference>
ALTSCHUH,J ET AL. (1999)

> <HL Temperature>
25

> <LogHL>
-5.009661145212377

> <Tr_1_Tst_0>
1

$$$$
100416
  Mrv171c012241914302D          

  9  9  0  0  0  0            999 V2000
    3.0381   -2.4903    0.0000 O   0  0  0  0  0  0  0  0  0  0  0  0
    2.3236   -2.9028    0.0000 C   0  0  0  0  0  0  0  0  0  0  0  0
    3.0381   -1.6653    0.0000 C   0  0  0  0  0  0  0  0  0  0  0  0
    3.7526   -1.2528    0.0000 C   0  0  0  0  0  0  0  0  0  0  0  0
    3.7526   -0.4278    0.0000 C   0  0  0  0  0  0  0  0  0  0  0  0
    3.0381   -0.0153    0.0000 C   0  0  0  0  0  0  0  0  0  0  0  0
    3.0381    0.8097    0.0000 N   0  0  0  0  0  0  0  0  0  0  0  0
    2.3236   -0.4278    0.0000 C   0  0  0  0  0  0  0  0  0  0  0  0
    2.3236   -1.2528    0.0000 C   0  0  0  0  0  0  0  0  0  0  0  0
  1  2  1  0  0  0  0
  1  3  1  0  0  0  0
  4  3  1  0  0  0  0
  5  4  2  0  0  0  0
  6  5  1  0  0  0  0
  6  7  1  0  0  0  0
  8  6  2  0  0  0  0
  9  8  1  0  0  0  0
  3  9  2  0  0  0  0
M  END
> <ChemID>
100416

> <CAS>
104-94-9

> <Original_SMILES>
COc1ccc(N)cc1

> <preferred_name>
4-Methoxyaniline

> <dsstox_substance_id>
DTXSID7024532

> <dsstox_compound_id>
DTXCID104532

> <qc_level>
DSSTox_Low

> <Canonical_QSARr>
COC1C=CC(N)=CC=1

> <InChI_Code_QSARr>
InChI=1S/C7H9NO/c1-9-7-4-2-6(8)3-5-7/h2-5H,8H2,1H3

> <InChI Key_QSARr>
BHAAPTBBJKJZER-UHFFFAOYSA-N

> <Salt_Solvent>


> <Salt_Solvent_ID>
0

> <MPID>
102363

> <HL Reference>
ALTSCHUH,J ET AL. (1999)

> <HL Temperature>
25

> <LogHL>
-7.180456064458137

> <Tr_1_Tst_0>
0

$$$$
100430
  Mrv171c012241914302D          

  9  9  0  0  0  0            999 V2000
    1.7474   -2.4749    0.0000 O   0  0  0  0  0  0  0  0  0  0  0  0
    1.7474   -1.6499    0.0000 C   0  0  0  0  0  0  0  0  0  0  0  0
    2.4618   -1.2374    0.0000 C   0  0  0  0  0  0  0  0  0  0  0  0
    2.4618   -0.4124    0.0000 C   0  0  0  0  0  0  0  0  0  0  0  0
    1.7474    0.0001    0.0000 C   0  0  0  0  0  0  0  0  0  0  0  0
    1.7474    0.8251    0.0000 C   0  0  0  0  0  0  0  0  0  0  0  0
    1.0329   -0.4124    0.0000 C   0  0  0  0  0  0  0  0  0  0  0  0
    1.0329   -1.2374    0.0000 C   0  0  0  0  0  0  0  0  0  0  0  0
    0.3184   -1.6499    0.0000 C   0  0  0  0  0  0  0  0  0  0  0  0
  1  2  1  0  0  0  0
  3  2  1  0  0  0  0
  4  3  2  0  0  0  0
  5  4  1  0  0  0  0
  5  6  1  0  0  0  0
  7  5  2  0  0  0  0
  8  7  1  0  0  0  0
  2  8  2  0  0  0  0
  8  9  1  0  0  0  0
M  END
> <ChemID>
100430

> <CAS>
105-67-9

> <Original_SMILES>
Cc1cc(C)c(O)cc1

> <preferred_name>
2,4-Dimethylphenol

> <dsstox_substance_id>
DTXSID2021864

> <dsstox_compound_id>
DTXCID101864

> <qc_level>
DSSTox_Low

> <Canonical_QSARr>
CC1=CC(C)=C(O)C=C1

> <InChI_Code_QSARr>
InChI=1S/C8H10O/c1-6-3-4-8(9)7(2)5-6/h3-5,9H,1-2H3

> <InChI Key_QSARr>
KUFFULVDNCHOFZ-UHFFFAOYSA-N

> <Salt_Solvent>


> <Salt_Solvent_ID>
0

> <MPID>
102364

> <HL Reference>
ABRAHAM,MH ET AL. (1994)

> <HL Temperature>
25

> <LogHL>
-6.021819483062576

> <Tr_1_Tst_0>
1

$$$$
100433
  Mrv171c012241914302D          

 11 10  0  0  0  0            999 V2000
    2.3423   -0.8240    0.0000 C   0  0  0  0  0  0  0  0  0  0  0  0
    2.3423    0.0010    0.0000 O   0  0  0  0  0  0  0  0  0  0  0  0
    1.6279   -1.2365    0.0000 O   0  0  0  0  0  0  0  0  0  0  0  0
    0.9134   -0.8240    0.0000 C   0  0  0  0  0  0  0  0  0  0  0  0
    0.1989   -1.2365    0.0000 C   0  0  0  0  0  0  0  0  0  0  0  0
    3.0568   -1.2365    0.0000 C   0  0  0  0  0  0  0  0  0  0  0  0
    3.7713   -0.8240    0.0000 C   0  0  0  0  0  0  0  0  0  0  0  0
    4.4857   -1.2365    0.0000 C   0  0  0  0  0  0  0  0  0  0  0  0
    5.2002   -0.8240    0.0000 C   0  0  0  0  0  0  0  0  0  0  0  0
    5.9147   -1.2365    0.0000 C   0  0  0  0  0  0  0  0  0  0  0  0
    6.6292   -0.8240    0.0000 C   0  0  0  0  0  0  0  0  0  0  0  0
  1  2  2  0  0  0  0
  1  3  1  0  0  0  0
  3  4  1  0  0  0  0
  4  5  1  0  0  0  0
  1  6  1  0  0  0  0
  6  7  1  0  0  0  0
  7  8  1  0  0  0  0
  8  9  1  0  0  0  0
  9 10  1  0  0  0  0
 10 11  1  0  0  0  0
M  END
> <ChemID>
100433

> <CAS>
106-30-9

> <Original_SMILES>
CCCCCCC(=O)OCC

> <preferred_name>
Ethyl heptanoate

> <dsstox_substance_id>
DTXSID1040112

> <dsstox_compound_id>
DTXCID9020112

> <qc_level>
DSSTox_Low

> <Canonical_QSARr>
CCCCCCC(=O)OCC

> <InChI_Code_QSARr>
InChI=1S/C9H18O2/c1-3-5-6-7-8-9(10)11-4-2/h3-8H2,1-2H3

> <InChI Key_QSARr>
TVQGDYNRXLTQAP-UHFFFAOYSA-N

> <Salt_Solvent>


> <Salt_Solvent_ID>
0

> <MPID>
102365

> <HL Reference>
HINE,J & MOOKERJEE,PK (1975)

> <HL Temperature>
25

> <LogHL>
-3.301899454376612

> <Tr_1_Tst_0>
1

$$$$
100437
  Mrv171c012241914302D          

  8  8  0  0  0  0            999 V2000
    1.6500   -1.5403    0.0000 C   0  0  0  0  0  0  0  0  0  0  0  0
    1.6500   -2.3653    0.0000 C   0  0  0  0  0  0  0  0  0  0  0  0
    2.3645   -1.1278    0.0000 C   0  0  0  0  0  0  0  0  0  0  0  0
    2.3645   -0.3028    0.0000 C   0  0  0  0  0  0  0  0  0  0  0  0
    1.6500    0.1097    0.0000 C   0  0  0  0  0  0  0  0  0  0  0  0
    1.6500    0.9347    0.0000 Br  0  0  0  0  0  0  0  0  0  0  0  0
    0.9355   -0.3028    0.0000 C   0  0  0  0  0  0  0  0  0  0  0  0
    0.9355   -1.1278    0.0000 C   0  0  0  0  0  0  0  0  0  0  0  0
  1  2  1  0  0  0  0
  3  1  1  0  0  0  0
  4  3  2  0  0  0  0
  5  4  1  0  0  0  0
  5  6  1  0  0  0  0
  7  5  2  0  0  0  0
  8  7  1  0  0  0  0
  1  8  2  0  0  0  0
M  END
> <ChemID>
100437

> <CAS>
106-38-7

> <Original_SMILES>
Cc1ccc(Br)cc1

> <preferred_name>
4-Bromotoluene

> <dsstox_substance_id>
DTXSID7024661

> <dsstox_compound_id>
DTXCID804661

> <qc_level>
DSSTox_Low

> <Canonical_QSARr>
CC1=CC=C(Br)C=C1

> <InChI_Code_QSARr>
InChI=1S/C7H7Br/c1-6-2-4-7(8)5-3-6/h2-5H,1H3

> <InChI Key_QSARr>
ZBTMRBYMKUEVEU-UHFFFAOYSA-N

> <Salt_Solvent>


> <Salt_Solvent_ID>
0

> <MPID>
102366

> <HL Reference>
HINE,J & MOOKERJEE,PK (1975)

> <HL Temperature>
25

> <LogHL>
-2.632644078973982

> <Tr_1_Tst_0>
1

$$$$
100439
  Mrv171c012241914302D          

  8  8  0  0  0  0            999 V2000
    0.7109   -2.4876    0.0000 C   0  0  0  0  0  0  0  0  0  0  0  0
    1.4254   -2.0751    0.0000 C   0  0  0  0  0  0  0  0  0  0  0  0
    1.4254   -1.2501    0.0000 C   0  0  0  0  0  0  0  0  0  0  0  0
    0.7109   -0.8376    0.0000 C   0  0  0  0  0  0  0  0  0  0  0  0
    0.7109   -0.0126    0.0000 Br  0  0  0  0  0  0  0  0  0  0  0  0
   -0.0036   -1.2501    0.0000 C   0  0  0  0  0  0  0  0  0  0  0  0
   -0.0036   -2.0751    0.0000 C   0  0  0  0  0  0  0  0  0  0  0  0
    0.7109   -3.3126    0.0000 O   0  0  0  0  0  0  0  0  0  0  0  0
  2  1  1  0  0  0  0
  3  2  2  0  0  0  0
  4  3  1  0  0  0  0
  4  5  1  0  0  0  0
  6  4  2  0  0  0  0
  7  6  1  0  0  0  0
  1  7  2  0  0  0  0
  1  8  1  0  0  0  0
M  END
> <ChemID>
100439

> <CAS>
106-41-2

> <Original_SMILES>
Oc1ccc(Br)cc1

> <preferred_name>
4-Bromophenol

> <dsstox_substance_id>
DTXSID3051543

> <dsstox_compound_id>
DTXCID4030095

> <qc_level>
DSSTox_High

> <Canonical_QSARr>
OC1=CC=C(Br)C=C1

> <InChI_Code_QSARr>
InChI=1S/C6H5BrO/c7-5-1-3-6(8)4-2-5/h1-4,8H

> <InChI Key_QSARr>
GZFGOTFRPZRKDS-UHFFFAOYSA-N

> <Salt_Solvent>


> <Salt_Solvent_ID>
0

> <MPID>
102367

> <HL Reference>
PARSONS,GH ET AL. (1971)

> <HL Temperature>
25

> <LogHL>
-6.821023052706836

> <Tr_1_Tst_0>
1

$$$$
100440
  Mrv171c012241914302D          

  8  8  0  0  0  0            999 V2000
    1.6500   -2.3653    0.0000 C   0  0  0  0  0  0  0  0  0  0  0  0
    1.6500   -1.5403    0.0000 C   0  0  0  0  0  0  0  0  0  0  0  0
    2.3645   -1.1278    0.0000 C   0  0  0  0  0  0  0  0  0  0  0  0
    2.3645   -0.3028    0.0000 C   0  0  0  0  0  0  0  0  0  0  0  0
    1.6500    0.1097    0.0000 C   0  0  0  0  0  0  0  0  0  0  0  0
    1.6500    0.9347    0.0000 C   0  0  0  0  0  0  0  0  0  0  0  0
    0.9355   -0.3028    0.0000 C   0  0  0  0  0  0  0  0  0  0  0  0
    0.9355   -1.1278    0.0000 C   0  0  0  0  0  0  0  0  0  0  0  0
  1  2  1  0  0  0  0
  3  2  1  0  0  0  0
  4  3  2  0  0  0  0
  5  4  1  0  0  0  0
  5  6  1  0  0  0  0
  7  5  2  0  0  0  0
  8  7  1  0  0  0  0
  2  8  2  0  0  0  0
M  END
> <ChemID>
100440

> <CAS>
106-42-3

> <Original_SMILES>
Cc1ccc(C)cc1

> <preferred_name>
p-Xylene

> <dsstox_substance_id>
DTXSID2021868

> <dsstox_compound_id>
DTXCID701868

> <qc_level>
DSSTox_Low

> <Canonical_QSARr>
CC1C=CC(C)=CC=1

> <InChI_Code_QSARr>
InChI=1S/C8H10/c1-7-3-5-8(2)6-4-7/h3-6H,1-2H3

> <InChI Key_QSARr>
URLKBWYHVLBVBO-UHFFFAOYSA-N

> <Salt_Solvent>


> <Salt_Solvent_ID>
0

> <MPID>
102368

> <HL Reference>
FOSTER,P ET AL. (1994)

> <HL Temperature>
25

> <LogHL>
-2.161150909262743

> <Tr_1_Tst_0>
0

$$$$
100442
  Mrv171c012241914302D          

  8  8  0  0  0  0            999 V2000
    1.6500   -2.3653    0.0000 O   0  0  0  0  0  0  0  0  0  0  0  0
    1.6500   -1.5403    0.0000 C   0  0  0  0  0  0  0  0  0  0  0  0
    2.3645   -1.1278    0.0000 C   0  0  0  0  0  0  0  0  0  0  0  0
    2.3645   -0.3028    0.0000 C   0  0  0  0  0  0  0  0  0  0  0  0
    1.6500    0.1097    0.0000 C   0  0  0  0  0  0  0  0  0  0  0  0
    1.6500    0.9347    0.0000 C   0  0  0  0  0  0  0  0  0  0  0  0
    0.9355   -0.3028    0.0000 C   0  0  0  0  0  0  0  0  0  0  0  0
    0.9355   -1.1278    0.0000 C   0  0  0  0  0  0  0  0  0  0  0  0
  1  2  1  0  0  0  0
  3  2  1  0  0  0  0
  4  3  2  0  0  0  0
  5  4  1  0  0  0  0
  5  6  1  0  0  0  0
  7  5  2  0  0  0  0
  8  7  1  0  0  0  0
  2  8  2  0  0  0  0
M  END
> <ChemID>
100442

> <CAS>
106-44-5

> <Original_SMILES>
Cc1ccc(O)cc1

> <preferred_name>
p-Cresol

> <dsstox_substance_id>
DTXSID7021869

> <dsstox_compound_id>
DTXCID101869

> <qc_level>
DSSTox_Low

> <Canonical_QSARr>
CC1=CC=C(O)C=C1

> <InChI_Code_QSARr>
InChI=1S/C7H8O/c1-6-2-4-7(8)5-3-6/h2-5,8H,1H3

> <InChI Key_QSARr>
IWDCLRJOBJJRNH-UHFFFAOYSA-N

> <Salt_Solvent>


> <Salt_Solvent_ID>
0

> <MPID>
102369

> <HL Reference>
GAFFNEY,JS ET AL. (1987)

> <HL Temperature>
25

> <LogHL>
-6.000000000000011

> <Tr_1_Tst_0>
1

$$$$
100443
  Mrv171c012241914302D          

  8  8  0  0  0  0            999 V2000
    1.6500   -2.3653    0.0000 Cl  0  0  0  0  0  0  0  0  0  0  0  0
    1.6500   -1.5403    0.0000 C   0  0  0  0  0  0  0  0  0  0  0  0
    2.3645   -1.1278    0.0000 C   0  0  0  0  0  0  0  0  0  0  0  0
    2.3645   -0.3028    0.0000 C   0  0  0  0  0  0  0  0  0  0  0  0
    1.6500    0.1097    0.0000 C   0  0  0  0  0  0  0  0  0  0  0  0
    1.6500    0.9347    0.0000 Cl  0  0  0  0  0  0  0  0  0  0  0  0
    0.9355   -0.3028    0.0000 C   0  0  0  0  0  0  0  0  0  0  0  0
    0.9355   -1.1278    0.0000 C   0  0  0  0  0  0  0  0  0  0  0  0
  1  2  1  0  0  0  0
  3  2  1  0  0  0  0
  4  3  2  0  0  0  0
  5  4  1  0  0  0  0
  5  6  1  0  0  0  0
  7  5  2  0  0  0  0
  8  7  1  0  0  0  0
  2  8  2  0  0  0  0
M  END
> <ChemID>
100443

> <CAS>
106-46-7

> <Original_SMILES>
Clc1ccc(Cl)cc1

> <preferred_name>
1,4-Dichlorobenzene

> <dsstox_substance_id>
DTXSID1020431

> <dsstox_compound_id>
DTXCID30431

> <qc_level>
DSSTox_Low

> <Canonical_QSARr>
ClC1C=CC(Cl)=CC=1

> <InChI_Code_QSARr>
InChI=1S/C6H4Cl2/c7-5-1-2-6(8)4-3-5/h1-4H

> <InChI Key_QSARr>
OCJBOOLMMGQPQU-UHFFFAOYSA-N

> <Salt_Solvent>


> <Salt_Solvent_ID>
0

> <MPID>
102370

> <HL Reference>
SHIU,WY & MACKAY,D (1997)

> <HL Temperature>
25

> <LogHL>
-2.61798295742513

> <Tr_1_Tst_0>
1

$$$$
100446
  Mrv171c012241914302D          

  8  8  0  0  0  0            999 V2000
    1.6500   -2.3653    0.0000 N   0  0  0  0  0  0  0  0  0  0  0  0
    1.6500   -1.5403    0.0000 C   0  0  0  0  0  0  0  0  0  0  0  0
    2.3645   -1.1278    0.0000 C   0  0  0  0  0  0  0  0  0  0  0  0
    2.3645   -0.3028    0.0000 C   0  0  0  0  0  0  0  0  0  0  0  0
    1.6500    0.1097    0.0000 C   0  0  0  0  0  0  0  0  0  0  0  0
    1.6500    0.9347    0.0000 C   0  0  0  0  0  0  0  0  0  0  0  0
    0.9355   -0.3028    0.0000 C   0  0  0  0  0  0  0  0  0  0  0  0
    0.9355   -1.1278    0.0000 C   0  0  0  0  0  0  0  0  0  0  0  0
  1  2  1  0  0  0  0
  3  2  1  0  0  0  0
  4  3  2  0  0  0  0
  5  4  1  0  0  0  0
  5  6  1  0  0  0  0
  7  5  2  0  0  0  0
  8  7  1  0  0  0  0
  2  8  2  0  0  0  0
M  END
> <ChemID>
100446

> <CAS>
106-49-0

> <Original_SMILES>
Cc1ccc(N)cc1

> <preferred_name>
4-Methylaniline

> <dsstox_substance_id>
DTXSID6021872

> <dsstox_compound_id>
DTXCID601872

> <qc_level>
DSSTox_Low

> <Canonical_QSARr>
CC1=CC=C(N)C=C1

> <InChI_Code_QSARr>
InChI=1S/C7H9N/c1-6-2-4-7(8)5-3-6/h2-5H,8H2,1H3

> <InChI Key_QSARr>
RZXMPPFPUUCRFN-UHFFFAOYSA-N

> <Salt_Solvent>


> <Salt_Solvent_ID>
0

> <MPID>
102371

> <HL Reference>
JAYASINGHE,DS ET AL. (1992)

> <HL Temperature>
25

> <LogHL>
-5.6946486305533925

> <Tr_1_Tst_0>
1

$$$$
100450
  Mrv171c012241914302D          

  9  8  0  0  0  0            999 V2000
    1.3998   -0.9979    0.0000 C   0  0  0  0  0  0  0  0  0  0  0  0
    1.3998   -1.8229    0.0000 O   0  0  0  0  0  0  0  0  0  0  0  0
    0.6854   -0.5854    0.0000 O   0  0  0  0  0  0  0  0  0  0  0  0
   -0.0291   -0.9979    0.0000 C   0  0  0  0  0  0  0  0  0  0  0  0
    2.1143   -0.5854    0.0000 C   0  0  0  0  0  0  0  0  0  0  0  0
    2.8288   -0.9979    0.0000 C   0  0  0  0  0  0  0  0  0  0  0  0
    3.5433   -0.5854    0.0000 C   0  0  0  0  0  0  0  0  0  0  0  0
    4.2577   -0.9979    0.0000 C   0  0  0  0  0  0  0  0  0  0  0  0
    4.9722   -0.5854    0.0000 C   0  0  0  0  0  0  0  0  0  0  0  0
  1  2  2  0  0  0  0
  1  3  1  0  0  0  0
  3  4  1  0  0  0  0
  1  5  1  0  0  0  0
  5  6  1  0  0  0  0
  6  7  1  0  0  0  0
  7  8  1  0  0  0  0
  8  9  1  0  0  0  0
M  END
> <ChemID>
100450

> <CAS>
106-70-7

> <Original_SMILES>
CCCCCC(=O)OC

> <preferred_name>
Methyl hexanoate

> <dsstox_substance_id>
DTXSID0047616

> <dsstox_compound_id>
DTXCID8027616

> <qc_level>
DSSTox_Low

> <Canonical_QSARr>
CCCCCC(=O)OC

> <InChI_Code_QSARr>
InChI=1S/C7H14O2/c1-3-4-5-6-7(8)9-2/h3-6H2,1-2H3

> <InChI Key_QSARr>
NUKZAGXMHTUAFE-UHFFFAOYSA-N

> <Salt_Solvent>


> <Salt_Solvent_ID>
0

> <MPID>
102372

> <HL Reference>
BUTTERY,RG ET AL. (1969)

> <HL Temperature>
25

> <LogHL>
-3.435333935747909

> <Tr_1_Tst_0>
1

$$$$
100453
  Mrv171c012241914302D          

  4  3  0  0  0  0            999 V2000
    2.1020   -0.5628    0.0000 Br  0  0  0  0  0  0  0  0  0  0  0  0
    1.2770   -0.5628    0.0000 C   0  0  0  0  0  0  0  0  0  0  0  0
    0.8645    0.1517    0.0000 C   0  0  0  0  0  0  0  0  0  0  0  0
    0.0395    0.1517    0.0000 Br  0  0  0  0  0  0  0  0  0  0  0  0
  1  2  1  0  0  0  0
  2  3  1  0  0  0  0
  3  4  1  0  0  0  0
M  END
> <ChemID>
100453

> <CAS>
106-93-4

> <Original_SMILES>
BrCCBr

> <preferred_name>
1,2-Dibromoethane

> <dsstox_substance_id>
DTXSID3020415

> <dsstox_compound_id>
DTXCID10415

> <qc_level>
DSSTox_Low

> <Canonical_QSARr>
BrCCBr

> <InChI_Code_QSARr>
InChI=1S/C2H4Br2/c3-1-2-4/h1-2H2

> <InChI Key_QSARr>
PAAZPARNPHGIKF-UHFFFAOYSA-N

> <Salt_Solvent>


> <Salt_Solvent_ID>
0

> <MPID>
102373

> <HL Reference>
RATHBUN,RE (1998)

> <HL Temperature>
25

> <LogHL>
-3.1870866433571434

> <Tr_1_Tst_0>
1

$$$$
100455
  Mrv171c012241914302D          

  4  3  0  0  0  0            999 V2000
    1.8601   -1.0724    0.0000 Br  0  0  0  0  0  0  0  0  0  0  0  0
    1.4476   -0.3579    0.0000 C   0  0  0  0  0  0  0  0  0  0  0  0
    0.6226   -0.3579    0.0000 C   0  0  0  0  0  0  0  0  0  0  0  0
   -0.2024   -0.3579    0.0000 C   0  0  0  0  0  0  0  0  0  0  0  0
  1  2  1  0  0  0  0
  2  3  1  0  0  0  0
  3  4  3  0  0  0  0
M  END
> <ChemID>
100455

> <CAS>
106-96-7

> <Original_SMILES>
C#CCBr

> <preferred_name>
Propargyl bromide

> <dsstox_substance_id>
DTXSID3042340

> <dsstox_compound_id>
DTXCID1022340

> <qc_level>
DSSTox_High

> <Canonical_QSARr>
C#CCBr

> <InChI_Code_QSARr>
InChI=1S/C3H3Br/c1-2-3-4/h1H,3H2

> <InChI Key_QSARr>
YORCIIVHUBAYBQ-UHFFFAOYSA-N

> <Salt_Solvent>


> <Salt_Solvent_ID>
0

> <MPID>
102374

> <HL Reference>
YATES,SR & GAN,J (1998)

> <HL Temperature>
25

> <LogHL>
-2.946921556516581

> <Tr_1_Tst_0>
1

$$$$
100457
  Mrv171c012241914302D          

  4  3  0  0  0  0            999 V2000
    2.0954   -0.5648    0.0000 C   0  0  0  0  0  0  0  0  0  0  0  0
    1.2704   -0.5648    0.0000 C   0  0  0  0  0  0  0  0  0  0  0  0
    0.8579    0.1497    0.0000 C   0  0  0  0  0  0  0  0  0  0  0  0
    0.0329    0.1497    0.0000 C   0  0  0  0  0  0  0  0  0  0  0  0
  1  2  2  0  0  0  0
  2  3  1  0  0  0  0
  3  4  1  0  0  0  0
M  END
> <ChemID>
100457

> <CAS>
106-98-9

> <Original_SMILES>
CCC=C

> <preferred_name>
1-Butene

> <dsstox_substance_id>
DTXSID1026746

> <dsstox_compound_id>
DTXCID606746

> <qc_level>
DSSTox_Low

> <Canonical_QSARr>
CCC=C

> <InChI_Code_QSARr>
InChI=1S/C4H8/c1-3-4-2/h3H,1,4H2,2H3

> <InChI Key_QSARr>
VXNZUUAINFGPBY-UHFFFAOYSA-N

> <Salt_Solvent>


> <Salt_Solvent_ID>
0

> <MPID>
102375

> <HL Reference>
WASIK,SP & TSANG,W (1970)

> <HL Temperature>
25

> <LogHL>
-0.6326440789739824

> <Tr_1_Tst_0>
1

$$$$
100459
  Mrv171c012241914302D          

  4  3  0  0  0  0            999 V2000
    2.1042   -0.5633    0.0000 C   0  0  0  0  0  0  0  0  0  0  0  0
    1.2792   -0.5633    0.0000 C   0  0  0  0  0  0  0  0  0  0  0  0
    0.8667    0.1512    0.0000 C   0  0  0  0  0  0  0  0  0  0  0  0
    0.0417    0.1512    0.0000 O   0  0  0  0  0  0  0  0  0  0  0  0
  1  2  2  0  0  0  0
  2  3  1  0  0  0  0
  3  4  2  0  0  0  0
M  END
> <ChemID>
100459

> <CAS>
107-02-8

> <Original_SMILES>
C=CC=O

> <preferred_name>
Acrolein

> <dsstox_substance_id>
DTXSID5020023

> <dsstox_compound_id>
DTXCID8023

> <qc_level>
DSSTox_Low

> <Canonical_QSARr>
C=CC=O

> <InChI_Code_QSARr>
InChI=1S/C3H4O/c1-2-3-4/h2-3H,1H2

> <InChI Key_QSARr>
HGINCPLSRVDWNT-UHFFFAOYSA-N

> <Salt_Solvent>


> <Salt_Solvent_ID>
0

> <MPID>
102376

> <HL Reference>
GAFFNEY,JS ET AL. (1987)

> <HL Temperature>
25

> <LogHL>
-3.913640169325252

> <Tr_1_Tst_0>
1

$$$$
100460
  Mrv171c012241914302D          

  4  3  0  0  0  0            999 V2000
    1.2349   -0.7152    0.0000 C   0  0  0  0  0  0  0  0  0  0  0  0
    2.0599   -0.7152    0.0000 S   0  0  0  0  0  0  0  0  0  0  0  0
    0.8224   -0.0007    0.0000 C   0  0  0  0  0  0  0  0  0  0  0  0
   -0.0026   -0.0007    0.0000 C   0  0  0  0  0  0  0  0  0  0  0  0
  1  2  1  0  0  0  0
  1  3  1  0  0  0  0
  3  4  1  0  0  0  0
M  END
> <ChemID>
100460

> <CAS>
107-03-9

> <Original_SMILES>
CCCS

> <preferred_name>
1-Propanethiol

> <dsstox_substance_id>
DTXSID5026750

> <dsstox_compound_id>
DTXCID506750

> <qc_level>
DSSTox_Low

> <Canonical_QSARr>
CCCS

> <InChI_Code_QSARr>
InChI=1S/C3H8S/c1-2-3-4/h4H,2-3H2,1H3

> <InChI Key_QSARr>
SUVIGLJNEAMWEG-UHFFFAOYSA-N

> <Salt_Solvent>


> <Salt_Solvent_ID>
0

> <MPID>
102377

> <HL Reference>
PRZYJAZNY,A ET AL. (1983)

> <HL Temperature>
25

> <LogHL>
-2.3893398369101213

> <Tr_1_Tst_0>
0

$$$$
100461
  Mrv171c012241914302D          

  4  3  0  0  0  0            999 V2000
    0.8645    0.1517    0.0000 C   0  0  0  0  0  0  0  0  0  0  0  0
    1.2770   -0.5628    0.0000 C   0  0  0  0  0  0  0  0  0  0  0  0
    2.1020   -0.5628    0.0000 Cl  0  0  0  0  0  0  0  0  0  0  0  0
    0.0395    0.1517    0.0000 Br  0  0  0  0  0  0  0  0  0  0  0  0
  1  2  1  0  0  0  0
  2  3  1  0  0  0  0
  1  4  1  0  0  0  0
M  END
> <ChemID>
100461

> <CAS>
107-04-0

> <Original_SMILES>
ClCCBr

> <preferred_name>
1-Chloro-2-bromoethane

> <dsstox_substance_id>
DTXSID4024775

> <dsstox_compound_id>
DTXCID904775

> <qc_level>
DSSTox_Low

> <Canonical_QSARr>
ClCCBr

> <InChI_Code_QSARr>
InChI=1S/C2H4BrCl/c3-1-2-4/h1-2H2

> <InChI Key_QSARr>
IBYHHJPAARCAIE-UHFFFAOYSA-N

> <Salt_Solvent>


> <Salt_Solvent_ID>
0

> <MPID>
102378

> <HL Reference>
HINE,J & MOOKERJEE,PK (1975)

> <HL Temperature>
25

> <LogHL>
-3.0414361167780344

> <Tr_1_Tst_0>
1

$$$$
100463
  Mrv171c012241914302D          

  4  3  0  0  0  0            999 V2000
    2.1020   -0.5628    0.0000 Cl  0  0  0  0  0  0  0  0  0  0  0  0
    1.2770   -0.5628    0.0000 C   0  0  0  0  0  0  0  0  0  0  0  0
    0.8645    0.1517    0.0000 C   0  0  0  0  0  0  0  0  0  0  0  0
    0.0395    0.1517    0.0000 Cl  0  0  0  0  0  0  0  0  0  0  0  0
  1  2  1  0  0  0  0
  2  3  1  0  0  0  0
  3  4  1  0  0  0  0
M  END
> <ChemID>
100463

> <CAS>
107-06-2

> <Original_SMILES>
ClCCCl

> <preferred_name>
1,2-Dichloroethane

> <dsstox_substance_id>
DTXSID6020438

> <dsstox_compound_id>
DTXCID40438

> <qc_level>
DSSTox_High

> <Canonical_QSARr>
ClCCCl

> <InChI_Code_QSARr>
InChI=1S/C2H4Cl2/c3-1-2-4/h1-2H2

> <InChI Key_QSARr>
WSLDOOZREJYCGB-UHFFFAOYSA-N

> <Salt_Solvent>


> <Salt_Solvent_ID>
0

> <MPID>
102379

> <HL Reference>
LEIGHTON,DTJR & CALO,JM (1981)

> <HL Temperature>
25

> <LogHL>
-2.9281179926938727

> <Tr_1_Tst_0>
1

$$$$
100466
  Mrv171c012241914302D          

  4  3  0  0  0  0            999 V2000
    2.1043   -0.5633    0.0000 C   0  0  0  0  0  0  0  0  0  0  0  0
    1.2793   -0.5633    0.0000 C   0  0  0  0  0  0  0  0  0  0  0  0
    0.8668    0.1512    0.0000 C   0  0  0  0  0  0  0  0  0  0  0  0
    0.0418    0.1512    0.0000 N   0  0  0  0  0  0  0  0  0  0  0  0
  1  2  1  0  0  0  0
  2  3  1  0  0  0  0
  3  4  1  0  0  0  0
M  END
> <ChemID>
100466

> <CAS>
107-10-8

> <Original_SMILES>
CCCN

> <preferred_name>
Propylamine

> <dsstox_substance_id>
DTXSID6021878

> <dsstox_compound_id>
DTXCID001878

> <qc_level>
DSSTox_Low

> <Canonical_QSARr>
CCCN

> <InChI_Code_QSARr>
InChI=1S/C3H9N/c1-2-3-4/h2-4H2,1H3

> <InChI Key_QSARr>
WGYKZJWCGVVSQN-UHFFFAOYSA-N

> <Salt_Solvent>


> <Salt_Solvent_ID>
0

> <MPID>
102380

> <HL Reference>
CHRISTIE,AO & CRISP,DJ (1967)

> <HL Temperature>
25

> <LogHL>
-4.82973828460504

> <Tr_1_Tst_0>
1

$$$$
100468
  Mrv171c012241914302D          

  4  3  0  0  0  0            999 V2000
    1.8563   -1.0711    0.0000 C   0  0  0  0  0  0  0  0  0  0  0  0
    1.4438   -0.3566    0.0000 C   0  0  0  0  0  0  0  0  0  0  0  0
    0.6188   -0.3566    0.0000 C   0  0  0  0  0  0  0  0  0  0  0  0
   -0.2062   -0.3566    0.0000 N   0  0  0  0  0  0  0  0  0  0  0  0
  1  2  1  0  0  0  0
  2  3  1  0  0  0  0
  3  4  3  0  0  0  0
M  END
> <ChemID>
100468

> <CAS>
107-12-0

> <Original_SMILES>
CCC#N

> <preferred_name>
Propionitrile

> <dsstox_substance_id>
DTXSID1021879

> <dsstox_compound_id>
DTXCID401879

> <qc_level>
DSSTox_Low

> <Canonical_QSARr>
CCC#N

> <InChI_Code_QSARr>
InChI=1S/C3H5N/c1-2-3-4/h2H2,1H3

> <InChI Key_QSARr>
FVSKHRXBFJPNKK-UHFFFAOYSA-N

> <Salt_Solvent>


> <Salt_Solvent_ID>
0

> <MPID>
102381

> <HL Reference>
BUTLER,JAV & RAMCHANDANI,CN (1935)

> <HL Temperature>
25

> <LogHL>
-4.431798275933026

> <Tr_1_Tst_0>
0

$$$$
100469
  Mrv171c012241914302D          

  4  3  0  0  0  0            999 V2000
    1.8563   -1.0711    0.0000 C   0  0  0  0  0  0  0  0  0  0  0  0
    1.4438   -0.3566    0.0000 C   0  0  0  0  0  0  0  0  0  0  0  0
    0.6188   -0.3566    0.0000 C   0  0  0  0  0  0  0  0  0  0  0  0
   -0.2062   -0.3566    0.0000 N   0  0  0  0  0  0  0  0  0  0  0  0
  1  2  2  0  0  0  0
  2  3  1  0  0  0  0
  3  4  3  0  0  0  0
M  END
> <ChemID>
100469

> <CAS>
107-13-1

> <Original_SMILES>
C=CC#N

> <preferred_name>
Acrylonitrile

> <dsstox_substance_id>
DTXSID5020029

> <dsstox_compound_id>
DTXCID0029

> <qc_level>
DSSTox_Low

> <Canonical_QSARr>
C=CC#N

> <InChI_Code_QSARr>
InChI=1S/C3H3N/c1-2-3-4/h2H,1H2

> <InChI Key_QSARr>
NLHHRLWOUZZQLW-UHFFFAOYSA-N

> <Salt_Solvent>


> <Salt_Solvent_ID>
0

> <MPID>
102382

> <HL Reference>
BOCEK,K (1976)

> <HL Temperature>
25

> <LogHL>
-3.860120913598763

> <Tr_1_Tst_0>
1

$$$$
100470
  Mrv171c012241914302D          

  4  3  0  0  0  0            999 V2000
    2.1020   -0.5628    0.0000 N   0  0  0  0  0  0  0  0  0  0  0  0
    1.2770   -0.5628    0.0000 C   0  0  0  0  0  0  0  0  0  0  0  0
    0.8645    0.1517    0.0000 C   0  0  0  0  0  0  0  0  0  0  0  0
    0.0395    0.1517    0.0000 N   0  0  0  0  0  0  0  0  0  0  0  0
  1  2  1  0  0  0  0
  2  3  1  0  0  0  0
  3  4  1  0  0  0  0
M  END
> <ChemID>
100470

> <CAS>
107-15-3

> <Original_SMILES>
NCCN

> <preferred_name>
Ethylenediamine

> <dsstox_substance_id>
DTXSID5021881

> <dsstox_compound_id>
DTXCID501881

> <qc_level>
DSSTox_Low

> <Canonical_QSARr>
NCCN

> <InChI_Code_QSARr>
InChI=1S/C2H8N2/c3-1-2-4/h1-4H2

> <InChI Key_QSARr>
PIICEJLVQHRZGT-UHFFFAOYSA-N

> <Salt_Solvent>


> <Salt_Solvent_ID>
0

> <MPID>
102383

> <HL Reference>
HINE,J & MOOKERJEE,PK (1975)

> <HL Temperature>
25

> <LogHL>
-8.761953896871193

> <Tr_1_Tst_0>
1

$$$$
100471
  Mrv171c012241914302D          

  4  3  0  0  0  0            999 V2000
    2.1042   -0.5633    0.0000 C   0  0  0  0  0  0  0  0  0  0  0  0
    1.2792   -0.5633    0.0000 C   0  0  0  0  0  0  0  0  0  0  0  0
    0.8667    0.1512    0.0000 C   0  0  0  0  0  0  0  0  0  0  0  0
    0.0417    0.1512    0.0000 O   0  0  0  0  0  0  0  0  0  0  0  0
  1  2  2  0  0  0  0
  2  3  1  0  0  0  0
  3  4  1  0  0  0  0
M  END
> <ChemID>
100471

> <CAS>
107-18-6

> <Original_SMILES>
C=CCO

> <preferred_name>
Allyl alcohol

> <dsstox_substance_id>
DTXSID8020044

> <dsstox_compound_id>
DTXCID2044

> <qc_level>
DSSTox_Low

> <Canonical_QSARr>
C=CCO

> <InChI_Code_QSARr>
InChI=1S/C3H6O/c1-2-3-4/h2,4H,1,3H2

> <InChI Key_QSARr>
XXROGKLTLUQVRX-UHFFFAOYSA-N

> <Salt_Solvent>


> <Salt_Solvent_ID>
0

> <MPID>
102384

> <HL Reference>
HINE,J & MOOKERJEE,PK (1975)

> <HL Temperature>
25

> <LogHL>
-5.301899454376589

> <Tr_1_Tst_0>
1

$$$$
100473
  Mrv171c012241914302D          

  4  3  0  0  0  0            999 V2000
    1.2770   -0.5628    0.0000 C   0  0  0  0  0  0  0  0  0  0  0  0
    2.1020   -0.5628    0.0000 O   0  0  0  0  0  0  0  0  0  0  0  0
    0.8645    0.1517    0.0000 C   0  0  0  0  0  0  0  0  0  0  0  0
    0.0395    0.1517    0.0000 O   0  0  0  0  0  0  0  0  0  0  0  0
  1  2  1  0  0  0  0
  1  3  1  0  0  0  0
  3  4  1  0  0  0  0
M  END
> <ChemID>
100473

> <CAS>
107-21-1

> <Original_SMILES>
OCCO

> <preferred_name>
Ethylene glycol

> <dsstox_substance_id>
DTXSID8020597

> <dsstox_compound_id>
DTXCID40597

> <qc_level>
DSSTox_High

> <Canonical_QSARr>
OCCO

> <InChI_Code_QSARr>
InChI=1S/C2H6O2/c3-1-2-4/h3-4H,1-2H2

> <InChI Key_QSARr>
LYCAIKOWRPUZTN-UHFFFAOYSA-N

> <Salt_Solvent>


> <Salt_Solvent_ID>
0

> <MPID>
102385

> <HL Reference>
BUTLER,JAV & RAMCHANDANI,CN (1935)

> <HL Temperature>
25

> <LogHL>
-7.221848749616351

> <Tr_1_Tst_0>
1

$$$$
100474
  Mrv171c012241914302D          

  4  3  0  0  0  0            999 V2000
    2.1020   -0.5628    0.0000 O   0  0  0  0  0  0  0  0  0  0  0  0
    1.2770   -0.5628    0.0000 C   0  0  0  0  0  0  0  0  0  0  0  0
    0.8645    0.1517    0.0000 C   0  0  0  0  0  0  0  0  0  0  0  0
    0.0395    0.1517    0.0000 O   0  0  0  0  0  0  0  0  0  0  0  0
  1  2  2  0  0  0  0
  2  3  1  0  0  0  0
  3  4  2  0  0  0  0
M  END
> <ChemID>
100474

> <CAS>
107-22-2

> <Original_SMILES>
O=CC=O

> <preferred_name>
Glyoxal

> <dsstox_substance_id>
DTXSID5025364

> <dsstox_compound_id>
DTXCID505364

> <qc_level>
DSSTox_Low

> <Canonical_QSARr>
O=CC=O

> <InChI_Code_QSARr>
InChI=1S/C2H2O2/c3-1-2-4/h1-2H

> <InChI Key_QSARr>
LEQAOMBKQFMDFZ-UHFFFAOYSA-N

> <Salt_Solvent>


> <Salt_Solvent_ID>
0

> <MPID>
102386

> <HL Reference>
BETTERTON,EA & HOFFMAN,MR (1988)

> <HL Temperature>
25

> <LogHL>
-8.477555766493698

> <Tr_1_Tst_0>
1

$$$$
100476
  Mrv171c012241914302D          

  4  3  0  0  0  0            999 V2000
    2.1043   -0.5633    0.0000 O   0  0  0  0  0  0  0  0  0  0  0  0
    1.2793   -0.5633    0.0000 C   0  0  0  0  0  0  0  0  0  0  0  0
    0.8668    0.1512    0.0000 O   0  0  0  0  0  0  0  0  0  0  0  0
    0.0418    0.1512    0.0000 C   0  0  0  0  0  0  0  0  0  0  0  0
  1  2  2  0  0  0  0
  2  3  1  0  0  0  0
  3  4  1  0  0  0  0
M  END
> <ChemID>
100476

> <CAS>
107-31-3

> <Original_SMILES>
COC=O

> <preferred_name>
Methyl formate

> <dsstox_substance_id>
DTXSID5025609

> <dsstox_compound_id>
DTXCID305609

> <qc_level>
DSSTox_Low

> <Canonical_QSARr>
COC=O

> <InChI_Code_QSARr>
InChI=1S/C2H4O2/c1-4-2-3/h2H,1H3

> <InChI Key_QSARr>
TZIHFWKZFHZASV-UHFFFAOYSA-N

> <Salt_Solvent>


> <Salt_Solvent_ID>
0

> <MPID>
102387

> <HL Reference>
HINE,J & MOOKERJEE,PK (1975)

> <HL Temperature>
25

> <LogHL>
-3.651695136951841

> <Tr_1_Tst_0>
0

$$$$
100480
  Mrv171c012241914302D          

 13 12  0  0  0  0            999 V2000
    1.4270   -2.1920    0.0000 Si  0  0  0  0  0  0  0  0  0  0  0  0
    1.4270   -3.0170    0.0000 C   0  0  0  0  0  0  0  0  0  0  0  0
    2.2520   -2.1920    0.0000 C   0  0  0  0  0  0  0  0  0  0  0  0
    0.6020   -2.1920    0.0000 C   0  0  0  0  0  0  0  0  0  0  0  0
    1.4270   -1.3670    0.0000 O   0  0  0  0  0  0  0  0  0  0  0  0
    2.1415   -0.9545    0.0000 Si  0  0  0  0  0  0  0  0  0  0  0  0
    2.5540   -1.6690    0.0000 C   0  0  0  0  0  0  0  0  0  0  0  0
    1.7290   -0.2400    0.0000 C   0  0  0  0  0  0  0  0  0  0  0  0
    2.8559   -0.5420    0.0000 O   0  0  0  0  0  0  0  0  0  0  0  0
    2.8559    0.2830    0.0000 Si  0  0  0  0  0  0  0  0  0  0  0  0
    2.8559    1.1080    0.0000 C   0  0  0  0  0  0  0  0  0  0  0  0
    3.6809    0.2830    0.0000 C   0  0  0  0  0  0  0  0  0  0  0  0
    2.0309    0.2830    0.0000 C   0  0  0  0  0  0  0  0  0  0  0  0
  1  2  1  0  0  0  0
  1  3  1  0  0  0  0
  1  4  1  0  0  0  0
  1  5  1  0  0  0  0
  5  6  1  0  0  0  0
  6  7  1  0  0  0  0
  6  8  1  0  0  0  0
  6  9  1  0  0  0  0
  9 10  1  0  0  0  0
 10 11  1  0  0  0  0
 10 12  1  0  0  0  0
 10 13  1  0  0  0  0
M  END
> <ChemID>
100480

> <CAS>
107-51-7

> <Original_SMILES>
C[Si](C)(O[Si](C)(C)C)O[Si](C)(C)C

> <preferred_name>
Octamethyltrisiloxane

> <dsstox_substance_id>
DTXSID9040710

> <dsstox_compound_id>
DTXCID7020710

> <qc_level>
DSSTox_Low

> <Canonical_QSARr>
C[Si](C)(O[Si](C)(C)C)O[Si](C)(C)C

> <InChI_Code_QSARr>
InChI=1S/C8H24O2Si3/c1-11(2,3)9-13(7,8)10-12(4,5)6/h1-8H3

> <InChI Key_QSARr>
CXQXSVUQTKDNFP-UHFFFAOYSA-N

> <Salt_Solvent>


> <Salt_Solvent_ID>
0

> <MPID>
102388

> <HL Reference>
VP/WSOL

> <HL Temperature>
25

> <LogHL>
1.4857214264815821

> <Tr_1_Tst_0>
0

$$$$
100483
  Mrv171c012241914302D          

  6  5  0  0  0  0            999 V2000
    1.8563   -0.3572    0.0000 C   0  0  0  0  0  0  0  0  0  0  0  0
    1.4437    0.3572    0.0000 C   0  0  0  0  0  0  0  0  0  0  0  0
    1.8562    1.0717    0.0000 Br  0  0  0  0  0  0  0  0  0  0  0  0
    1.4438   -1.0717    0.0000 C   0  0  0  0  0  0  0  0  0  0  0  0
    1.8563   -1.7862    0.0000 C   0  0  0  0  0  0  0  0  0  0  0  0
    0.6188   -1.0717    0.0000 C   0  0  0  0  0  0  0  0  0  0  0  0
  1  2  1  0  0  0  0
  2  3  1  0  0  0  0
  1  4  1  0  0  0  0
  4  5  1  0  0  0  0
  4  6  1  0  0  0  0
M  END
> <ChemID>
100483

> <CAS>
107-82-4

> <Original_SMILES>
CC(C)CCBr

> <preferred_name>
Butane, 1-bromo-3-methyl-

> <dsstox_substance_id>
DTXSID7059353

> <dsstox_compound_id>
DTXCID0033045

> <qc_level>
Public_High

> <Canonical_QSARr>
CC(C)CCBr

> <InChI_Code_QSARr>
InChI=1S/C5H11Br/c1-5(2)3-4-6/h5H,3-4H2,1-2H3

> <InChI Key_QSARr>
YXZFFTJAHVMMLF-UHFFFAOYSA-N

> <Salt_Solvent>


> <Salt_Solvent_ID>
0

> <MPID>
102389

> <HL Reference>
HINE,J & MOOKERJEE,PJ (1975)

> <HL Temperature>
25

> <LogHL>
-1.460923901207224

> <Tr_1_Tst_0>
1

$$$$
100485
  Mrv171c012241914302D          

  6  5  0  0  0  0            999 V2000
    1.2962    0.8609    0.0000 C   0  0  0  0  0  0  0  0  0  0  0  0
    0.8837    0.1464    0.0000 C   0  0  0  0  0  0  0  0  0  0  0  0
    1.2962   -0.5681    0.0000 C   0  0  0  0  0  0  0  0  0  0  0  0
    0.8837   -1.2825    0.0000 C   0  0  0  0  0  0  0  0  0  0  0  0
    1.2962   -1.9970    0.0000 C   0  0  0  0  0  0  0  0  0  0  0  0
    0.0587   -1.2825    0.0000 O   0  0  0  0  0  0  0  0  0  0  0  0
  1  2  1  0  0  0  0
  2  3  1  0  0  0  0
  3  4  1  0  0  0  0
  4  5  1  0  0  0  0
  4  6  2  0  0  0  0
M  END
> <ChemID>
100485

> <CAS>
107-87-9

> <Original_SMILES>
CCCC(C)=O

> <preferred_name>
2-Pentanone

> <dsstox_substance_id>
DTXSID0021888

> <dsstox_compound_id>
DTXCID301888

> <qc_level>
DSSTox_Low

> <Canonical_QSARr>
CCCC(C)=O

> <InChI_Code_QSARr>
InChI=1S/C5H10O/c1-3-4-5(2)6/h3-4H2,1-2H3

> <InChI Key_QSARr>
XNLICIUVMPYHGG-UHFFFAOYSA-N

> <Salt_Solvent>


> <Salt_Solvent_ID>
0

> <MPID>
102390

> <HL Reference>
SHIU,WY & MACKAY,D (1997)

> <HL Temperature>
25

> <LogHL>
-4.077793722560984

> <Tr_1_Tst_0>
1

$$$$
100487
  Mrv171c012241914302D          

  6  5  0  0  0  0            999 V2000
    2.5114   -1.8472    0.0000 O   0  0  0  0  0  0  0  0  0  0  0  0
    2.0989   -1.1327    0.0000 C   0  0  0  0  0  0  0  0  0  0  0  0
    2.5114   -0.4182    0.0000 O   0  0  0  0  0  0  0  0  0  0  0  0
    1.2739   -1.1327    0.0000 C   0  0  0  0  0  0  0  0  0  0  0  0
    0.8614   -0.4182    0.0000 C   0  0  0  0  0  0  0  0  0  0  0  0
    0.0364   -0.4182    0.0000 C   0  0  0  0  0  0  0  0  0  0  0  0
  1  2  1  0  0  0  0
  2  3  2  0  0  0  0
  2  4  1  0  0  0  0
  4  5  1  0  0  0  0
  5  6  1  0  0  0  0
M  END
> <ChemID>
100487

> <CAS>
107-92-6

> <Original_SMILES>
CCCC(O)=O

> <preferred_name>
Butanoic acid

> <dsstox_substance_id>
DTXSID8021515

> <dsstox_compound_id>
DTXCID401515

> <qc_level>
DSSTox_Low

> <Canonical_QSARr>
CCCC(O)=O

> <InChI_Code_QSARr>
InChI=1S/C4H8O2/c1-2-3-4(5)6/h2-3H2,1H3,(H,5,6)

> <InChI Key_QSARr>
FERIUCNNQQJTOY-UHFFFAOYSA-N

> <Salt_Solvent>


> <Salt_Solvent_ID>
0

> <MPID>
102391

> <HL Reference>
BUTLER,JAV & RAMCHANDANI,CN (1935)

> <HL Temperature>
25

> <LogHL>
-6.271646217978769

> <Tr_1_Tst_0>
1

$$$$
100488
  Mrv171c012241914302D          

  6  5  0  0  0  0            999 V2000
    2.5119   -1.8448    0.0000 O   0  0  0  0  0  0  0  0  0  0  0  0
    2.0994   -1.1303    0.0000 C   0  0  0  0  0  0  0  0  0  0  0  0
    2.5119   -0.4159    0.0000 C   0  0  0  0  0  0  0  0  0  0  0  0
    1.2744   -1.1303    0.0000 C   0  0  0  0  0  0  0  0  0  0  0  0
    0.8619   -0.4159    0.0000 O   0  0  0  0  0  0  0  0  0  0  0  0
    0.0369   -0.4159    0.0000 C   0  0  0  0  0  0  0  0  0  0  0  0
  1  2  1  0  0  0  0
  2  3  1  0  0  0  0
  2  4  1  0  0  0  0
  4  5  1  0  0  0  0
  5  6  1  0  0  0  0
M  END
> <ChemID>
100488

> <CAS>
107-98-2

> <Original_SMILES>
COCC(C)O

> <preferred_name>
1-Methoxy-2-propanol

> <dsstox_substance_id>
DTXSID8024284

> <dsstox_compound_id>
DTXCID804284

> <qc_level>
DSSTox_Low

> <Canonical_QSARr>
COCC(C)O

> <InChI_Code_QSARr>
InChI=1S/C4H10O2/c1-4(5)3-6-2/h4-5H,3H2,1-2H3

> <InChI Key_QSARr>
ARXJGSRGQADJSQ-UHFFFAOYSA-N

> <Salt_Solvent>


> <Salt_Solvent_ID>
0

> <MPID>
102392

> <HL Reference>
JOHANSON,G & DYNESIUS,B (1988)

> <HL Temperature>
25

> <LogHL>
-6.036212172654433

> <Tr_1_Tst_0>
0

$$$$
100490
  Mrv171c012241914302D          

  6  5  0  0  0  0            999 V2000
    2.5114   -1.8472    0.0000 O   0  0  0  0  0  0  0  0  0  0  0  0
    2.0989   -1.1327    0.0000 N   0  3  0  0  0  0  0  0  0  0  0  0
    2.5114   -0.4182    0.0000 O   0  5  0  0  0  0  0  0  0  0  0  0
    1.2739   -1.1327    0.0000 C   0  0  0  0  0  0  0  0  0  0  0  0
    0.8614   -0.4182    0.0000 C   0  0  0  0  0  0  0  0  0  0  0  0
    0.0364   -0.4182    0.0000 C   0  0  0  0  0  0  0  0  0  0  0  0
  1  2  2  0  0  0  0
  2  3  1  0  0  0  0
  2  4  1  0  0  0  0
  4  5  1  0  0  0  0
  5  6  1  0  0  0  0
M  CHG  2   2   1   3  -1
M  END
> <ChemID>
100490

> <CAS>
108-03-2

> <Original_SMILES>
CCC[N+]([O-])=O

> <preferred_name>
1-Nitropropane

> <dsstox_substance_id>
DTXSID1020980

> <dsstox_compound_id>
DTXCID50980

> <qc_level>
DSSTox_Low

> <Canonical_QSARr>
CCC[N+]([O-])=O

> <InChI_Code_QSARr>
InChI=1S/C3H7NO2/c1-2-3-4(5)6/h2-3H2,1H3

> <InChI Key_QSARr>
JSZOAYXJRCEYSX-UHFFFAOYSA-N

> <Salt_Solvent>


> <Salt_Solvent_ID>
0

> <MPID>
102393

> <HL Reference>
HINE,J & MOOKERJEE,PK (1975)

> <HL Temperature>
25

> <LogHL>
-4.060480747381381

> <Tr_1_Tst_0>
1

$$$$
100493
  Mrv171c012241914302D          

  7  6  0  0  0  0            999 V2000
    1.9010    0.6622    0.0000 N   0  0  0  0  0  0  0  0  0  0  0  0
    1.4885   -0.0522    0.0000 C   0  0  0  0  0  0  0  0  0  0  0  0
    0.6635   -0.0522    0.0000 C   0  0  0  0  0  0  0  0  0  0  0  0
    1.9010   -0.7667    0.0000 C   0  0  0  0  0  0  0  0  0  0  0  0
    1.4885   -1.4812    0.0000 C   0  0  0  0  0  0  0  0  0  0  0  0
    1.9010   -2.1956    0.0000 C   0  0  0  0  0  0  0  0  0  0  0  0
    0.6635   -1.4812    0.0000 C   0  0  0  0  0  0  0  0  0  0  0  0
  1  2  1  0  0  0  0
  2  3  1  0  0  0  0
  2  4  1  0  0  0  0
  4  5  1  0  0  0  0
  5  6  1  0  0  0  0
  5  7  1  0  0  0  0
M  END
> <ChemID>
100493

> <CAS>
108-09-8

> <Original_SMILES>
CC(C)CC(C)N

> <preferred_name>
1,3-Dimethylbutylamine

> <dsstox_substance_id>
DTXSID4025113

> <dsstox_compound_id>
DTXCID205113

> <qc_level>
DSSTox_Low

> <Canonical_QSARr>
CC(C)CC(C)N

> <InChI_Code_QSARr>
InChI=1S/C6H15N/c1-5(2)4-6(3)7/h5-6H,4,7H2,1-3H3

> <InChI Key_QSARr>
UNBMPKNTYKDYCG-UHFFFAOYSA-N

> <Salt_Solvent>


> <Salt_Solvent_ID>
0

> <MPID>
102394

> <HL Reference>
MEYLAN,WM & HOWARD,PH (1991)

> <HL Temperature>
25

> <LogHL>
-4.505845405981541

> <Tr_1_Tst_0>
1

$$$$
100495
  Mrv171c012241914302D          

  7  6  0  0  0  0            999 V2000
    1.9037    0.9592    0.0000 C   0  0  0  0  0  0  0  0  0  0  0  0
    1.4912    0.2447    0.0000 C   0  0  0  0  0  0  0  0  0  0  0  0
    0.6662    0.2447    0.0000 O   0  0  0  0  0  0  0  0  0  0  0  0
    1.9037   -0.4698    0.0000 C   0  0  0  0  0  0  0  0  0  0  0  0
    1.4912   -1.1843    0.0000 C   0  0  0  0  0  0  0  0  0  0  0  0
    1.9037   -1.8987    0.0000 C   0  0  0  0  0  0  0  0  0  0  0  0
    0.6662   -1.1843    0.0000 C   0  0  0  0  0  0  0  0  0  0  0  0
  1  2  1  0  0  0  0
  2  3  1  0  0  0  0
  2  4  1  0  0  0  0
  4  5  1  0  0  0  0
  5  6  1  0  0  0  0
  5  7  1  0  0  0  0
M  END
> <ChemID>
100495

> <CAS>
108-11-2

> <Original_SMILES>
CC(C)CC(C)O

> <preferred_name>
4-Methyl-2-pentanol

> <dsstox_substance_id>
DTXSID2026781

> <dsstox_compound_id>
DTXCID806781

> <qc_level>
DSSTox_Low

> <Canonical_QSARr>
CC(C)CC(C)O

> <InChI_Code_QSARr>
InChI=1S/C6H14O/c1-5(2)4-6(3)7/h5-7H,4H2,1-3H3

> <InChI Key_QSARr>
WVYWICLMDOOCFB-UHFFFAOYSA-N

> <Salt_Solvent>


> <Salt_Solvent_ID>
0

> <MPID>
102395

> <HL Reference>
HINE,J & MOOKERJEE,PK (1975)

> <HL Temperature>
25

> <LogHL>
-4.351639989019077

> <Tr_1_Tst_0>
1

$$$$
100497
  Mrv171c012241914302D          

  7  6  0  0  0  0            999 V2000
    1.9012    0.6622    0.0000 C   0  0  0  0  0  0  0  0  0  0  0  0
    1.4887   -0.0523    0.0000 C   0  0  0  0  0  0  0  0  0  0  0  0
    1.9012   -0.7668    0.0000 O   0  0  0  0  0  0  0  0  0  0  0  0
    1.4887   -1.4812    0.0000 C   0  0  0  0  0  0  0  0  0  0  0  0
    1.9012   -2.1957    0.0000 C   0  0  0  0  0  0  0  0  0  0  0  0
    0.6637   -1.4812    0.0000 C   0  0  0  0  0  0  0  0  0  0  0  0
    0.6637   -0.0523    0.0000 C   0  0  0  0  0  0  0  0  0  0  0  0
  1  2  1  0  0  0  0
  2  3  1  0  0  0  0
  3  4  1  0  0  0  0
  4  5  1  0  0  0  0
  4  6  1  0  0  0  0
  2  7  1  0  0  0  0
M  END
> <ChemID>
100497

> <CAS>
108-20-3

> <Original_SMILES>
CC(C)OC(C)C

> <preferred_name>
Isopropyl ether

> <dsstox_substance_id>
DTXSID4021890

> <dsstox_compound_id>
DTXCID401890

> <qc_level>
DSSTox_Low

> <Canonical_QSARr>
CC(C)OC(C)C

> <InChI_Code_QSARr>
InChI=1S/C6H14O/c1-5(2)7-6(3)4/h5-6H,1-4H3

> <InChI Key_QSARr>
ZAFNJMIOTHYJRJ-UHFFFAOYSA-N

> <Salt_Solvent>


> <Salt_Solvent_ID>
0

> <MPID>
102396

> <HL Reference>
PETER,H & SCHMIDT,TC (2004)

> <HL Temperature>
25

> <LogHL>
-2.5917600346881517

> <Tr_1_Tst_0>
1

$$$$
100498
  Mrv171c012241914302D          

  7  6  0  0  0  0            999 V2000
    1.9012   -0.7668    0.0000 O   0  0  0  0  0  0  0  0  0  0  0  0
    1.4887   -0.0523    0.0000 C   0  0  0  0  0  0  0  0  0  0  0  0
    1.9012    0.6622    0.0000 O   0  0  0  0  0  0  0  0  0  0  0  0
    0.6637   -0.0523    0.0000 C   0  0  0  0  0  0  0  0  0  0  0  0
    1.4887   -1.4813    0.0000 C   0  0  0  0  0  0  0  0  0  0  0  0
    1.9012   -2.1957    0.0000 C   0  0  0  0  0  0  0  0  0  0  0  0
    0.6637   -1.4813    0.0000 C   0  0  0  0  0  0  0  0  0  0  0  0
  1  2  1  0  0  0  0
  2  3  2  0  0  0  0
  2  4  1  0  0  0  0
  1  5  1  0  0  0  0
  5  6  1  0  0  0  0
  5  7  1  0  0  0  0
M  END
> <ChemID>
100498

> <CAS>
108-21-4

> <Original_SMILES>
CC(C)OC(C)=O

> <preferred_name>
Isopropyl acetate

> <dsstox_substance_id>
DTXSID2025478

> <dsstox_compound_id>
DTXCID605478

> <qc_level>
DSSTox_Low

> <Canonical_QSARr>
CC(C)OC(C)=O

> <InChI_Code_QSARr>
InChI=1S/C5H10O2/c1-4(2)7-5(3)6/h4H,1-3H3

> <InChI Key_QSARr>
JMMWKPVZQRWMSS-UHFFFAOYSA-N

> <Salt_Solvent>


> <Salt_Solvent_ID>
0

> <MPID>
102397

> <HL Reference>
BETTERTON,EA (1992A)

> <HL Temperature>
25

> <LogHL>
-3.5559552040819247

> <Tr_1_Tst_0>
1

$$$$
100502
  Mrv171c012241914302D          

  8  8  0  0  0  0            999 V2000
    1.7055   -3.2018    0.0000 C   0  0  0  0  0  0  0  0  0  0  0  0
    2.4199   -2.7893    0.0000 C   0  0  0  0  0  0  0  0  0  0  0  0
    2.4199   -1.9643    0.0000 C   0  0  0  0  0  0  0  0  0  0  0  0
    1.7055   -1.5518    0.0000 C   0  0  0  0  0  0  0  0  0  0  0  0
    1.7055   -0.7268    0.0000 C   0  0  0  0  0  0  0  0  0  0  0  0
    0.9910   -1.9643    0.0000 C   0  0  0  0  0  0  0  0  0  0  0  0
    0.9910   -2.7893    0.0000 C   0  0  0  0  0  0  0  0  0  0  0  0
    0.2765   -3.2018    0.0000 C   0  0  0  0  0  0  0  0  0  0  0  0
  2  1  2  0  0  0  0
  3  2  1  0  0  0  0
  4  3  2  0  0  0  0
  4  5  1  0  0  0  0
  6  4  1  0  0  0  0
  7  6  2  0  0  0  0
  1  7  1  0  0  0  0
  7  8  1  0  0  0  0
M  END
> <ChemID>
100502

> <CAS>
108-38-3

> <Original_SMILES>
Cc1cc(C)ccc1

> <preferred_name>
m-Xylene

> <dsstox_substance_id>
DTXSID6026298

> <dsstox_compound_id>
DTXCID501446

> <qc_level>
DSSTox_Low

> <Canonical_QSARr>
CC1=CC(C)=CC=C1

> <InChI_Code_QSARr>
InChI=1S/C8H10/c1-7-4-3-5-8(2)6-7/h3-6H,1-2H3

> <InChI Key_QSARr>
IVSZLXZYQVIEFR-UHFFFAOYSA-N

> <Salt_Solvent>


> <Salt_Solvent_ID>
0

> <MPID>
102398

> <HL Reference>
SANEMASA,I ET AL. (1982)

> <HL Temperature>
25

> <LogHL>
-2.143875555757702

> <Tr_1_Tst_0>
1

$$$$
100503
  Mrv171c012241914302D          

  8  8  0  0  0  0            999 V2000
    1.4204   -1.2373    0.0000 C   0  0  0  0  0  0  0  0  0  0  0  0
    0.7059   -0.8248    0.0000 C   0  0  0  0  0  0  0  0  0  0  0  0
    0.7059    0.0002    0.0000 C   0  0  0  0  0  0  0  0  0  0  0  0
   -0.0085   -1.2373    0.0000 C   0  0  0  0  0  0  0  0  0  0  0  0
   -0.0085   -2.0623    0.0000 C   0  0  0  0  0  0  0  0  0  0  0  0
    0.7059   -2.4748    0.0000 C   0  0  0  0  0  0  0  0  0  0  0  0
    1.4204   -2.0623    0.0000 C   0  0  0  0  0  0  0  0  0  0  0  0
    2.1349   -2.4748    0.0000 O   0  0  0  0  0  0  0  0  0  0  0  0
  2  1  2  0  0  0  0
  2  3  1  0  0  0  0
  4  2  1  0  0  0  0
  5  4  2  0  0  0  0
  6  5  1  0  0  0  0
  7  6  2  0  0  0  0
  1  7  1  0  0  0  0
  7  8  1  0  0  0  0
M  END
> <ChemID>
100503

> <CAS>
108-39-4

> <Original_SMILES>
Cc1cc(O)ccc1

> <preferred_name>
m-Cresol

> <dsstox_substance_id>
DTXSID6024200

> <dsstox_compound_id>
DTXCID804200

> <qc_level>
DSSTox_Low

> <Canonical_QSARr>
CC1=CC(O)=CC=C1

> <InChI_Code_QSARr>
InChI=1S/C7H8O/c1-6-3-2-4-7(8)5-6/h2-5,8H,1H3

> <InChI Key_QSARr>
RLSSMJSEOOYNOY-UHFFFAOYSA-N

> <Salt_Solvent>


> <Salt_Solvent_ID>
0

> <MPID>
102399

> <HL Reference>
ALTSCHUH,J ET AL. (1999)

> <HL Temperature>
25

> <LogHL>
-6.06752623532286

> <Tr_1_Tst_0>
1

$$$$
100505
  Mrv171c012241914302D          

  8  8  0  0  0  0            999 V2000
    2.6801   -1.9594    0.0000 Cl  0  0  0  0  0  0  0  0  0  0  0  0
    1.9657   -1.5469    0.0000 C   0  0  0  0  0  0  0  0  0  0  0  0
    1.9657   -0.7219    0.0000 C   0  0  0  0  0  0  0  0  0  0  0  0
    1.2512   -0.3094    0.0000 C   0  0  0  0  0  0  0  0  0  0  0  0
    1.2512    0.5156    0.0000 N   0  0  0  0  0  0  0  0  0  0  0  0
    0.5367   -0.7219    0.0000 C   0  0  0  0  0  0  0  0  0  0  0  0
    0.5367   -1.5469    0.0000 C   0  0  0  0  0  0  0  0  0  0  0  0
    1.2512   -1.9594    0.0000 C   0  0  0  0  0  0  0  0  0  0  0  0
  1  2  1  0  0  0  0
  3  2  1  0  0  0  0
  4  3  2  0  0  0  0
  4  5  1  0  0  0  0
  6  4  1  0  0  0  0
  7  6  2  0  0  0  0
  8  7  1  0  0  0  0
  2  8  2  0  0  0  0
M  END
> <ChemID>
100505

> <CAS>
108-42-9

> <Original_SMILES>
Nc1cc(Cl)ccc1

> <preferred_name>
3-Chloroaniline

> <dsstox_substance_id>
DTXSID0024761

> <dsstox_compound_id>
DTXCID004761

> <qc_level>
DSSTox_Low

> <Canonical_QSARr>
NC1=CC(Cl)=CC=C1

> <InChI_Code_QSARr>
InChI=1S/C6H6ClN/c7-5-2-1-3-6(8)4-5/h1-4H,8H2

> <InChI Key_QSARr>
PNPCRKVUWYDDST-UHFFFAOYSA-N

> <Salt_Solvent>


> <Salt_Solvent_ID>
0

> <MPID>
102400

> <HL Reference>
ALTSCHUH,J ET AL. (1999)

> <HL Temperature>
25

> <LogHL>
-6.000000000000011

> <Tr_1_Tst_0>
1

$$$$
100506
  Mrv171c012241914302D          

  8  8  0  0  0  0            999 V2000
    2.6801   -1.9594    0.0000 Cl  0  0  0  0  0  0  0  0  0  0  0  0
    1.9657   -1.5469    0.0000 C   0  0  0  0  0  0  0  0  0  0  0  0
    1.9657   -0.7219    0.0000 C   0  0  0  0  0  0  0  0  0  0  0  0
    1.2512   -0.3094    0.0000 C   0  0  0  0  0  0  0  0  0  0  0  0
    1.2512    0.5156    0.0000 O   0  0  0  0  0  0  0  0  0  0  0  0
    0.5367   -0.7219    0.0000 C   0  0  0  0  0  0  0  0  0  0  0  0
    0.5367   -1.5469    0.0000 C   0  0  0  0  0  0  0  0  0  0  0  0
    1.2512   -1.9594    0.0000 C   0  0  0  0  0  0  0  0  0  0  0  0
  1  2  1  0  0  0  0
  3  2  1  0  0  0  0
  4  3  2  0  0  0  0
  4  5  1  0  0  0  0
  6  4  1  0  0  0  0
  7  6  2  0  0  0  0
  8  7  1  0  0  0  0
  2  8  2  0  0  0  0
M  END
> <ChemID>
100506

> <CAS>
108-43-0

> <Original_SMILES>
Oc1cc(Cl)ccc1

> <preferred_name>
3-Chlorophenol

> <dsstox_substance_id>
DTXSID4024800

> <dsstox_compound_id>
DTXCID004800

> <qc_level>
DSSTox_Low

> <Canonical_QSARr>
OC1=CC(Cl)=CC=C1

> <InChI_Code_QSARr>
InChI=1S/C6H5ClO/c7-5-2-1-3-6(8)4-5/h1-4,8H

> <InChI Key_QSARr>
HORNXRXVQWOLPJ-UHFFFAOYSA-N

> <Salt_Solvent>


> <Salt_Solvent_ID>
0

> <MPID>
102401

> <HL Reference>
ABRAHAM,MH ET AL. (1994)

> <HL Temperature>
25

> <LogHL>
-6.462180904926746

> <Tr_1_Tst_0>
1

$$$$
100507
  Mrv171c012241914302D          

  8  8  0  0  0  0            999 V2000
    1.7888   -2.0612    0.0000 C   0  0  0  0  0  0  0  0  0  0  0  0
    2.5033   -2.4737    0.0000 N   0  0  0  0  0  0  0  0  0  0  0  0
    1.7888   -1.2362    0.0000 C   0  0  0  0  0  0  0  0  0  0  0  0
    1.0743   -0.8237    0.0000 C   0  0  0  0  0  0  0  0  0  0  0  0
    1.0743    0.0013    0.0000 C   0  0  0  0  0  0  0  0  0  0  0  0
    0.3599   -1.2362    0.0000 C   0  0  0  0  0  0  0  0  0  0  0  0
    0.3599   -2.0612    0.0000 C   0  0  0  0  0  0  0  0  0  0  0  0
    1.0743   -2.4737    0.0000 C   0  0  0  0  0  0  0  0  0  0  0  0
  1  2  1  0  0  0  0
  3  1  1  0  0  0  0
  4  3  2  0  0  0  0
  4  5  1  0  0  0  0
  6  4  1  0  0  0  0
  7  6  2  0  0  0  0
  8  7  1  0  0  0  0
  1  8  2  0  0  0  0
M  END
> <ChemID>
100507

> <CAS>
108-44-1

> <Original_SMILES>
Cc1cc(N)ccc1

> <preferred_name>
3-Methylaniline

> <dsstox_substance_id>
DTXSID1026792

> <dsstox_compound_id>
DTXCID506792

> <qc_level>
DSSTox_Low

> <Canonical_QSARr>
CC1=CC(N)=CC=C1

> <InChI_Code_QSARr>
InChI=1S/C7H9N/c1-6-3-2-4-7(8)5-6/h2-5H,8H2,1H3

> <InChI Key_QSARr>
JJYPMNFTHPTTDI-UHFFFAOYSA-N

> <Salt_Solvent>


> <Salt_Solvent_ID>
0

> <MPID>
102402

> <HL Reference>
ALTSCHUH,J ET AL. (1999)

> <HL Temperature>
25

> <LogHL>
-5.779891911959935

> <Tr_1_Tst_0>
1

$$$$
100510
  Mrv171c012241914302D          

  8  8  0  0  0  0            999 V2000
    1.7881   -1.2413    0.0000 N   0  0  0  0  0  0  0  0  0  0  0  0
    1.0736   -0.8287    0.0000 C   0  0  0  0  0  0  0  0  0  0  0  0
    1.0736   -0.0037    0.0000 C   0  0  0  0  0  0  0  0  0  0  0  0
    0.3592   -1.2412    0.0000 C   0  0  0  0  0  0  0  0  0  0  0  0
    0.3592   -2.0662    0.0000 C   0  0  0  0  0  0  0  0  0  0  0  0
   -0.3553   -2.4787    0.0000 C   0  0  0  0  0  0  0  0  0  0  0  0
    1.0736   -2.4788    0.0000 C   0  0  0  0  0  0  0  0  0  0  0  0
    1.7881   -2.0663    0.0000 C   0  0  0  0  0  0  0  0  0  0  0  0
  2  1  1  0  0  0  0
  2  3  1  0  0  0  0
  4  2  2  0  0  0  0
  5  4  1  0  0  0  0
  5  6  1  0  0  0  0
  7  5  2  0  0  0  0
  8  7  1  0  0  0  0
  1  8  2  0  0  0  0
M  END
> <ChemID>
100510

> <CAS>
108-47-4

> <Original_SMILES>
Cc1cc(C)[n]cc1

> <preferred_name>
2,4-Dimethylpyridine

> <dsstox_substance_id>
DTXSID2051556

> <dsstox_compound_id>
DTXCID6030108

> <qc_level>
DSSTox_High

> <Canonical_QSARr>
CC1C=C(C)N=CC=1

> <InChI_Code_QSARr>
InChI=1S/C7H9N/c1-6-3-4-8-7(2)5-6/h3-5H,1-2H3

> <InChI Key_QSARr>
JYYNAJVZFGKDEQ-UHFFFAOYSA-N

> <Salt_Solvent>


> <Salt_Solvent_ID>
0

> <MPID>
102403

> <HL Reference>
ANDON,RJL ET AL. (1954)

> <HL Temperature>
25

> <LogHL>
-5.171340103464697

> <Tr_1_Tst_0>
1

$$$$
100511
  Mrv171c012241914302D          

  8  8  0  0  0  0            999 V2000
    1.9633   -0.3094    0.0000 N   0  0  0  0  0  0  0  0  0  0  0  0
    1.2488    0.1031    0.0000 C   0  0  0  0  0  0  0  0  0  0  0  0
    1.2488    0.9281    0.0000 C   0  0  0  0  0  0  0  0  0  0  0  0
    0.5344   -0.3094    0.0000 C   0  0  0  0  0  0  0  0  0  0  0  0
    0.5344   -1.1344    0.0000 C   0  0  0  0  0  0  0  0  0  0  0  0
    1.2488   -1.5469    0.0000 C   0  0  0  0  0  0  0  0  0  0  0  0
    1.9633   -1.1344    0.0000 C   0  0  0  0  0  0  0  0  0  0  0  0
    2.6778   -1.5469    0.0000 C   0  0  0  0  0  0  0  0  0  0  0  0
  2  1  1  0  0  0  0
  2  3  1  0  0  0  0
  4  2  2  0  0  0  0
  5  4  1  0  0  0  0
  6  5  2  0  0  0  0
  7  6  1  0  0  0  0
  1  7  2  0  0  0  0
  7  8  1  0  0  0  0
M  END
> <ChemID>
100511

> <CAS>
108-48-5

> <Original_SMILES>
Cc1cccc(C)[n]1

> <preferred_name>
2,6-Dimethylpyridine

> <dsstox_substance_id>
DTXSID7051557

> <dsstox_compound_id>
DTXCID1030109

> <qc_level>
DSSTox_High

> <Canonical_QSARr>
CC1C=CC=C(C)N=1

> <InChI_Code_QSARr>
InChI=1S/C7H9N/c1-6-4-3-5-7(2)8-6/h3-5H,1-2H3

> <InChI Key_QSARr>
OISVCGZHLKNMSJ-UHFFFAOYSA-N

> <Salt_Solvent>


> <Salt_Solvent_ID>
0

> <MPID>
102404

> <HL Reference>
ANDON,RJL ET AL. (1954)

> <HL Temperature>
25

> <LogHL>
-4.982966660701199

> <Tr_1_Tst_0>
1

$$$$
100515
  Mrv171c012241914302D          

  9  9  0  0  0  0            999 V2000
    2.1349   -2.0567    0.0000 C   0  0  0  0  0  0  0  0  0  0  0  0
    2.8494   -2.4692    0.0000 C   0  0  0  0  0  0  0  0  0  0  0  0
    2.1349   -1.2317    0.0000 C   0  0  0  0  0  0  0  0  0  0  0  0
    1.4204   -0.8192    0.0000 C   0  0  0  0  0  0  0  0  0  0  0  0
    1.4204    0.0058    0.0000 C   0  0  0  0  0  0  0  0  0  0  0  0
    0.7060   -1.2317    0.0000 C   0  0  0  0  0  0  0  0  0  0  0  0
    0.7060   -2.0567    0.0000 C   0  0  0  0  0  0  0  0  0  0  0  0
   -0.0085   -2.4692    0.0000 C   0  0  0  0  0  0  0  0  0  0  0  0
    1.4204   -2.4692    0.0000 C   0  0  0  0  0  0  0  0  0  0  0  0
  1  2  1  0  0  0  0
  3  1  1  0  0  0  0
  4  3  2  0  0  0  0
  4  5  1  0  0  0  0
  6  4  1  0  0  0  0
  7  6  2  0  0  0  0
  7  8  1  0  0  0  0
  9  7  1  0  0  0  0
  1  9  2  0  0  0  0
M  END
> <ChemID>
100515

> <CAS>
108-67-8

> <Original_SMILES>
Cc1cc(C)cc(C)c1

> <preferred_name>
1,3,5-Trimethylbenzene

> <dsstox_substance_id>
DTXSID6026797

> <dsstox_compound_id>
DTXCID506797

> <qc_level>
DSSTox_Low

> <Canonical_QSARr>
CC1C=C(C)C=C(C)C=1

> <InChI_Code_QSARr>
InChI=1S/C9H12/c1-7-4-8(2)6-9(3)5-7/h4-6H,1-3H3

> <InChI Key_QSARr>
AUHZEENZYGFFBQ-UHFFFAOYSA-N

> <Salt_Solvent>


> <Salt_Solvent_ID>
0

> <MPID>
102405

> <HL Reference>
SANEMASA,I ET AL. (1982)

> <HL Temperature>
25

> <LogHL>
-2.057000406633961

> <Tr_1_Tst_0>
1

$$$$
100516
  Mrv171c012241914302D          

  9  9  0  0  0  0            999 V2000
    3.0801   -2.2547    0.0000 C   0  0  0  0  0  0  0  0  0  0  0  0
    2.3656   -1.8422    0.0000 C   0  0  0  0  0  0  0  0  0  0  0  0
    2.3656   -1.0172    0.0000 C   0  0  0  0  0  0  0  0  0  0  0  0
    1.6512   -0.6047    0.0000 C   0  0  0  0  0  0  0  0  0  0  0  0
    1.6512    0.2203    0.0000 O   0  0  0  0  0  0  0  0  0  0  0  0
    0.9367   -1.0172    0.0000 C   0  0  0  0  0  0  0  0  0  0  0  0
    0.9367   -1.8422    0.0000 C   0  0  0  0  0  0  0  0  0  0  0  0
    0.2222   -2.2547    0.0000 C   0  0  0  0  0  0  0  0  0  0  0  0
    1.6512   -2.2547    0.0000 C   0  0  0  0  0  0  0  0  0  0  0  0
  1  2  1  0  0  0  0
  3  2  1  0  0  0  0
  4  3  2  0  0  0  0
  4  5  1  0  0  0  0
  6  4  1  0  0  0  0
  7  6  2  0  0  0  0
  7  8  1  0  0  0  0
  9  7  1  0  0  0  0
  2  9  2  0  0  0  0
M  END
> <ChemID>
100516

> <CAS>
108-68-9

> <Original_SMILES>
Cc1cc(O)cc(C)c1

> <preferred_name>
3,5-Dimethylphenol

> <dsstox_substance_id>
DTXSID1025148

> <dsstox_compound_id>
DTXCID105148

> <qc_level>
DSSTox_Low

> <Canonical_QSARr>
CC1=CC(O)=CC(C)=C1

> <InChI_Code_QSARr>
InChI=1S/C8H10O/c1-6-3-7(2)5-8(9)4-6/h3-5,9H,1-2H3

> <InChI Key_QSARr>
TUAMRELNJMMDMT-UHFFFAOYSA-N

> <Salt_Solvent>


> <Salt_Solvent_ID>
0

> <MPID>
102406

> <HL Reference>
ABRAHAM,MH ET AL. (1994)

> <HL Temperature>
25

> <LogHL>
-6.211831628858845

> <Tr_1_Tst_0>
0

$$$$
100517
  Mrv171c012241914302D          

  9  9  0  0  0  0            999 V2000
    2.3656   -1.8422    0.0000 C   0  0  0  0  0  0  0  0  0  0  0  0
    3.0801   -2.2547    0.0000 Cl  0  0  0  0  0  0  0  0  0  0  0  0
    2.3656   -1.0172    0.0000 C   0  0  0  0  0  0  0  0  0  0  0  0
    1.6512   -0.6047    0.0000 C   0  0  0  0  0  0  0  0  0  0  0  0
    1.6512    0.2203    0.0000 Cl  0  0  0  0  0  0  0  0  0  0  0  0
    0.9367   -1.0172    0.0000 C   0  0  0  0  0  0  0  0  0  0  0  0
    0.9367   -1.8422    0.0000 C   0  0  0  0  0  0  0  0  0  0  0  0
    0.2222   -2.2547    0.0000 Cl  0  0  0  0  0  0  0  0  0  0  0  0
    1.6512   -2.2547    0.0000 C   0  0  0  0  0  0  0  0  0  0  0  0
  1  2  1  0  0  0  0
  3  1  1  0  0  0  0
  4  3  2  0  0  0  0
  4  5  1  0  0  0  0
  6  4  1  0  0  0  0
  7  6  2  0  0  0  0
  7  8  1  0  0  0  0
  9  7  1  0  0  0  0
  1  9  2  0  0  0  0
M  END
> <ChemID>
100517

> <CAS>
108-70-3

> <Original_SMILES>
Clc1cc(Cl)cc(Cl)c1

> <preferred_name>
1,3,5-Trichlorobenzene

> <dsstox_substance_id>
DTXSID8026195

> <dsstox_compound_id>
DTXCID506195

> <qc_level>
DSSTox_High

> <Canonical_QSARr>
ClC1C=C(Cl)C=C(Cl)C=1

> <InChI_Code_QSARr>
InChI=1S/C6H3Cl3/c7-4-1-5(8)3-6(9)2-4/h1-3H

> <InChI Key_QSARr>
XKEFYDZQGKAQCN-UHFFFAOYSA-N

> <Salt_Solvent>


> <Salt_Solvent_ID>
0

> <MPID>
102407

> <HL Reference>
SHIU,WY & MACKAY,D (1997)

> <HL Temperature>
25

> <LogHL>
-2.723538195826757

> <Tr_1_Tst_0>
1

$$$$
100523
  Mrv171c012241914302D          

  7  7  0  0  0  0            999 V2000
    1.4153   -0.1250    0.0000 C   0  0  0  0  0  0  0  0  0  0  0  0
    1.4153    0.7000    0.0000 Br  0  0  0  0  0  0  0  0  0  0  0  0
    0.7009   -0.5375    0.0000 C   0  0  0  0  0  0  0  0  0  0  0  0
    0.7009   -1.3625    0.0000 C   0  0  0  0  0  0  0  0  0  0  0  0
    1.4153   -1.7750    0.0000 C   0  0  0  0  0  0  0  0  0  0  0  0
    2.1298   -1.3625    0.0000 C   0  0  0  0  0  0  0  0  0  0  0  0
    2.1298   -0.5375    0.0000 C   0  0  0  0  0  0  0  0  0  0  0  0
  1  2  1  0  0  0  0
  3  1  1  0  0  0  0
  4  3  2  0  0  0  0
  5  4  1  0  0  0  0
  6  5  2  0  0  0  0
  7  6  1  0  0  0  0
  1  7  2  0  0  0  0
M  END
> <ChemID>
100523

> <CAS>
108-86-1

> <Original_SMILES>
Brc1ccccc1

> <preferred_name>
Bromobenzene

> <dsstox_substance_id>
DTXSID5024637

> <dsstox_compound_id>
DTXCID304637

> <qc_level>
DSSTox_Low

> <Canonical_QSARr>
BrC1C=CC=CC=1

> <InChI_Code_QSARr>
InChI=1S/C6H5Br/c7-6-4-2-1-3-5-6/h1-5H

> <InChI Key_QSARr>
QARVLSVVCXYDNA-UHFFFAOYSA-N

> <Salt_Solvent>


> <Salt_Solvent_ID>
0

> <MPID>
102408

> <HL Reference>
SHIU,WY & MACKAY,D (1997)

> <HL Temperature>
25

> <LogHL>
-2.6073030467403338

> <Tr_1_Tst_0>
1

$$$$
100524
  Mrv171c012241914302D          

  7  7  0  0  0  0            999 V2000
    1.4305   -1.2414    0.0000 C   0  0  0  0  0  0  0  0  0  0  0  0
    0.7160   -0.8289    0.0000 C   0  0  0  0  0  0  0  0  0  0  0  0
    0.7160   -0.0039    0.0000 C   0  0  0  0  0  0  0  0  0  0  0  0
    0.0015   -1.2414    0.0000 C   0  0  0  0  0  0  0  0  0  0  0  0
    0.0015   -2.0664    0.0000 C   0  0  0  0  0  0  0  0  0  0  0  0
    0.7160   -2.4789    0.0000 C   0  0  0  0  0  0  0  0  0  0  0  0
    1.4305   -2.0664    0.0000 C   0  0  0  0  0  0  0  0  0  0  0  0
  2  1  1  0  0  0  0
  2  3  1  0  0  0  0
  4  2  1  0  0  0  0
  5  4  1  0  0  0  0
  6  5  1  0  0  0  0
  7  6  1  0  0  0  0
  1  7  1  0  0  0  0
M  END
> <ChemID>
100524

> <CAS>
108-87-2

> <Original_SMILES>
CC1CCCCC1

> <preferred_name>
Methylcyclohexane

> <dsstox_substance_id>
DTXSID0047749

> <dsstox_compound_id>
DTXCID4027733

> <qc_level>
DSSTox_Low

> <Canonical_QSARr>
CC1CCCCC1

> <InChI_Code_QSARr>
InChI=1S/C7H14/c1-7-5-3-2-4-6-7/h7H,2-6H2,1H3

> <InChI Key_QSARr>
UAEPNZWRGJTJPN-UHFFFAOYSA-N

> <Salt_Solvent>


> <Salt_Solvent_ID>
0

> <MPID>
102409

> <HL Reference>
HINE,J & MOOKERJEE,PK (1975)

> <HL Temperature>
25

> <LogHL>
-0.36653154442041347

> <Tr_1_Tst_0>
0

$$$$
100525
  Mrv171c012241914302D          

  7  7  0  0  0  0            999 V2000
    1.4153    0.7000    0.0000 C   0  0  0  0  0  0  0  0  0  0  0  0
    1.4153   -0.1250    0.0000 C   0  0  0  0  0  0  0  0  0  0  0  0
    0.7009   -0.5375    0.0000 C   0  0  0  0  0  0  0  0  0  0  0  0
    0.7009   -1.3625    0.0000 C   0  0  0  0  0  0  0  0  0  0  0  0
    1.4153   -1.7750    0.0000 C   0  0  0  0  0  0  0  0  0  0  0  0
    2.1298   -1.3625    0.0000 C   0  0  0  0  0  0  0  0  0  0  0  0
    2.1298   -0.5375    0.0000 C   0  0  0  0  0  0  0  0  0  0  0  0
  1  2  1  0  0  0  0
  3  2  1  0  0  0  0
  4  3  2  0  0  0  0
  5  4  1  0  0  0  0
  6  5  2  0  0  0  0
  7  6  1  0  0  0  0
  2  7  2  0  0  0  0
M  END
> <ChemID>
100525

> <CAS>
108-88-3

> <Original_SMILES>
Cc1ccccc1

> <preferred_name>
Toluene

> <dsstox_substance_id>
DTXSID7021360

> <dsstox_compound_id>
DTXCID501360

> <qc_level>
DSSTox_Low

> <Canonical_QSARr>
CC1C=CC=CC=1

> <InChI_Code_QSARr>
InChI=1S/C7H8/c1-7-5-3-2-4-6-7/h2-6H,1H3

> <InChI Key_QSARr>
YXFVVABEGXRONW-UHFFFAOYSA-N

> <Salt_Solvent>


> <Salt_Solvent_ID>
0

> <MPID>
102410

> <HL Reference>
MACKAY,D ET AL. (1979)

> <HL Temperature>
25

> <LogHL>
-2.1778319206319803

> <Tr_1_Tst_0>
1

$$$$
100526
  Mrv171c012241914302D          

  7  7  0  0  0  0            999 V2000
    1.4153   -1.7750    0.0000 N   0  0  0  0  0  0  0  0  0  0  0  0
    2.1298   -1.3625    0.0000 C   0  0  0  0  0  0  0  0  0  0  0  0
    2.1298   -0.5375    0.0000 C   0  0  0  0  0  0  0  0  0  0  0  0
    1.4153   -0.1250    0.0000 C   0  0  0  0  0  0  0  0  0  0  0  0
    1.4153    0.7000    0.0000 C   0  0  0  0  0  0  0  0  0  0  0  0
    0.7009   -0.5375    0.0000 C   0  0  0  0  0  0  0  0  0  0  0  0
    0.7009   -1.3625    0.0000 C   0  0  0  0  0  0  0  0  0  0  0  0
  2  1  1  0  0  0  0
  3  2  2  0  0  0  0
  4  3  1  0  0  0  0
  4  5  1  0  0  0  0
  6  4  2  0  0  0  0
  7  6  1  0  0  0  0
  1  7  2  0  0  0  0
M  END
> <ChemID>
100526

> <CAS>
108-89-4

> <Original_SMILES>
Cc1cc[n]cc1

> <preferred_name>
4-Methylpyridine

> <dsstox_substance_id>
DTXSID4021892

> <dsstox_compound_id>
DTXCID201892

> <qc_level>
DSSTox_Low

> <Canonical_QSARr>
CC1C=CN=CC=1

> <InChI_Code_QSARr>
InChI=1S/C6H7N/c1-6-2-4-7-5-3-6/h2-5H,1H3

> <InChI Key_QSARr>
FKNQCJSGGFJEIZ-UHFFFAOYSA-N

> <Salt_Solvent>


> <Salt_Solvent_ID>
0

> <MPID>
102411

> <HL Reference>
ANDON,RJL ET AL. (1954)

> <HL Temperature>
25

> <LogHL>
-5.221848749616347

> <Tr_1_Tst_0>
1

$$$$
100527
  Mrv171c012241914302D          

  7  7  0  0  0  0            999 V2000
    1.4153    0.7000    0.0000 Cl  0  0  0  0  0  0  0  0  0  0  0  0
    1.4153   -0.1250    0.0000 C   0  0  0  0  0  0  0  0  0  0  0  0
    0.7009   -0.5375    0.0000 C   0  0  0  0  0  0  0  0  0  0  0  0
    0.7009   -1.3625    0.0000 C   0  0  0  0  0  0  0  0  0  0  0  0
    1.4153   -1.7750    0.0000 C   0  0  0  0  0  0  0  0  0  0  0  0
    2.1298   -1.3625    0.0000 C   0  0  0  0  0  0  0  0  0  0  0  0
    2.1298   -0.5375    0.0000 C   0  0  0  0  0  0  0  0  0  0  0  0
  1  2  1  0  0  0  0
  3  2  1  0  0  0  0
  4  3  2  0  0  0  0
  5  4  1  0  0  0  0
  6  5  2  0  0  0  0
  7  6  1  0  0  0  0
  2  7  2  0  0  0  0
M  END
> <ChemID>
100527

> <CAS>
108-90-7

> <Original_SMILES>
Clc1ccccc1

> <preferred_name>
Chlorobenzene

> <dsstox_substance_id>
DTXSID4020298

> <dsstox_compound_id>
DTXCID40298

> <qc_level>
DSSTox_Low

> <Canonical_QSARr>
ClC1C=CC=CC=1

> <InChI_Code_QSARr>
InChI=1S/C6H5Cl/c7-6-4-2-1-3-5-6/h1-5H

> <InChI Key_QSARr>
MVPPADPHJFYWMZ-UHFFFAOYSA-N

> <Salt_Solvent>


> <Salt_Solvent_ID>
0

> <MPID>
102412

> <HL Reference>
SHIU,WY & MACKAY,D (1997)

> <HL Temperature>
25

> <LogHL>
-2.5072396109731647

> <Tr_1_Tst_0>
1

$$$$
100528
  Mrv171c012241914302D          

  7  7  0  0  0  0            999 V2000
    1.4182    0.6983    0.0000 N   0  0  0  0  0  0  0  0  0  0  0  0
    1.4182   -0.1267    0.0000 C   0  0  0  0  0  0  0  0  0  0  0  0
    0.7037   -0.5392    0.0000 C   0  0  0  0  0  0  0  0  0  0  0  0
    0.7037   -1.3642    0.0000 C   0  0  0  0  0  0  0  0  0  0  0  0
    1.4182   -1.7767    0.0000 C   0  0  0  0  0  0  0  0  0  0  0  0
    2.1327   -1.3642    0.0000 C   0  0  0  0  0  0  0  0  0  0  0  0
    2.1327   -0.5392    0.0000 C   0  0  0  0  0  0  0  0  0  0  0  0
  1  2  1  0  0  0  0
  3  2  1  0  0  0  0
  4  3  1  0  0  0  0
  5  4  1  0  0  0  0
  6  5  1  0  0  0  0
  7  6  1  0  0  0  0
  2  7  1  0  0  0  0
M  END
> <ChemID>
100528

> <CAS>
108-91-8

> <Original_SMILES>
NC1CCCCC1

> <preferred_name>
Cyclohexylamine

> <dsstox_substance_id>
DTXSID1023996

> <dsstox_compound_id>
DTXCID203996

> <qc_level>
DSSTox_Low

> <Canonical_QSARr>
NC1CCCCC1

> <InChI_Code_QSARr>
InChI=1S/C6H13N/c7-6-4-2-1-3-5-6/h6H,1-5,7H2

> <InChI Key_QSARr>
PAFZNILMFXTMIY-UHFFFAOYSA-N

> <Salt_Solvent>


> <Salt_Solvent_ID>
0

> <MPID>
102413

> <HL Reference>
ALTSCHUH,J ET AL. (1999)

> <HL Temperature>
25

> <LogHL>
-5.380906669373256

> <Tr_1_Tst_0>
0

$$$$
100529
  Mrv171c012241914302D          

  7  7  0  0  0  0            999 V2000
    2.1298   -0.5375    0.0000 C   0  0  0  0  0  0  0  0  0  0  0  0
    1.4153   -0.1250    0.0000 C   0  0  0  0  0  0  0  0  0  0  0  0
    1.4153    0.7000    0.0000 O   0  0  0  0  0  0  0  0  0  0  0  0
    0.7009   -0.5375    0.0000 C   0  0  0  0  0  0  0  0  0  0  0  0
    0.7009   -1.3625    0.0000 C   0  0  0  0  0  0  0  0  0  0  0  0
    1.4153   -1.7750    0.0000 C   0  0  0  0  0  0  0  0  0  0  0  0
    2.1298   -1.3625    0.0000 C   0  0  0  0  0  0  0  0  0  0  0  0
  2  1  1  0  0  0  0
  2  3  1  0  0  0  0
  4  2  1  0  0  0  0
  5  4  1  0  0  0  0
  6  5  1  0  0  0  0
  7  6  1  0  0  0  0
  1  7  1  0  0  0  0
M  END
> <ChemID>
100529

> <CAS>
108-93-0

> <Original_SMILES>
OC1CCCCC1

> <preferred_name>
Cyclohexanol

> <dsstox_substance_id>
DTXSID4021894

> <dsstox_compound_id>
DTXCID001894

> <qc_level>
DSSTox_Low

> <Canonical_QSARr>
OC1CCCCC1

> <InChI_Code_QSARr>
InChI=1S/C6H12O/c7-6-4-2-1-3-5-6/h6-7H,1-5H2

> <InChI Key_QSARr>
HPXRVTGHNJAIIH-UHFFFAOYSA-N

> <Salt_Solvent>


> <Salt_Solvent_ID>
0

> <MPID>
102414

> <HL Reference>
ALTSCHUH,J ET AL. (1999)

> <HL Temperature>
25

> <LogHL>
-5.35654732351383

> <Tr_1_Tst_0>
1

$$$$
100530
  Mrv171c012241914302D          

  7  7  0  0  0  0            999 V2000
    1.4153    0.7000    0.0000 O   0  0  0  0  0  0  0  0  0  0  0  0
    1.4153   -0.1250    0.0000 C   0  0  0  0  0  0  0  0  0  0  0  0
    0.7009   -0.5375    0.0000 C   0  0  0  0  0  0  0  0  0  0  0  0
    0.7009   -1.3625    0.0000 C   0  0  0  0  0  0  0  0  0  0  0  0
    1.4153   -1.7750    0.0000 C   0  0  0  0  0  0  0  0  0  0  0  0
    2.1298   -1.3625    0.0000 C   0  0  0  0  0  0  0  0  0  0  0  0
    2.1298   -0.5375    0.0000 C   0  0  0  0  0  0  0  0  0  0  0  0
  1  2  2  0  0  0  0
  3  2  1  0  0  0  0
  4  3  1  0  0  0  0
  5  4  1  0  0  0  0
  6  5  1  0  0  0  0
  7  6  1  0  0  0  0
  2  7  1  0  0  0  0
M  END
> <ChemID>
100530

> <CAS>
108-94-1

> <Original_SMILES>
O=C1CCCCC1

> <preferred_name>
Cyclohexanone

> <dsstox_substance_id>
DTXSID6020359

> <dsstox_compound_id>
DTXCID00359

> <qc_level>
DSSTox_High

> <Canonical_QSARr>
O=C1CCCCC1

> <InChI_Code_QSARr>
InChI=1S/C6H10O/c7-6-4-2-1-3-5-6/h1-5H2

> <InChI Key_QSARr>
JHIVVAPYMSGYDF-UHFFFAOYSA-N

> <Salt_Solvent>


> <Salt_Solvent_ID>
0

> <MPID>
102415

> <HL Reference>
HAWTHORNE,SB ET AL. (1985)

> <HL Temperature>
25

> <LogHL>
-5.045757490560694

> <Tr_1_Tst_0>
1

$$$$
100531
  Mrv171c012241914302D          

  7  7  0  0  0  0            999 V2000
    1.4153    0.7000    0.0000 O   0  0  0  0  0  0  0  0  0  0  0  0
    1.4153   -0.1250    0.0000 C   0  0  0  0  0  0  0  0  0  0  0  0
    0.7009   -0.5375    0.0000 C   0  0  0  0  0  0  0  0  0  0  0  0
    0.7009   -1.3625    0.0000 C   0  0  0  0  0  0  0  0  0  0  0  0
    1.4153   -1.7750    0.0000 C   0  0  0  0  0  0  0  0  0  0  0  0
    2.1298   -1.3625    0.0000 C   0  0  0  0  0  0  0  0  0  0  0  0
    2.1298   -0.5375    0.0000 C   0  0  0  0  0  0  0  0  0  0  0  0
  1  2  1  0  0  0  0
  3  2  1  0  0  0  0
  4  3  2  0  0  0  0
  5  4  1  0  0  0  0
  6  5  2  0  0  0  0
  7  6  1  0  0  0  0
  2  7  2  0  0  0  0
M  END
> <ChemID>
100531

> <CAS>
108-95-2

> <Original_SMILES>
Oc1ccccc1

> <preferred_name>
Phenol

> <dsstox_substance_id>
DTXSID5021124

> <dsstox_compound_id>
DTXCID501124

> <qc_level>
DSSTox_Low

> <Canonical_QSARr>
OC1C=CC=CC=1

> <InChI_Code_QSARr>
InChI=1S/C6H6O/c7-6-4-2-1-3-5-6/h1-5,7H

> <InChI Key_QSARr>
ISWSIDIOOBJBQZ-UHFFFAOYSA-N

> <Salt_Solvent>


> <Salt_Solvent_ID>
0

> <MPID>
102416

> <HL Reference>
GAFFNEY,JS ET AL. (1987)

> <HL Temperature>
25

> <LogHL>
-6.477555766493694

> <Tr_1_Tst_0>
1

$$$$
100533
  Mrv171c012241914302D          

  7  7  0  0  0  0            999 V2000
    0.7009   -1.3625    0.0000 N   0  0  0  0  0  0  0  0  0  0  0  0
    1.4153   -1.7750    0.0000 C   0  0  0  0  0  0  0  0  0  0  0  0
    2.1298   -1.3625    0.0000 C   0  0  0  0  0  0  0  0  0  0  0  0
    2.1298   -0.5375    0.0000 C   0  0  0  0  0  0  0  0  0  0  0  0
    1.4153   -0.1250    0.0000 C   0  0  0  0  0  0  0  0  0  0  0  0
    1.4153    0.7000    0.0000 C   0  0  0  0  0  0  0  0  0  0  0  0
    0.7009   -0.5375    0.0000 C   0  0  0  0  0  0  0  0  0  0  0  0
  2  1  1  0  0  0  0
  3  2  2  0  0  0  0
  4  3  1  0  0  0  0
  5  4  2  0  0  0  0
  5  6  1  0  0  0  0
  7  5  1  0  0  0  0
  1  7  2  0  0  0  0
M  END
> <ChemID>
100533

> <CAS>
108-99-6

> <Original_SMILES>
Cc1c[n]ccc1

> <preferred_name>
3-Methylpyridine

> <dsstox_substance_id>
DTXSID9021897

> <dsstox_compound_id>
DTXCID201897

> <qc_level>
DSSTox_Low

> <Canonical_QSARr>
CC1C=NC=CC=1

> <InChI_Code_QSARr>
InChI=1S/C6H7N/c1-6-3-2-4-7-5-6/h2-5H,1H3

> <InChI Key_QSARr>
ITQTTZVARXURQS-UHFFFAOYSA-N

> <Salt_Solvent>


> <Salt_Solvent_ID>
0

> <MPID>
102417

> <HL Reference>
ANDON,RJL ET AL. (1954)

> <HL Temperature>
25

> <LogHL>
-5.1118205060816555

> <Tr_1_Tst_0>
1

$$$$
100535
  Mrv171c012241914302D          

  7  7  0  0  0  0            999 V2000
    0.7009   -0.5375    0.0000 N   0  0  0  0  0  0  0  0  0  0  0  0
    0.7009   -1.3625    0.0000 C   0  0  0  0  0  0  0  0  0  0  0  0
    1.4153   -1.7750    0.0000 C   0  0  0  0  0  0  0  0  0  0  0  0
    2.1298   -1.3625    0.0000 C   0  0  0  0  0  0  0  0  0  0  0  0
    2.1298   -0.5375    0.0000 C   0  0  0  0  0  0  0  0  0  0  0  0
    1.4153   -0.1250    0.0000 C   0  0  0  0  0  0  0  0  0  0  0  0
    1.4153    0.7000    0.0000 C   0  0  0  0  0  0  0  0  0  0  0  0
  2  1  1  0  0  0  0
  3  2  2  0  0  0  0
  4  3  1  0  0  0  0
  5  4  2  0  0  0  0
  6  5  1  0  0  0  0
  1  6  2  0  0  0  0
  6  7  1  0  0  0  0
M  END
> <ChemID>
100535

> <CAS>
109-06-8

> <Original_SMILES>
Cc1cccc[n]1

> <preferred_name>
2-Methylpyridine

> <dsstox_substance_id>
DTXSID9021899

> <dsstox_compound_id>
DTXCID001899

> <qc_level>
DSSTox_Low

> <Canonical_QSARr>
CC1C=CC=CN=1

> <InChI_Code_QSARr>
InChI=1S/C6H7N/c1-6-4-2-3-5-7-6/h2-5H,1H3

> <InChI Key_QSARr>
BSKHPKMHTQYZBB-UHFFFAOYSA-N

> <Salt_Solvent>


> <Salt_Solvent_ID>
0

> <MPID>
102418

> <HL Reference>
ANDON,RJL ET AL. (1954)

> <HL Temperature>
25

> <LogHL>
-5.0017406615763145

> <Tr_1_Tst_0>
1

$$$$
100536
  Mrv171c012241914302D          

  7  7  0  0  0  0            999 V2000
    0.1951   -0.5675    0.0000 N   0  0  0  0  0  0  0  0  0  0  0  0
    0.1951   -1.3925    0.0000 C   0  0  0  0  0  0  0  0  0  0  0  0
    0.9096   -1.8050    0.0000 C   0  0  0  0  0  0  0  0  0  0  0  0
    1.6240   -1.3925    0.0000 N   0  0  0  0  0  0  0  0  0  0  0  0
    1.6240   -0.5675    0.0000 C   0  0  0  0  0  0  0  0  0  0  0  0
    0.9096   -0.1550    0.0000 C   0  0  0  0  0  0  0  0  0  0  0  0
    0.9096    0.6700    0.0000 C   0  0  0  0  0  0  0  0  0  0  0  0
  2  1  1  0  0  0  0
  3  2  2  0  0  0  0
  4  3  1  0  0  0  0
  5  4  2  0  0  0  0
  6  5  1  0  0  0  0
  1  6  2  0  0  0  0
  6  7  1  0  0  0  0
M  END
> <ChemID>
100536

> <CAS>
109-08-0

> <Original_SMILES>
Cc1c[n]cc[n]1

> <preferred_name>
2-Methylpyrazine

> <dsstox_substance_id>
DTXSID4047620

> <dsstox_compound_id>
DTXCID2027620

> <qc_level>
DSSTox_Low

> <Canonical_QSARr>
CC1C=NC=CN=1

> <InChI_Code_QSARr>
InChI=1S/C5H6N2/c1-5-4-6-2-3-7-5/h2-4H,1H3

> <InChI Key_QSARr>
CAWHJQAVHZEVTJ-UHFFFAOYSA-N

> <Salt_Solvent>


> <Salt_Solvent_ID>
0

> <MPID>
102419

> <HL Reference>
BUTTERY,RG ET AL. (1971)

> <HL Temperature>
25

> <LogHL>
-5.657577319177792

> <Tr_1_Tst_0>
0

$$$$
100540
  Mrv171c012241914302D          

  7  6  0  0  0  0            999 V2000
    0.3082   -1.2379    0.0000 O   0  0  0  0  0  0  0  0  0  0  0  0
    1.0227   -0.8254    0.0000 C   0  0  0  0  0  0  0  0  0  0  0  0
    1.0227   -0.0004    0.0000 O   0  0  0  0  0  0  0  0  0  0  0  0
    1.7371   -1.2379    0.0000 C   0  0  0  0  0  0  0  0  0  0  0  0
    2.4516   -0.8254    0.0000 C   0  0  0  0  0  0  0  0  0  0  0  0
    3.1661   -1.2379    0.0000 C   0  0  0  0  0  0  0  0  0  0  0  0
    3.8806   -0.8254    0.0000 C   0  0  0  0  0  0  0  0  0  0  0  0
  1  2  1  0  0  0  0
  2  3  2  0  0  0  0
  2  4  1  0  0  0  0
  4  5  1  0  0  0  0
  5  6  1  0  0  0  0
  6  7  1  0  0  0  0
M  END
> <ChemID>
100540

> <CAS>
109-52-4

> <Original_SMILES>
CCCCC(O)=O

> <preferred_name>
Pentanoic acid

> <dsstox_substance_id>
DTXSID7021655

> <dsstox_compound_id>
DTXCID801655

> <qc_level>
DSSTox_Low

> <Canonical_QSARr>
CCCCC(O)=O

> <InChI_Code_QSARr>
InChI=1S/C5H10O2/c1-2-3-4-5(6)7/h2-4H2,1H3,(H,6,7)

> <InChI Key_QSARr>
NQPDZGIKBAWPEJ-UHFFFAOYSA-N

> <Salt_Solvent>


> <Salt_Solvent_ID>
0

> <MPID>
102420

> <HL Reference>
KHAN,I & BRIMBLECOMBE,P (1992)

> <HL Temperature>
25

> <LogHL>
-6.326058001365931

> <Tr_1_Tst_0>
0

$$$$
100542
  Mrv171c012241914302D          

  7  6  0  0  0  0            999 V2000
    0.4044   -0.5274    0.0000 C   0  0  0  0  0  0  0  0  0  0  0  0
   -0.3101   -0.9399    0.0000 O   0  0  0  0  0  0  0  0  0  0  0  0
    1.1188   -0.9399    0.0000 C   0  0  0  0  0  0  0  0  0  0  0  0
    1.8333   -0.5274    0.0000 O   0  0  0  0  0  0  0  0  0  0  0  0
    2.5478   -0.9399    0.0000 C   0  0  0  0  0  0  0  0  0  0  0  0
    3.2623   -0.5274    0.0000 C   0  0  0  0  0  0  0  0  0  0  0  0
    2.5478   -1.7649    0.0000 C   0  0  0  0  0  0  0  0  0  0  0  0
  1  2  1  0  0  0  0
  1  3  1  0  0  0  0
  3  4  1  0  0  0  0
  4  5  1  0  0  0  0
  5  6  1  0  0  0  0
  5  7  1  0  0  0  0
M  END
> <ChemID>
100542

> <CAS>
109-59-1

> <Original_SMILES>
CC(C)OCCO

> <preferred_name>
2-Isopropoxyethanol

> <dsstox_substance_id>
DTXSID4047466

> <dsstox_compound_id>
DTXCID2027466

> <qc_level>
DSSTox_High

> <Canonical_QSARr>
CC(C)OCCO

> <InChI_Code_QSARr>
InChI=1S/C5H12O2/c1-5(2)7-4-3-6/h5-6H,3-4H2,1-2H3

> <InChI Key_QSARr>
HCGFUIQPSOCUHI-UHFFFAOYSA-N

> <Salt_Solvent>


> <Salt_Solvent_ID>
0

> <MPID>
102421

> <HL Reference>
JOHANSON,G & DYNESIUS,B (1988)

> <HL Temperature>
25

> <LogHL>
-6.036212172654433

> <Tr_1_Tst_0>
1

$$$$
100543
  Mrv171c012241914302D          

  7  6  0  0  0  0            999 V2000
    0.3083   -1.2379    0.0000 C   0  0  0  0  0  0  0  0  0  0  0  0
    1.0228   -0.8254    0.0000 C   0  0  0  0  0  0  0  0  0  0  0  0
    1.7373   -1.2379    0.0000 O   0  0  0  0  0  0  0  0  0  0  0  0
    2.4517   -0.8254    0.0000 C   0  0  0  0  0  0  0  0  0  0  0  0
    3.1662   -1.2379    0.0000 C   0  0  0  0  0  0  0  0  0  0  0  0
    3.8807   -0.8254    0.0000 C   0  0  0  0  0  0  0  0  0  0  0  0
    1.0228   -0.0004    0.0000 O   0  0  0  0  0  0  0  0  0  0  0  0
  1  2  1  0  0  0  0
  2  3  1  0  0  0  0
  3  4  1  0  0  0  0
  4  5  1  0  0  0  0
  5  6  1  0  0  0  0
  2  7  2  0  0  0  0
M  END
> <ChemID>
100543

> <CAS>
109-60-4

> <Original_SMILES>
CCCOC(C)=O

> <preferred_name>
Propyl acetate

> <dsstox_substance_id>
DTXSID6021901

> <dsstox_compound_id>
DTXCID301901

> <qc_level>
DSSTox_Low

> <Canonical_QSARr>
CCCOC(C)=O

> <InChI_Code_QSARr>
InChI=1S/C5H10O2/c1-3-4-7-5(2)6/h3-4H2,1-2H3

> <InChI Key_QSARr>
YKYONYBAUNKHLG-UHFFFAOYSA-N

> <Salt_Solvent>


> <Salt_Solvent_ID>
0

> <MPID>
102422

> <HL Reference>
KIECKBUSCH,TG & KING,CJ (1979)

> <HL Temperature>
25

> <LogHL>
-3.661543506395397

> <Tr_1_Tst_0>
1

$$$$
100544
  Mrv171c012241914302D          

  5  4  0  0  0  0            999 V2000
    2.5848   -1.1044    0.0000 Br  0  0  0  0  0  0  0  0  0  0  0  0
    2.1723   -0.3899    0.0000 C   0  0  0  0  0  0  0  0  0  0  0  0
    1.3473   -0.3899    0.0000 C   0  0  0  0  0  0  0  0  0  0  0  0
    0.9348    0.3245    0.0000 C   0  0  0  0  0  0  0  0  0  0  0  0
    0.1098    0.3245    0.0000 Br  0  0  0  0  0  0  0  0  0  0  0  0
  1  2  1  0  0  0  0
  2  3  1  0  0  0  0
  3  4  1  0  0  0  0
  4  5  1  0  0  0  0
M  END
> <ChemID>
100544

> <CAS>
109-64-8

> <Original_SMILES>
BrCCCBr

> <preferred_name>
1,3-Dibromopropane

> <dsstox_substance_id>
DTXSID1021902

> <dsstox_compound_id>
DTXCID701902

> <qc_level>
DSSTox_High

> <Canonical_QSARr>
BrCCCBr

> <InChI_Code_QSARr>
InChI=1S/C3H6Br2/c4-2-1-3-5/h1-3H2

> <InChI Key_QSARr>
VEFLKXRACNJHOV-UHFFFAOYSA-N

> <Salt_Solvent>


> <Salt_Solvent_ID>
0

> <MPID>
102423

> <HL Reference>
HINE,J & MOOKERJEE,PK (1975)

> <HL Temperature>
25

> <LogHL>
-3.051587034221397

> <Tr_1_Tst_0>
0

$$$$
100546
  Mrv171c012241914302D          

  5  4  0  0  0  0            999 V2000
    2.1723   -0.3899    0.0000 C   0  0  0  0  0  0  0  0  0  0  0  0
    2.5848   -1.1044    0.0000 C   0  0  0  0  0  0  0  0  0  0  0  0
    1.3473   -0.3899    0.0000 C   0  0  0  0  0  0  0  0  0  0  0  0
    0.9348    0.3245    0.0000 C   0  0  0  0  0  0  0  0  0  0  0  0
    0.1098    0.3245    0.0000 C   0  0  0  0  0  0  0  0  0  0  0  0
  1  2  1  0  0  0  0
  1  3  1  0  0  0  0
  3  4  1  0  0  0  0
  4  5  1  0  0  0  0
M  END
> <ChemID>
100546

> <CAS>
109-66-0

> <Original_SMILES>
CCCCC

> <preferred_name>
Pentane

> <dsstox_substance_id>
DTXSID2025846

> <dsstox_compound_id>
DTXCID705846

> <qc_level>
DSSTox_Low

> <Canonical_QSARr>
CCCCC

> <InChI_Code_QSARr>
InChI=1S/C5H12/c1-3-5-4-2/h3-5H2,1-2H3

> <InChI Key_QSARr>
OFBQJSOFQDEBGM-UHFFFAOYSA-N

> <Salt_Solvent>


> <Salt_Solvent_ID>
0

> <MPID>
102424

> <HL Reference>
HINE,J & MOOKERJEE,PK (1975)

> <HL Temperature>
25

> <LogHL>
0.09691001300805648

> <Tr_1_Tst_0>
1

$$$$
100549
  Mrv171c012241914302D          

  5  4  0  0  0  0            999 V2000
    2.5848   -1.1044    0.0000 C   0  0  0  0  0  0  0  0  0  0  0  0
    2.1723   -0.3899    0.0000 C   0  0  0  0  0  0  0  0  0  0  0  0
    1.3473   -0.3899    0.0000 C   0  0  0  0  0  0  0  0  0  0  0  0
    0.9348    0.3245    0.0000 C   0  0  0  0  0  0  0  0  0  0  0  0
    0.1098    0.3245    0.0000 Cl  0  0  0  0  0  0  0  0  0  0  0  0
  1  2  1  0  0  0  0
  2  3  1  0  0  0  0
  3  4  1  0  0  0  0
  4  5  1  0  0  0  0
M  END
> <ChemID>
100549

> <CAS>
109-69-3

> <Original_SMILES>
CCCCCl

> <preferred_name>
1-Chlorobutane

> <dsstox_substance_id>
DTXSID8020206

> <dsstox_compound_id>
DTXCID00206

> <qc_level>
DSSTox_Low

> <Canonical_QSARr>
CCCCCl

> <InChI_Code_QSARr>
InChI=1S/C4H9Cl/c1-2-3-4-5/h2-4H2,1H3

> <InChI Key_QSARr>
VFWCMGCRMGJXDK-UHFFFAOYSA-N

> <Salt_Solvent>


> <Salt_Solvent_ID>
0

> <MPID>
102425

> <HL Reference>
LEIGHTON,DTJR & CALO,JM (1981)

> <HL Temperature>
25

> <LogHL>
-1.7772835288524176

> <Tr_1_Tst_0>
1

$$$$
100550
  Mrv171c012241914302D          

  5  4  0  0  0  0            999 V2000
    2.5848   -1.1044    0.0000 C   0  0  0  0  0  0  0  0  0  0  0  0
    2.1723   -0.3899    0.0000 C   0  0  0  0  0  0  0  0  0  0  0  0
    1.3473   -0.3899    0.0000 C   0  0  0  0  0  0  0  0  0  0  0  0
    0.9348    0.3245    0.0000 C   0  0  0  0  0  0  0  0  0  0  0  0
    0.1098    0.3245    0.0000 N   0  0  0  0  0  0  0  0  0  0  0  0
  1  2  1  0  0  0  0
  2  3  1  0  0  0  0
  3  4  1  0  0  0  0
  4  5  1  0  0  0  0
M  END
> <ChemID>
100550

> <CAS>
109-73-9

> <Original_SMILES>
CCCCN

> <preferred_name>
Butylamine

> <dsstox_substance_id>
DTXSID1021904

> <dsstox_compound_id>
DTXCID501904

> <qc_level>
DSSTox_High

> <Canonical_QSARr>
CCCCN

> <InChI_Code_QSARr>
InChI=1S/C4H11N/c1-2-3-4-5/h2-5H2,1H3

> <InChI Key_QSARr>
HQABUPZFAYXKJW-UHFFFAOYSA-N

> <Salt_Solvent>


> <Salt_Solvent_ID>
0

> <MPID>
102426

> <HL Reference>
CHRISTIE,AO & CRISP,DJ (1967)

> <HL Temperature>
25

> <LogHL>
-4.759450751717404

> <Tr_1_Tst_0>
1

$$$$
100551
  Mrv171c012241914302D          

  5  4  0  0  0  0            999 V2000
    2.1438   -0.5685    0.0000 C   0  0  0  0  0  0  0  0  0  0  0  0
    2.9688   -0.5685    0.0000 N   0  0  0  0  0  0  0  0  0  0  0  0
    1.3188   -0.5685    0.0000 C   0  0  0  0  0  0  0  0  0  0  0  0
    0.9063    0.1460    0.0000 C   0  0  0  0  0  0  0  0  0  0  0  0
    0.0813    0.1460    0.0000 C   0  0  0  0  0  0  0  0  0  0  0  0
  1  2  3  0  0  0  0
  1  3  1  0  0  0  0
  3  4  1  0  0  0  0
  4  5  1  0  0  0  0
M  END
> <ChemID>
100551

> <CAS>
109-74-0

> <Original_SMILES>
CCCC#N

> <preferred_name>
Butanenitrile

> <dsstox_substance_id>
DTXSID1026823

> <dsstox_compound_id>
DTXCID006823

> <qc_level>
DSSTox_Low

> <Canonical_QSARr>
CCCC#N

> <InChI_Code_QSARr>
InChI=1S/C4H7N/c1-2-3-4-5/h2-3H2,1H3

> <InChI Key_QSARr>
KVNRLNFWIYMESJ-UHFFFAOYSA-N

> <Salt_Solvent>


> <Salt_Solvent_ID>
0

> <MPID>
102427

> <HL Reference>
BUTLER,JAV & RAMCHANDANI,CN (1935)

> <HL Temperature>
25

> <LogHL>
-4.281498311132727

> <Tr_1_Tst_0>
1

$$$$
100554
  Mrv171c012241914302D          

  5  4  0  0  0  0            999 V2000
    2.1730   -0.3945    0.0000 C   0  0  0  0  0  0  0  0  0  0  0  0
    2.5855   -1.1090    0.0000 S   0  0  0  0  0  0  0  0  0  0  0  0
    1.3480   -0.3945    0.0000 C   0  0  0  0  0  0  0  0  0  0  0  0
    0.9355    0.3199    0.0000 C   0  0  0  0  0  0  0  0  0  0  0  0
    0.1105    0.3199    0.0000 C   0  0  0  0  0  0  0  0  0  0  0  0
  1  2  1  0  0  0  0
  1  3  1  0  0  0  0
  3  4  1  0  0  0  0
  4  5  1  0  0  0  0
M  END
> <ChemID>
100554

> <CAS>
109-79-5

> <Original_SMILES>
CCCCS

> <preferred_name>
1-Butanethiol

> <dsstox_substance_id>
DTXSID6026824

> <dsstox_compound_id>
DTXCID406824

> <qc_level>
DSSTox_Low

> <Canonical_QSARr>
CCCCS

> <InChI_Code_QSARr>
InChI=1S/C4H10S/c1-2-3-4-5/h5H,2-4H2,1H3

> <InChI Key_QSARr>
WQAQPCDUOCURKW-UHFFFAOYSA-N

> <Salt_Solvent>


> <Salt_Solvent_ID>
0

> <MPID>
102428

> <HL Reference>
PRZYJAZNY,A ET AL. (1983)

> <HL Temperature>
25

> <LogHL>
-2.342944147142896

> <Tr_1_Tst_0>
1

$$$$
100555
  Mrv171c012241914302D          

  5  4  0  0  0  0            999 V2000
    2.3095   -1.7165    0.0000 C   0  0  0  0  0  0  0  0  0  0  0  0
    1.8970   -1.0020    0.0000 O   0  0  0  0  0  0  0  0  0  0  0  0
    1.0720   -1.0020    0.0000 C   0  0  0  0  0  0  0  0  0  0  0  0
    0.6595   -0.2876    0.0000 C   0  0  0  0  0  0  0  0  0  0  0  0
   -0.1655   -0.2876    0.0000 O   0  0  0  0  0  0  0  0  0  0  0  0
  1  2  1  0  0  0  0
  2  3  1  0  0  0  0
  3  4  1  0  0  0  0
  4  5  1  0  0  0  0
M  END
> <ChemID>
100555

> <CAS>
109-86-4

> <Original_SMILES>
COCCO

> <preferred_name>
2-Methoxyethanol

> <dsstox_substance_id>
DTXSID5024182

> <dsstox_compound_id>
DTXCID804182

> <qc_level>
DSSTox_Low

> <Canonical_QSARr>
COCCO

> <InChI_Code_QSARr>
InChI=1S/C3H8O2/c1-5-3-2-4/h4H,2-3H2,1H3

> <InChI Key_QSARr>
XNWFRZJHXBZDAG-UHFFFAOYSA-N

> <Salt_Solvent>


> <Salt_Solvent_ID>
0

> <MPID>
102429

> <HL Reference>
JOHANSON,G & DYNESIUS,B (1988)

> <HL Temperature>
25

> <LogHL>
-6.481486060122118

> <Tr_1_Tst_0>
1

$$$$
100556
  Mrv171c012241914302D          

  5  4  0  0  0  0            999 V2000
    2.1772   -0.3874    0.0000 O   0  0  0  0  0  0  0  0  0  0  0  0
    2.5897   -1.1018    0.0000 C   0  0  0  0  0  0  0  0  0  0  0  0
    1.3522   -0.3874    0.0000 C   0  0  0  0  0  0  0  0  0  0  0  0
    0.9397    0.3271    0.0000 O   0  0  0  0  0  0  0  0  0  0  0  0
    0.1147    0.3271    0.0000 C   0  0  0  0  0  0  0  0  0  0  0  0
  1  2  1  0  0  0  0
  1  3  1  0  0  0  0
  3  4  1  0  0  0  0
  4  5  1  0  0  0  0
M  END
> <ChemID>
100556

> <CAS>
109-87-5

> <Original_SMILES>
COCOC

> <preferred_name>
Dimethoxymethane

> <dsstox_substance_id>
DTXSID1025564

> <dsstox_compound_id>
DTXCID905564

> <qc_level>
DSSTox_Low

> <Canonical_QSARr>
COCOC

> <InChI_Code_QSARr>
InChI=1S/C3H8O2/c1-4-3-5-2/h3H2,1-2H3

> <InChI Key_QSARr>
NKDDWNXOKDWJAK-UHFFFAOYSA-N

> <Salt_Solvent>


> <Salt_Solvent_ID>
0

> <MPID>
102430

> <HL Reference>
HINE,J & MOOKERJEE,PK (1975)

> <HL Temperature>
25

> <LogHL>
-3.7619538968712067

> <Tr_1_Tst_0>
0

$$$$
100557
  Mrv171c012241914302D          

  5  4  0  0  0  0            999 V2000
    2.5848   -1.1044    0.0000 C   0  0  0  0  0  0  0  0  0  0  0  0
    2.1723   -0.3899    0.0000 C   0  0  0  0  0  0  0  0  0  0  0  0
    1.3473   -0.3899    0.0000 N   0  0  0  0  0  0  0  0  0  0  0  0
    0.9348    0.3245    0.0000 C   0  0  0  0  0  0  0  0  0  0  0  0
    0.1098    0.3245    0.0000 C   0  0  0  0  0  0  0  0  0  0  0  0
  1  2  1  0  0  0  0
  2  3  1  0  0  0  0
  3  4  1  0  0  0  0
  4  5  1  0  0  0  0
M  END
> <ChemID>
100557

> <CAS>
109-89-7

> <Original_SMILES>
CCNCC

> <preferred_name>
Diethylamine

> <dsstox_substance_id>
DTXSID6021909

> <dsstox_compound_id>
DTXCID501909

> <qc_level>
DSSTox_Low

> <Canonical_QSARr>
CCNCC

> <InChI_Code_QSARr>
InChI=1S/C4H11N/c1-3-5-4-2/h5H,3-4H2,1-2H3

> <InChI Key_QSARr>
HPNMFZURTQLUMO-UHFFFAOYSA-N

> <Salt_Solvent>


> <Salt_Solvent_ID>
0

> <MPID>
102431

> <HL Reference>
CHRISTIE,AO & CRISP,DJ (1967)

> <HL Temperature>
25

> <LogHL>
-4.593459819566047

> <Tr_1_Tst_0>
1

$$$$
100560
  Mrv171c012241914302D          

  5  4  0  0  0  0            999 V2000
    0.9349    0.3245    0.0000 C   0  0  0  0  0  0  0  0  0  0  0  0
    1.3474   -0.3900    0.0000 O   0  0  0  0  0  0  0  0  0  0  0  0
    2.1724   -0.3900    0.0000 C   0  0  0  0  0  0  0  0  0  0  0  0
    2.5849   -1.1045    0.0000 C   0  0  0  0  0  0  0  0  0  0  0  0
    0.1099    0.3245    0.0000 O   0  0  0  0  0  0  0  0  0  0  0  0
  1  2  1  0  0  0  0
  2  3  1  0  0  0  0
  3  4  1  0  0  0  0
  1  5  2  0  0  0  0
M  END
> <ChemID>
100560

> <CAS>
109-94-4

> <Original_SMILES>
CCOC=O

> <preferred_name>
Ethyl formate

> <dsstox_substance_id>
DTXSID6040117

> <dsstox_compound_id>
DTXCID4020117

> <qc_level>
DSSTox_Low

> <Canonical_QSARr>
CCOC=O

> <InChI_Code_QSARr>
InChI=1S/C3H6O2/c1-2-5-3-4/h3H,2H2,1H3

> <InChI Key_QSARr>
WBJINCZRORDGAQ-UHFFFAOYSA-N

> <Salt_Solvent>


> <Salt_Solvent_ID>
0

> <MPID>
102432

> <HL Reference>
BOCEK,K (1976)

> <HL Temperature>
25

> <LogHL>
-3.414539270491499

> <Tr_1_Tst_0>
0

$$$$
100561
  Mrv171c012241914302D          

  5  5  0  0  0  0            999 V2000
    1.3350   -0.3511    0.0000 N   0  0  0  0  0  0  0  0  0  0  0  0
    0.6676    0.1338    0.0000 C   0  0  0  0  0  0  0  0  0  0  0  0
    0.0001   -0.3511    0.0000 C   0  0  0  0  0  0  0  0  0  0  0  0
    0.2551   -1.1357    0.0000 C   0  0  0  0  0  0  0  0  0  0  0  0
    1.0801   -1.1357    0.0000 C   0  0  0  0  0  0  0  0  0  0  0  0
  2  1  1  0  0  0  0
  3  2  2  0  0  0  0
  4  3  1  0  0  0  0
  5  4  2  0  0  0  0
  1  5  1  0  0  0  0
M  END
> <ChemID>
100561

> <CAS>
109-97-7

> <Original_SMILES>
c1ccc[nH]1

> <preferred_name>
Pyrrole

> <dsstox_substance_id>
DTXSID5021910

> <dsstox_compound_id>
DTXCID201910

> <qc_level>
DSSTox_Low

> <Canonical_QSARr>
C1=CC=CN1

> <InChI_Code_QSARr>
InChI=1S/C4H5N/c1-2-4-5-3-1/h1-5H

> <InChI Key_QSARr>
KAESVJOAVNADME-UHFFFAOYSA-N

> <Salt_Solvent>


> <Salt_Solvent_ID>
0

> <MPID>
102433

> <HL Reference>
HAWTHORNE,SB ET AL. (1985)

> <HL Temperature>
25

> <LogHL>
-4.744727494896689

> <Tr_1_Tst_0>
1

$$$$
100562
  Mrv171c012241914302D          

  5  5  0  0  0  0            999 V2000
    1.3286   -0.4612    0.0000 O   0  0  0  0  0  0  0  0  0  0  0  0
    0.6612    0.0237    0.0000 C   0  0  0  0  0  0  0  0  0  0  0  0
   -0.0062   -0.4612    0.0000 C   0  0  0  0  0  0  0  0  0  0  0  0
    0.2487   -1.2458    0.0000 C   0  0  0  0  0  0  0  0  0  0  0  0
    1.0737   -1.2458    0.0000 C   0  0  0  0  0  0  0  0  0  0  0  0
  2  1  1  0  0  0  0
  3  2  1  0  0  0  0
  4  3  1  0  0  0  0
  5  4  1  0  0  0  0
  1  5  1  0  0  0  0
M  END
> <ChemID>
100562

> <CAS>
109-99-9

> <Original_SMILES>
C1CCCO1

> <preferred_name>
Tetrahydrofuran

> <dsstox_substance_id>
DTXSID1021328

> <dsstox_compound_id>
DTXCID501328

> <qc_level>
DSSTox_Low

> <Canonical_QSARr>
C1CCCO1

> <InChI_Code_QSARr>
InChI=1S/C4H8O/c1-2-4-5-3-1/h1-4H2

> <InChI Key_QSARr>
WYURNTSHIVDZCO-UHFFFAOYSA-N

> <Salt_Solvent>


> <Salt_Solvent_ID>
0

> <MPID>
102434

> <HL Reference>
CABANI,S ET AL. (1971A)

> <HL Temperature>
25

> <LogHL>
-4.151810883008601

> <Tr_1_Tst_0>
1

$$$$
100564
  Mrv171c012241914302D          

  5  5  0  0  0  0            999 V2000
    1.3347   -0.3508    0.0000 C   0  0  0  0  0  0  0  0  0  0  0  0
    0.6672    0.1341    0.0000 C   0  0  0  0  0  0  0  0  0  0  0  0
   -0.0002   -0.3508    0.0000 C   0  0  0  0  0  0  0  0  0  0  0  0
    0.2547   -1.1354    0.0000 S   0  0  0  0  0  0  0  0  0  0  0  0
    1.0797   -1.1354    0.0000 C   0  0  0  0  0  0  0  0  0  0  0  0
  2  1  1  0  0  0  0
  3  2  2  0  0  0  0
  4  3  1  0  0  0  0
  5  4  1  0  0  0  0
  1  5  2  0  0  0  0
M  END
> <ChemID>
100564

> <CAS>
110-02-1

> <Original_SMILES>
c1ccc[s]1

> <preferred_name>
Thiophene

> <dsstox_substance_id>
DTXSID8026145

> <dsstox_compound_id>
DTXCID006145

> <qc_level>
DSSTox_Low

> <Canonical_QSARr>
C1=CC=CS1

> <InChI_Code_QSARr>
InChI=1S/C4H4S/c1-2-4-5-3-1/h1-4H

> <InChI Key_QSARr>
YTPLMLYBLZKORZ-UHFFFAOYSA-N

> <Salt_Solvent>


> <Salt_Solvent_ID>
0

> <MPID>
102435

> <HL Reference>
PRZYJAZNY,A ET AL. (1983)

> <HL Temperature>
25

> <LogHL>
-2.643974142806879

> <Tr_1_Tst_0>
0

$$$$
100568
  Mrv171c012241914302D          

  8  7  0  0  0  0            999 V2000
    0.7125   -0.8250    0.0000 C   0  0  0  0  0  0  0  0  0  0  0  0
   -0.0020   -1.2375    0.0000 C   0  0  0  0  0  0  0  0  0  0  0  0
    1.4270   -1.2375    0.0000 O   0  0  0  0  0  0  0  0  0  0  0  0
    2.1415   -0.8250    0.0000 C   0  0  0  0  0  0  0  0  0  0  0  0
    2.8559   -1.2375    0.0000 C   0  0  0  0  0  0  0  0  0  0  0  0
    3.5704   -0.8250    0.0000 C   0  0  0  0  0  0  0  0  0  0  0  0
    2.8559   -2.0625    0.0000 C   0  0  0  0  0  0  0  0  0  0  0  0
    0.7125   -0.0000    0.0000 O   0  0  0  0  0  0  0  0  0  0  0  0
  1  2  1  0  0  0  0
  1  3  1  0  0  0  0
  3  4  1  0  0  0  0
  4  5  1  0  0  0  0
  5  6  1  0  0  0  0
  5  7  1  0  0  0  0
  1  8  2  0  0  0  0
M  END
> <ChemID>
100568

> <CAS>
110-19-0

> <Original_SMILES>
CC(C)COC(C)=O

> <preferred_name>
Isobutyl acetate

> <dsstox_substance_id>
DTXSID5026837

> <dsstox_compound_id>
DTXCID906837

> <qc_level>
DSSTox_Low

> <Canonical_QSARr>
CC(C)COC(C)=O

> <InChI_Code_QSARr>
InChI=1S/C6H12O2/c1-5(2)4-8-6(3)7/h5H,4H2,1-3H3

> <InChI Key_QSARr>
GJRQTCIYDGXPES-UHFFFAOYSA-N

> <Salt_Solvent>


> <Salt_Solvent_ID>
0

> <MPID>
102436

> <HL Reference>
BETTERTON,EA (1992)

> <HL Temperature>
25

> <LogHL>
-3.3429441471428976

> <Tr_1_Tst_0>
0

$$$$
100570
  Mrv171c012241914302D          

  8  7  0  0  0  0            999 V2000
   -0.0022   -0.6195    0.0000 C   0  0  0  0  0  0  0  0  0  0  0  0
    0.7122   -1.0320    0.0000 C   0  0  0  0  0  0  0  0  0  0  0  0
    1.4267   -0.6195    0.0000 C   0  0  0  0  0  0  0  0  0  0  0  0
    2.1412   -1.0320    0.0000 C   0  0  0  0  0  0  0  0  0  0  0  0
    2.8556   -0.6195    0.0000 C   0  0  0  0  0  0  0  0  0  0  0  0
    3.5701   -1.0320    0.0000 C   0  0  0  0  0  0  0  0  0  0  0  0
    4.2846   -0.6195    0.0000 C   0  0  0  0  0  0  0  0  0  0  0  0
    3.5701   -1.8570    0.0000 O   0  0  0  0  0  0  0  0  0  0  0  0
  1  2  1  0  0  0  0
  2  3  1  0  0  0  0
  3  4  1  0  0  0  0
  4  5  1  0  0  0  0
  5  6  1  0  0  0  0
  6  7  1  0  0  0  0
  6  8  2  0  0  0  0
M  END
> <ChemID>
100570

> <CAS>
110-43-0

> <Original_SMILES>
CCCCCC(C)=O

> <preferred_name>
2-Heptanone

> <dsstox_substance_id>
DTXSID5021916

> <dsstox_compound_id>
DTXCID601916

> <qc_level>
DSSTox_Low

> <Canonical_QSARr>
CCCCCC(C)=O

> <InChI_Code_QSARr>
InChI=1S/C7H14O/c1-3-4-5-6-7(2)8/h3-6H2,1-2H3

> <InChI Key_QSARr>
CATSNJVOTSVZJV-UHFFFAOYSA-N

> <Salt_Solvent>


> <Salt_Solvent_ID>
0

> <MPID>
102437

> <HL Reference>
SHIU,WY & MACKAY,D (1997)

> <HL Temperature>
25

> <LogHL>
-3.7721132953863257

> <Tr_1_Tst_0>
1

$$$$
100571
  Mrv171c012241914302D          

  8  7  0  0  0  0            999 V2000
   -0.7216   -2.0813    0.0000 C   0  0  0  0  0  0  0  0  0  0  0  0
   -0.0071   -2.4938    0.0000 O   0  0  0  0  0  0  0  0  0  0  0  0
    0.7073   -2.0813    0.0000 C   0  0  0  0  0  0  0  0  0  0  0  0
    1.4218   -2.4938    0.0000 C   0  0  0  0  0  0  0  0  0  0  0  0
    2.1363   -2.0813    0.0000 C   0  0  0  0  0  0  0  0  0  0  0  0
    2.8507   -2.4938    0.0000 C   0  0  0  0  0  0  0  0  0  0  0  0
    2.1363   -1.2563    0.0000 C   0  0  0  0  0  0  0  0  0  0  0  0
   -1.4361   -2.4938    0.0000 O   0  0  0  0  0  0  0  0  0  0  0  0
  1  2  1  0  0  0  0
  2  3  1  0  0  0  0
  3  4  1  0  0  0  0
  4  5  1  0  0  0  0
  5  6  1  0  0  0  0
  5  7  1  0  0  0  0
  1  8  2  0  0  0  0
M  END
> <ChemID>
100571

> <CAS>
110-45-2

> <Original_SMILES>
CC(C)CCOC=O

> <preferred_name>


> <dsstox_substance_id>
DTXSID00861734

> <dsstox_compound_id>
DTXCID40810620

> <qc_level>


> <Canonical_QSARr>
CC(C)CCOC=O

> <InChI_Code_QSARr>
InChI=1S/C6H12O2/c1-6(2)3-4-8-5-7/h5-6H,3-4H2,1-2H3

> <InChI Key_QSARr>
XKYICAQFSCFURC-UHFFFAOYSA-N

> <Salt_Solvent>


> <Salt_Solvent_ID>
0

> <MPID>
102438

> <HL Reference>
HINE,J & MOOKERJEE,PK (1975)

> <HL Temperature>
25

> <LogHL>
-3.171340103464681

> <Tr_1_Tst_0>
1

$$$$
100575
  Mrv171c012241914302D          

  6  5  0  0  0  0            999 V2000
    0.0018   -0.4119    0.0000 Cl  0  0  0  0  0  0  0  0  0  0  0  0
    0.7163    0.0006    0.0000 C   0  0  0  0  0  0  0  0  0  0  0  0
    1.4307   -0.4119    0.0000 C   0  0  0  0  0  0  0  0  0  0  0  0
    2.1452    0.0006    0.0000 C   0  0  0  0  0  0  0  0  0  0  0  0
    2.8597   -0.4119    0.0000 C   0  0  0  0  0  0  0  0  0  0  0  0
    3.5741    0.0006    0.0000 Cl  0  0  0  0  0  0  0  0  0  0  0  0
  1  2  1  0  0  0  0
  2  3  1  0  0  0  0
  3  4  1  0  0  0  0
  4  5  1  0  0  0  0
  5  6  1  0  0  0  0
M  END
> <ChemID>
100575

> <CAS>
110-56-5

> <Original_SMILES>
ClCCCCCl

> <preferred_name>
1,4-Dichlorobutane

> <dsstox_substance_id>
DTXSID5021918

> <dsstox_compound_id>
DTXCID401918

> <qc_level>
DSSTox_High

> <Canonical_QSARr>
ClCCCCCl

> <InChI_Code_QSARr>
InChI=1S/C4H8Cl2/c5-3-1-2-4-6/h1-4H2

> <InChI Key_QSARr>
KJDRSWPQXHESDQ-UHFFFAOYSA-N

> <Salt_Solvent>


> <Salt_Solvent_ID>
0

> <MPID>
102439

> <HL Reference>
LEIGHTON,DTJR & CALO,JM (1981)

> <HL Temperature>
25

> <LogHL>
-3.313363730737706

> <Tr_1_Tst_0>
1

$$$$
100577
  Mrv171c012241914302D          

  6  5  0  0  0  0            999 V2000
    0.0018   -0.4119    0.0000 C   0  0  0  0  0  0  0  0  0  0  0  0
    0.7163    0.0006    0.0000 C   0  0  0  0  0  0  0  0  0  0  0  0
    1.4307   -0.4119    0.0000 C   0  0  0  0  0  0  0  0  0  0  0  0
    2.1452    0.0006    0.0000 C   0  0  0  0  0  0  0  0  0  0  0  0
    2.8597   -0.4119    0.0000 C   0  0  0  0  0  0  0  0  0  0  0  0
    3.5741    0.0006    0.0000 N   0  0  0  0  0  0  0  0  0  0  0  0
  1  2  1  0  0  0  0
  2  3  1  0  0  0  0
  3  4  1  0  0  0  0
  4  5  1  0  0  0  0
  5  6  1  0  0  0  0
M  END
> <ChemID>
100577

> <CAS>
110-58-7

> <Original_SMILES>
CCCCCN

> <preferred_name>
Pentan-1-amine

> <dsstox_substance_id>
DTXSID0021919

> <dsstox_compound_id>
DTXCID801919

> <qc_level>
DSSTox_Low

> <Canonical_QSARr>
CCCCCN

> <InChI_Code_QSARr>
InChI=1S/C5H13N/c1-2-3-4-5-6/h2-6H2,1H3

> <InChI Key_QSARr>
DPBLXKKOBLCELK-UHFFFAOYSA-N

> <Salt_Solvent>


> <Salt_Solvent_ID>
0

> <MPID>
102440

> <HL Reference>
CHRISTIE,AO & CRISP,DJ (1967)

> <HL Temperature>
25

> <LogHL>
-4.614393726401699

> <Tr_1_Tst_0>
1

$$$$
100579
  Mrv171c012241914302D          

  6  5  0  0  0  0            999 V2000
    0.0018   -0.4119    0.0000 C   0  0  0  0  0  0  0  0  0  0  0  0
    0.7163    0.0006    0.0000 C   0  0  0  0  0  0  0  0  0  0  0  0
    1.4307   -0.4119    0.0000 C   0  0  0  0  0  0  0  0  0  0  0  0
    2.1452    0.0006    0.0000 C   0  0  0  0  0  0  0  0  0  0  0  0
    2.8597   -0.4119    0.0000 C   0  0  0  0  0  0  0  0  0  0  0  0
    3.5741    0.0006    0.0000 O   0  0  0  0  0  0  0  0  0  0  0  0
  1  2  1  0  0  0  0
  2  3  1  0  0  0  0
  3  4  1  0  0  0  0
  4  5  1  0  0  0  0
  5  6  2  0  0  0  0
M  END
> <ChemID>
100579

> <CAS>
110-62-3

> <Original_SMILES>
CCCCC=O

> <preferred_name>
Pentanal

> <dsstox_substance_id>
DTXSID7021653

> <dsstox_compound_id>
DTXCID001653

> <qc_level>
DSSTox_Low

> <Canonical_QSARr>
CCCCC=O

> <InChI_Code_QSARr>
InChI=1S/C5H10O/c1-2-3-4-5-6/h5H,2-4H2,1H3

> <InChI Key_QSARr>
HGBOYTHUEUWSSQ-UHFFFAOYSA-N

> <Salt_Solvent>


> <Salt_Solvent_ID>
0

> <MPID>
102441

> <HL Reference>
BUTTERY,RG ET AL. (1969)

> <HL Temperature>
25

> <LogHL>
-3.8326826652518244

> <Tr_1_Tst_0>
1

$$$$
100584
  Mrv171c012241914302D          

  6  5  0  0  0  0            999 V2000
    0.0018   -0.4119    0.0000 O   0  0  0  0  0  0  0  0  0  0  0  0
    0.7162    0.0006    0.0000 C   0  0  0  0  0  0  0  0  0  0  0  0
    1.4307   -0.4119    0.0000 C   0  0  0  0  0  0  0  0  0  0  0  0
    2.1452    0.0006    0.0000 O   0  0  0  0  0  0  0  0  0  0  0  0
    2.8597   -0.4119    0.0000 C   0  0  0  0  0  0  0  0  0  0  0  0
    3.5741    0.0006    0.0000 C   0  0  0  0  0  0  0  0  0  0  0  0
  1  2  1  0  0  0  0
  2  3  1  0  0  0  0
  3  4  1  0  0  0  0
  4  5  1  0  0  0  0
  5  6  1  0  0  0  0
M  END
> <ChemID>
100584

> <CAS>
110-80-5

> <Original_SMILES>
CCOCCO

> <preferred_name>
2-Ethoxyethanol

> <dsstox_substance_id>
DTXSID7024087

> <dsstox_compound_id>
DTXCID604087

> <qc_level>
DSSTox_Low

> <Canonical_QSARr>
CCOCCO

> <InChI_Code_QSARr>
InChI=1S/C4H10O2/c1-2-6-4-3-5/h5H,2-4H2,1H3

> <InChI Key_QSARr>
ZNQVEEAIQZEUHB-UHFFFAOYSA-N

> <Salt_Solvent>


> <Salt_Solvent_ID>
0

> <MPID>
102442

> <HL Reference>
JOHANSON,G & DYNESIUS,B (1988)

> <HL Temperature>
25

> <LogHL>
-6.327902142064279

> <Tr_1_Tst_0>
0

$$$$
100585
  Mrv171c012241914302D          

  6  5  0  0  0  0            999 V2000
    1.4307   -0.4119    0.0000 S   0  0  0  0  0  0  0  0  0  0  0  0
    0.7162    0.0006    0.0000 C   0  0  0  0  0  0  0  0  0  0  0  0
    0.0018   -0.4119    0.0000 C   0  0  0  0  0  0  0  0  0  0  0  0
    2.1452    0.0006    0.0000 S   0  0  0  0  0  0  0  0  0  0  0  0
    2.8597   -0.4119    0.0000 C   0  0  0  0  0  0  0  0  0  0  0  0
    3.5741    0.0006    0.0000 C   0  0  0  0  0  0  0  0  0  0  0  0
  1  2  1  0  0  0  0
  2  3  1  0  0  0  0
  1  4  1  0  0  0  0
  4  5  1  0  0  0  0
  5  6  1  0  0  0  0
M  END
> <ChemID>
100585

> <CAS>
110-81-6

> <Original_SMILES>
CCSSCC

> <preferred_name>
Diethyl disulphide

> <dsstox_substance_id>
DTXSID3051464

> <dsstox_compound_id>
DTXCID308872

> <qc_level>
DSSTox_High

> <Canonical_QSARr>
CCSSCC

> <InChI_Code_QSARr>
InChI=1S/C4H10S2/c1-3-5-6-4-2/h3-4H2,1-2H3

> <InChI Key_QSARr>
CETBSQOFQKLHHZ-UHFFFAOYSA-N

> <Salt_Solvent>


> <Salt_Solvent_ID>
0

> <MPID>
102443

> <HL Reference>
VITENBERG,AG ET AL. (1975)

> <HL Temperature>
20

> <LogHL>
-2.6675615400843964

> <Tr_1_Tst_0>
1

$$$$
100586
  Mrv171c012241914302D          

  6  6  0  0  0  0            999 V2000
    1.4289   -0.4125    0.0000 C   0  0  0  0  0  0  0  0  0  0  0  0
    0.7145    0.0000    0.0000 C   0  0  0  0  0  0  0  0  0  0  0  0
    0.0000   -0.4125    0.0000 C   0  0  0  0  0  0  0  0  0  0  0  0
    0.0000   -1.2375    0.0000 C   0  0  0  0  0  0  0  0  0  0  0  0
    0.7145   -1.6500    0.0000 C   0  0  0  0  0  0  0  0  0  0  0  0
    1.4289   -1.2375    0.0000 C   0  0  0  0  0  0  0  0  0  0  0  0
  2  1  1  0  0  0  0
  3  2  1  0  0  0  0
  4  3  1  0  0  0  0
  5  4  1  0  0  0  0
  6  5  1  0  0  0  0
  1  6  1  0  0  0  0
M  END
> <ChemID>
100586

> <CAS>
110-82-7

> <Original_SMILES>
C1CCCCC1

> <preferred_name>
Cyclohexane

> <dsstox_substance_id>
DTXSID4021923

> <dsstox_compound_id>
DTXCID701923

> <qc_level>
DSSTox_Low

> <Canonical_QSARr>
C1CCCCC1

> <InChI_Code_QSARr>
InChI=1S/C6H12/c1-2-4-6-5-3-1/h1-6H2

> <InChI Key_QSARr>
XDTMQSROBMDMFD-UHFFFAOYSA-N

> <Salt_Solvent>


> <Salt_Solvent_ID>
0

> <MPID>
102444

> <HL Reference>
BOCEK,K (1976)

> <HL Temperature>
25

> <LogHL>
-0.8239087409443181

> <Tr_1_Tst_0>
1

$$$$
100587
  Mrv171c012241914302D          

  6  6  0  0  0  0            999 V2000
    1.5292   -0.2943    0.0000 C   0  0  0  0  0  0  0  0  0  0  0  0
    0.8148    0.1182    0.0000 C   0  0  0  0  0  0  0  0  0  0  0  0
    0.1003   -0.2943    0.0000 C   0  0  0  0  0  0  0  0  0  0  0  0
    0.1003   -1.1193    0.0000 C   0  0  0  0  0  0  0  0  0  0  0  0
    0.8148   -1.5318    0.0000 C   0  0  0  0  0  0  0  0  0  0  0  0
    1.5292   -1.1193    0.0000 C   0  0  0  0  0  0  0  0  0  0  0  0
  2  1  1  0  0  0  0
  3  2  1  0  0  0  0
  4  3  1  0  0  0  0
  5  4  1  0  0  0  0
  6  5  1  0  0  0  0
  1  6  2  0  0  0  0
M  END
> <ChemID>
100587

> <CAS>
110-83-8

> <Original_SMILES>
C1CCCC=C1

> <preferred_name>
Cyclohexene

> <dsstox_substance_id>
DTXSID9038717

> <dsstox_compound_id>
DTXCID7018717

> <qc_level>
DSSTox_Low

> <Canonical_QSARr>
C1CCCC=C1

> <InChI_Code_QSARr>
InChI=1S/C6H10/c1-2-4-6-5-3-1/h1-2H,3-6H2

> <InChI Key_QSARr>
HGCIXCUEYOPUTN-UHFFFAOYSA-N

> <Salt_Solvent>


> <Salt_Solvent_ID>
0

> <MPID>
102445

> <HL Reference>
HINE,J & MOOKERJEE,PK (1975)

> <HL Temperature>
25

> <LogHL>
-1.3419886033428863

> <Tr_1_Tst_0>
1

$$$$
100588
  Mrv171c012241914302D          

  6  6  0  0  0  0            999 V2000
    1.4289   -0.4125    0.0000 N   0  0  0  0  0  0  0  0  0  0  0  0
    0.7145    0.0000    0.0000 C   0  0  0  0  0  0  0  0  0  0  0  0
    0.0000   -0.4125    0.0000 C   0  0  0  0  0  0  0  0  0  0  0  0
    0.0000   -1.2375    0.0000 C   0  0  0  0  0  0  0  0  0  0  0  0
    0.7145   -1.6500    0.0000 C   0  0  0  0  0  0  0  0  0  0  0  0
    1.4289   -1.2375    0.0000 C   0  0  0  0  0  0  0  0  0  0  0  0
  2  1  1  0  0  0  0
  3  2  2  0  0  0  0
  4  3  1  0  0  0  0
  5  4  2  0  0  0  0
  6  5  1  0  0  0  0
  1  6  2  0  0  0  0
M  END
> <ChemID>
100588

> <CAS>
110-86-1

> <Original_SMILES>
c1cccc[n]1

> <preferred_name>
Pyridine

> <dsstox_substance_id>
DTXSID9021924

> <dsstox_compound_id>
DTXCID101924

> <qc_level>
DSSTox_Low

> <Canonical_QSARr>
C1=CC=CC=N1

> <InChI_Code_QSARr>
InChI=1S/C5H5N/c1-2-4-6-5-3-1/h1-5H

> <InChI Key_QSARr>
JUJWROOIHBZHMG-UHFFFAOYSA-N

> <Salt_Solvent>


> <Salt_Solvent_ID>
0

> <MPID>
102446

> <HL Reference>
HAWTHORNE,SB ET AL. (1985)

> <HL Temperature>
25

> <LogHL>
-4.958607314841773

> <Tr_1_Tst_0>
0

$$$$
100589
  Mrv171c012241914302D          

  6  6  0  0  0  0            999 V2000
    1.4289   -0.4125    0.0000 C   0  0  0  0  0  0  0  0  0  0  0  0
    0.7145    0.0000    0.0000 C   0  0  0  0  0  0  0  0  0  0  0  0
    0.0000   -0.4125    0.0000 C   0  0  0  0  0  0  0  0  0  0  0  0
    0.0000   -1.2375    0.0000 N   0  0  0  0  0  0  0  0  0  0  0  0
    0.7145   -1.6500    0.0000 C   0  0  0  0  0  0  0  0  0  0  0  0
    1.4289   -1.2375    0.0000 C   0  0  0  0  0  0  0  0  0  0  0  0
  2  1  1  0  0  0  0
  3  2  1  0  0  0  0
  4  3  1  0  0  0  0
  5  4  1  0  0  0  0
  6  5  1  0  0  0  0
  1  6  1  0  0  0  0
M  END
> <ChemID>
100589

> <CAS>
110-89-4

> <Original_SMILES>
C1CCCCN1

> <preferred_name>
Piperidine

> <dsstox_substance_id>
DTXSID6021165

> <dsstox_compound_id>
DTXCID101165

> <qc_level>
DSSTox_Low

> <Canonical_QSARr>
C1CCCCN1

> <InChI_Code_QSARr>
InChI=1S/C5H11N/c1-2-4-6-5-3-1/h6H,1-5H2

> <InChI Key_QSARr>
NQRYJNQNLNOLGT-UHFFFAOYSA-N

> <Salt_Solvent>


> <Salt_Solvent_ID>
0

> <MPID>
102447

> <HL Reference>
CABANI,S ET AL. (1971)

> <HL Temperature>
25

> <LogHL>
-5.3516399890190565

> <Tr_1_Tst_0>
1

$$$$
100592
  Mrv171c012241914302D          

 11 10  0  0  0  0            999 V2000
    1.4384   -1.0615    0.0000 C   0  0  0  0  0  0  0  0  0  0  0  0
    1.4384   -1.8865    0.0000 O   0  0  0  0  0  0  0  0  0  0  0  0
    0.7239   -0.6490    0.0000 O   0  0  0  0  0  0  0  0  0  0  0  0
    0.0094   -1.0615    0.0000 C   0  0  0  0  0  0  0  0  0  0  0  0
    2.1529   -0.6490    0.0000 C   0  0  0  0  0  0  0  0  0  0  0  0
    2.8673   -1.0615    0.0000 C   0  0  0  0  0  0  0  0  0  0  0  0
    3.5818   -0.6490    0.0000 C   0  0  0  0  0  0  0  0  0  0  0  0
    4.2963   -1.0615    0.0000 C   0  0  0  0  0  0  0  0  0  0  0  0
    5.0107   -0.6490    0.0000 C   0  0  0  0  0  0  0  0  0  0  0  0
    5.7252   -1.0615    0.0000 C   0  0  0  0  0  0  0  0  0  0  0  0
    6.4397   -0.6490    0.0000 C   0  0  0  0  0  0  0  0  0  0  0  0
  1  2  2  0  0  0  0
  1  3  1  0  0  0  0
  3  4  1  0  0  0  0
  1  5  1  0  0  0  0
  5  6  1  0  0  0  0
  6  7  1  0  0  0  0
  7  8  1  0  0  0  0
  8  9  1  0  0  0  0
  9 10  1  0  0  0  0
 10 11  1  0  0  0  0
M  END
> <ChemID>
100592

> <CAS>
111-11-5

> <Original_SMILES>
CCCCCCCC(=O)OC

> <preferred_name>
Methyl octanoate

> <dsstox_substance_id>
DTXSID2026864

> <dsstox_compound_id>
DTXCID606864

> <qc_level>
DSSTox_Low

> <Canonical_QSARr>
CCCCCCCC(=O)OC

> <InChI_Code_QSARr>
InChI=1S/C9H18O2/c1-3-4-5-6-7-8-9(10)11-2/h3-8H2,1-2H3

> <InChI Key_QSARr>
JGHZJRVDZXSNKQ-UHFFFAOYSA-N

> <Salt_Solvent>


> <Salt_Solvent_ID>
0

> <MPID>
102448

> <HL Reference>
BUTTERY,RG ET AL. (1969)

> <HL Temperature>
25

> <LogHL>
-3.1062382379420557

> <Tr_1_Tst_0>
0

$$$$
100593
  Mrv171c012241914302D          

  9  8  0  0  0  0            999 V2000
   -0.1500   -1.1151    0.0000 C   0  0  0  0  0  0  0  0  0  0  0  0
    0.5645   -0.7026    0.0000 C   0  0  0  0  0  0  0  0  0  0  0  0
    1.2790   -1.1151    0.0000 C   0  0  0  0  0  0  0  0  0  0  0  0
    1.9934   -0.7026    0.0000 C   0  0  0  0  0  0  0  0  0  0  0  0
    2.7079   -1.1151    0.0000 C   0  0  0  0  0  0  0  0  0  0  0  0
    3.4224   -0.7026    0.0000 C   0  0  0  0  0  0  0  0  0  0  0  0
    4.1368   -1.1151    0.0000 C   0  0  0  0  0  0  0  0  0  0  0  0
    4.8513   -0.7026    0.0000 C   0  0  0  0  0  0  0  0  0  0  0  0
    0.5645    0.1224    0.0000 O   0  0  0  0  0  0  0  0  0  0  0  0
  1  2  1  0  0  0  0
  2  3  1  0  0  0  0
  3  4  1  0  0  0  0
  4  5  1  0  0  0  0
  5  6  1  0  0  0  0
  6  7  1  0  0  0  0
  7  8  1  0  0  0  0
  2  9  2  0  0  0  0
M  END
> <ChemID>
100593

> <CAS>
111-13-7

> <Original_SMILES>
CCCCCCC(C)=O

> <preferred_name>
2-Octanone

> <dsstox_substance_id>
DTXSID4021927

> <dsstox_compound_id>
DTXCID301927

> <qc_level>
DSSTox_Low

> <Canonical_QSARr>
CCCCCCC(C)=O

> <InChI_Code_QSARr>
InChI=1S/C8H16O/c1-3-4-5-6-7-8(2)9/h3-7H2,1-2H3

> <InChI Key_QSARr>
ZPVFWPFBNIEHGJ-UHFFFAOYSA-N

> <Salt_Solvent>


> <Salt_Solvent_ID>
0

> <MPID>
102449

> <HL Reference>
BUTTERY,RG ET AL. (1969)

> <HL Temperature>
25

> <LogHL>
-3.725842150736322

> <Tr_1_Tst_0>
1

$$$$
100595
  Mrv171c012241914302D          

  9  8  0  0  0  0            999 V2000
   -0.1480   -1.1158    0.0000 C   0  0  0  0  0  0  0  0  0  0  0  0
    0.5665   -0.7033    0.0000 C   0  0  0  0  0  0  0  0  0  0  0  0
    1.2810   -1.1158    0.0000 O   0  0  0  0  0  0  0  0  0  0  0  0
    1.9955   -0.7033    0.0000 C   0  0  0  0  0  0  0  0  0  0  0  0
    2.7099   -1.1158    0.0000 C   0  0  0  0  0  0  0  0  0  0  0  0
    3.4244   -0.7033    0.0000 O   0  0  0  0  0  0  0  0  0  0  0  0
    4.1389   -1.1158    0.0000 C   0  0  0  0  0  0  0  0  0  0  0  0
    4.8533   -0.7033    0.0000 C   0  0  0  0  0  0  0  0  0  0  0  0
    0.5665    0.1217    0.0000 O   0  0  0  0  0  0  0  0  0  0  0  0
  1  2  1  0  0  0  0
  2  3  1  0  0  0  0
  3  4  1  0  0  0  0
  4  5  1  0  0  0  0
  5  6  1  0  0  0  0
  6  7  1  0  0  0  0
  7  8  1  0  0  0  0
  2  9  2  0  0  0  0
M  END
> <ChemID>
100595

> <CAS>
111-15-9

> <Original_SMILES>
CCOCCOC(C)=O

> <preferred_name>
2-Ethoxyethyl acetate

> <dsstox_substance_id>
DTXSID9021928

> <dsstox_compound_id>
DTXCID701928

> <qc_level>
DSSTox_Low

> <Canonical_QSARr>
CCOCCOC(C)=O

> <InChI_Code_QSARr>
InChI=1S/C6H12O3/c1-3-8-4-5-9-6(2)7/h3-5H2,1-2H3

> <InChI Key_QSARr>
SVONRAPFKPVNKG-UHFFFAOYSA-N

> <Salt_Solvent>


> <Salt_Solvent_ID>
0

> <MPID>
102450

> <HL Reference>
JOHANSON,G & DYNESIUS,B (1988)

> <HL Temperature>
25

> <LogHL>
-5.494850021680096

> <Tr_1_Tst_0>
1

$$$$
100598
  Mrv171c012241914302D          

  7  6  0  0  0  0            999 V2000
   -0.0018   -0.0582    0.0000 C   0  0  0  0  0  0  0  0  0  0  0  0
    0.7127   -0.4707    0.0000 C   0  0  0  0  0  0  0  0  0  0  0  0
    1.4272   -0.0582    0.0000 C   0  0  0  0  0  0  0  0  0  0  0  0
    2.1416   -0.4707    0.0000 C   0  0  0  0  0  0  0  0  0  0  0  0
    2.8561   -0.0582    0.0000 C   0  0  0  0  0  0  0  0  0  0  0  0
    3.5706   -0.4707    0.0000 C   0  0  0  0  0  0  0  0  0  0  0  0
    4.2850   -0.0582    0.0000 N   0  0  0  0  0  0  0  0  0  0  0  0
  1  2  1  0  0  0  0
  2  3  1  0  0  0  0
  3  4  1  0  0  0  0
  4  5  1  0  0  0  0
  5  6  1  0  0  0  0
  6  7  1  0  0  0  0
M  END
> <ChemID>
100598

> <CAS>
111-26-2

> <Original_SMILES>
CCCCCCN

> <preferred_name>
Hexylamine

> <dsstox_substance_id>
DTXSID3021930

> <dsstox_compound_id>
DTXCID801930

> <qc_level>
DSSTox_Low

> <Canonical_QSARr>
CCCCCCN

> <InChI_Code_QSARr>
InChI=1S/C6H15N/c1-2-3-4-5-6-7/h2-7H2,1H3

> <InChI Key_QSARr>
BMVXCPBXGZKUPN-UHFFFAOYSA-N

> <Salt_Solvent>


> <Salt_Solvent_ID>
0

> <MPID>
102451

> <HL Reference>
CHRISTIE,AO & CRISP,DJ (1967)

> <HL Temperature>
25

> <LogHL>
-4.571865205971227

> <Tr_1_Tst_0>
1

$$$$
100599
  Mrv171c012241914302D          

  7  6  0  0  0  0            999 V2000
   -0.0018   -0.0582    0.0000 C   0  0  0  0  0  0  0  0  0  0  0  0
    0.7127   -0.4707    0.0000 C   0  0  0  0  0  0  0  0  0  0  0  0
    1.4272   -0.0582    0.0000 C   0  0  0  0  0  0  0  0  0  0  0  0
    2.1416   -0.4707    0.0000 C   0  0  0  0  0  0  0  0  0  0  0  0
    2.8561   -0.0582    0.0000 C   0  0  0  0  0  0  0  0  0  0  0  0
    3.5706   -0.4707    0.0000 C   0  0  0  0  0  0  0  0  0  0  0  0
    4.2850   -0.0582    0.0000 O   0  0  0  0  0  0  0  0  0  0  0  0
  1  2  1  0  0  0  0
  2  3  1  0  0  0  0
  3  4  1  0  0  0  0
  4  5  1  0  0  0  0
  5  6  1  0  0  0  0
  6  7  1  0  0  0  0
M  END
> <ChemID>
100599

> <CAS>
111-27-3

> <Original_SMILES>
CCCCCCO

> <preferred_name>
1-Hexanol

> <dsstox_substance_id>
DTXSID8021931

> <dsstox_compound_id>
DTXCID201931

> <qc_level>
DSSTox_Low

> <Canonical_QSARr>
CCCCCCO

> <InChI_Code_QSARr>
InChI=1S/C6H14O/c1-2-3-4-5-6-7/h7H,2-6H2,1H3

> <InChI Key_QSARr>
ZSIAUFGUXNUGDI-UHFFFAOYSA-N

> <Salt_Solvent>


> <Salt_Solvent_ID>
0

> <MPID>
102452

> <HL Reference>
BUTTERY,RG ET AL. (1969)

> <HL Temperature>
25

> <LogHL>
-4.767003889607863

> <Tr_1_Tst_0>
1

$$$$
100602
  Mrv171c012241914302D          

  7  6  0  0  0  0            999 V2000
    2.1471   -0.4105    0.0000 O   0  0  0  0  0  0  0  0  0  0  0  0
    1.4326    0.0020    0.0000 C   0  0  0  0  0  0  0  0  0  0  0  0
    0.7181   -0.4105    0.0000 C   0  0  0  0  0  0  0  0  0  0  0  0
    0.0036    0.0020    0.0000 C   0  0  0  0  0  0  0  0  0  0  0  0
    2.8615    0.0020    0.0000 C   0  0  0  0  0  0  0  0  0  0  0  0
    3.5760   -0.4105    0.0000 C   0  0  0  0  0  0  0  0  0  0  0  0
    4.2905    0.0020    0.0000 C   0  0  0  0  0  0  0  0  0  0  0  0
  1  2  1  0  0  0  0
  2  3  1  0  0  0  0
  3  4  1  0  0  0  0
  1  5  1  0  0  0  0
  5  6  1  0  0  0  0
  6  7  1  0  0  0  0
M  END
> <ChemID>
100602

> <CAS>
111-43-3

> <Original_SMILES>
CCCOCCC

> <preferred_name>
Propyl ether

> <dsstox_substance_id>
DTXSID8042343

> <dsstox_compound_id>
DTXCID6022343

> <qc_level>
DSSTox_Low

> <Canonical_QSARr>
CCCOCCC

> <InChI_Code_QSARr>
InChI=1S/C6H14O/c1-3-5-7-6-4-2/h3-6H2,1-2H3

> <InChI Key_QSARr>
POLCUAVZOMRGSN-UHFFFAOYSA-N

> <Salt_Solvent>


> <Salt_Solvent_ID>
0

> <MPID>
102453

> <HL Reference>
BOCEK,K (1976)

> <HL Temperature>
25

> <LogHL>
-2.657577319177795

> <Tr_1_Tst_0>
1

$$$$
100604
  Mrv171c012241914302D          

  7  6  0  0  0  0            999 V2000
   -0.0019   -0.0582    0.0000 C   0  0  0  0  0  0  0  0  0  0  0  0
    0.7126   -0.4707    0.0000 C   0  0  0  0  0  0  0  0  0  0  0  0
    1.4271   -0.0582    0.0000 C   0  0  0  0  0  0  0  0  0  0  0  0
    2.1415   -0.4707    0.0000 S   0  0  0  0  0  0  0  0  0  0  0  0
    2.8560   -0.0582    0.0000 C   0  0  0  0  0  0  0  0  0  0  0  0
    3.5705   -0.4707    0.0000 C   0  0  0  0  0  0  0  0  0  0  0  0
    4.2850   -0.0582    0.0000 C   0  0  0  0  0  0  0  0  0  0  0  0
  1  2  1  0  0  0  0
  2  3  1  0  0  0  0
  3  4  1  0  0  0  0
  4  5  1  0  0  0  0
  5  6  1  0  0  0  0
  6  7  1  0  0  0  0
M  END
> <ChemID>
100604

> <CAS>
111-47-7

> <Original_SMILES>
CCCSCCC

> <preferred_name>
Propyl sulfide

> <dsstox_substance_id>
DTXSID3021934

> <dsstox_compound_id>
DTXCID401934

> <qc_level>
DSSTox_Low

> <Canonical_QSARr>
CCCSCCC

> <InChI_Code_QSARr>
InChI=1S/C6H14S/c1-3-5-7-6-4-2/h3-6H2,1-2H3

> <InChI Key_QSARr>
ZERULLAPCVRMCO-UHFFFAOYSA-N

> <Salt_Solvent>


> <Salt_Solvent_ID>
0

> <MPID>
102454

> <HL Reference>
PRZYJAZNY,A ET AL. (1983)

> <HL Temperature>
25

> <LogHL>
-2.489454989793388

> <Tr_1_Tst_0>
0

$$$$
100605
  Mrv171c012241914302D          

  7  7  0  0  0  0            999 V2000
    1.6888   -0.3359    0.0000 N   0  0  0  0  0  0  0  0  0  0  0  0
    0.9455    0.0221    0.0000 C   0  0  0  0  0  0  0  0  0  0  0  0
    0.2022   -0.3359    0.0000 C   0  0  0  0  0  0  0  0  0  0  0  0
    0.0186   -1.1402    0.0000 C   0  0  0  0  0  0  0  0  0  0  0  0
    0.5330   -1.7852    0.0000 C   0  0  0  0  0  0  0  0  0  0  0  0
    1.3580   -1.7852    0.0000 C   0  0  0  0  0  0  0  0  0  0  0  0
    1.8723   -1.1402    0.0000 C   0  0  0  0  0  0  0  0  0  0  0  0
  2  1  1  0  0  0  0
  3  2  1  0  0  0  0
  4  3  1  0  0  0  0
  5  4  1  0  0  0  0
  6  5  1  0  0  0  0
  7  6  1  0  0  0  0
  1  7  1  0  0  0  0
M  END
> <ChemID>
100605

> <CAS>
111-49-9

> <Original_SMILES>
C1CCCCCN1

> <preferred_name>
Hexamethyleneimine

> <dsstox_substance_id>
DTXSID1026879

> <dsstox_compound_id>
DTXCID906879

> <qc_level>
DSSTox_Low

> <Canonical_QSARr>
C1CCCCCN1

> <InChI_Code_QSARr>
InChI=1S/C6H13N/c1-2-4-6-7-5-3-1/h7H,1-6H2

> <InChI Key_QSARr>
ZSIQJIWKELUFRJ-UHFFFAOYSA-N

> <Salt_Solvent>


> <Salt_Solvent_ID>
0

> <MPID>
102455

> <HL Reference>
CABANI,S ET AL. (1971)

> <HL Temperature>
25

> <LogHL>
-5.211831628858822

> <Tr_1_Tst_0>
1

$$$$
100610
  Mrv171c012241914302D          

  8  7  0  0  0  0            999 V2000
    0.0018   -0.4115    0.0000 C   0  0  0  0  0  0  0  0  0  0  0  0
    0.7163    0.0010    0.0000 C   0  0  0  0  0  0  0  0  0  0  0  0
    1.4308   -0.4115    0.0000 C   0  0  0  0  0  0  0  0  0  0  0  0
    2.1452    0.0010    0.0000 C   0  0  0  0  0  0  0  0  0  0  0  0
    2.8597   -0.4115    0.0000 C   0  0  0  0  0  0  0  0  0  0  0  0
    3.5742    0.0010    0.0000 C   0  0  0  0  0  0  0  0  0  0  0  0
    4.2887   -0.4115    0.0000 C   0  0  0  0  0  0  0  0  0  0  0  0
    5.0031    0.0010    0.0000 O   0  0  0  0  0  0  0  0  0  0  0  0
  1  2  1  0  0  0  0
  2  3  1  0  0  0  0
  3  4  1  0  0  0  0
  4  5  1  0  0  0  0
  5  6  1  0  0  0  0
  6  7  1  0  0  0  0
  7  8  1  0  0  0  0
M  END
> <ChemID>
100610

> <CAS>
111-70-6

> <Original_SMILES>
CCCCCCCO

> <preferred_name>
1-Heptanol

> <dsstox_substance_id>
DTXSID8021937

> <dsstox_compound_id>
DTXCID601937

> <qc_level>
DSSTox_Low

> <Canonical_QSARr>
CCCCCCCO

> <InChI_Code_QSARr>
InChI=1S/C7H16O/c1-2-3-4-5-6-7-8/h8H,2-7H2,1H3

> <InChI Key_QSARr>
BBMCTIGTTCKYKF-UHFFFAOYSA-N

> <Salt_Solvent>


> <Salt_Solvent_ID>
0

> <MPID>
102456

> <HL Reference>
BUTLER,JAV ET AL. (1935)

> <HL Temperature>
25

> <LogHL>
-4.725842150736333

> <Tr_1_Tst_0>
1

$$$$
100611
  Mrv171c012241914302D          

  8  7  0  0  0  0            999 V2000
    0.0018   -0.4115    0.0000 C   0  0  0  0  0  0  0  0  0  0  0  0
    0.7163    0.0010    0.0000 C   0  0  0  0  0  0  0  0  0  0  0  0
    1.4308   -0.4115    0.0000 C   0  0  0  0  0  0  0  0  0  0  0  0
    2.1452    0.0010    0.0000 C   0  0  0  0  0  0  0  0  0  0  0  0
    2.8597   -0.4115    0.0000 C   0  0  0  0  0  0  0  0  0  0  0  0
    3.5742    0.0010    0.0000 C   0  0  0  0  0  0  0  0  0  0  0  0
    4.2887   -0.4115    0.0000 C   0  0  0  0  0  0  0  0  0  0  0  0
    5.0031    0.0010    0.0000 O   0  0  0  0  0  0  0  0  0  0  0  0
  1  2  1  0  0  0  0
  2  3  1  0  0  0  0
  3  4  1  0  0  0  0
  4  5  1  0  0  0  0
  5  6  1  0  0  0  0
  6  7  1  0  0  0  0
  7  8  2  0  0  0  0
M  END
> <ChemID>
100611

> <CAS>
111-71-7

> <Original_SMILES>
CCCCCCC=O

> <preferred_name>
Heptanal

> <dsstox_substance_id>
DTXSID0021597

> <dsstox_compound_id>
DTXCID601597

> <qc_level>
DSSTox_Low

> <Canonical_QSARr>
CCCCCCC=O

> <InChI_Code_QSARr>
InChI=1S/C7H14O/c1-2-3-4-5-6-7-8/h7H,2-6H2,1H3

> <InChI Key_QSARr>
FXHGMKSSBGDXIY-UHFFFAOYSA-N

> <Salt_Solvent>


> <Salt_Solvent_ID>
0

> <MPID>
102457

> <HL Reference>
BUTTERY,RG ET AL. (1969)

> <HL Temperature>
25

> <LogHL>
-3.568636235841012

> <Tr_1_Tst_0>
1

$$$$
100612
  Mrv171c012241914302D          

  8  7  0  0  0  0            999 V2000
   -0.0008   -0.4114    0.0000 O   0  0  0  0  0  0  0  0  0  0  0  0
    0.7136    0.0011    0.0000 C   0  0  0  0  0  0  0  0  0  0  0  0
    1.4281   -0.4114    0.0000 C   0  0  0  0  0  0  0  0  0  0  0  0
    2.1426    0.0011    0.0000 O   0  0  0  0  0  0  0  0  0  0  0  0
    2.8570   -0.4114    0.0000 C   0  0  0  0  0  0  0  0  0  0  0  0
    3.5715    0.0011    0.0000 C   0  0  0  0  0  0  0  0  0  0  0  0
    4.2860   -0.4114    0.0000 C   0  0  0  0  0  0  0  0  0  0  0  0
    5.0005    0.0011    0.0000 C   0  0  0  0  0  0  0  0  0  0  0  0
  1  2  1  0  0  0  0
  2  3  1  0  0  0  0
  3  4  1  0  0  0  0
  4  5  1  0  0  0  0
  5  6  1  0  0  0  0
  6  7  1  0  0  0  0
  7  8  1  0  0  0  0
M  END
> <ChemID>
100612

> <CAS>
111-76-2

> <Original_SMILES>
CCCCOCCO

> <preferred_name>
2-Butoxyethanol

> <dsstox_substance_id>
DTXSID1024097

> <dsstox_compound_id>
DTXCID904097

> <qc_level>
DSSTox_Low

> <Canonical_QSARr>
CCCCOCCO

> <InChI_Code_QSARr>
InChI=1S/C6H14O2/c1-2-3-5-8-6-4-7/h7H,2-6H2,1H3

> <InChI Key_QSARr>
POAOYUHQDCAZBD-UHFFFAOYSA-N

> <Salt_Solvent>


> <Salt_Solvent_ID>
0

> <MPID>
102458

> <HL Reference>
JOHANSON,G & DYNESIUS,B (1988)

> <HL Temperature>
25

> <LogHL>
-5.795880017344058

> <Tr_1_Tst_0>
0

$$$$
100617
  Mrv171c012241914302D          

  9  8  0  0  0  0            999 V2000
    0.0017   -0.0454    0.0000 C   0  0  0  0  0  0  0  0  0  0  0  0
    0.7161   -0.4579    0.0000 C   0  0  0  0  0  0  0  0  0  0  0  0
    1.4306   -0.0454    0.0000 C   0  0  0  0  0  0  0  0  0  0  0  0
    2.1451   -0.4579    0.0000 C   0  0  0  0  0  0  0  0  0  0  0  0
    2.8595   -0.0454    0.0000 C   0  0  0  0  0  0  0  0  0  0  0  0
    3.5740   -0.4579    0.0000 C   0  0  0  0  0  0  0  0  0  0  0  0
    4.2885   -0.0454    0.0000 C   0  0  0  0  0  0  0  0  0  0  0  0
    5.0030   -0.4579    0.0000 C   0  0  0  0  0  0  0  0  0  0  0  0
    5.7174   -0.0454    0.0000 O   0  0  0  0  0  0  0  0  0  0  0  0
  1  2  1  0  0  0  0
  2  3  1  0  0  0  0
  3  4  1  0  0  0  0
  4  5  1  0  0  0  0
  5  6  1  0  0  0  0
  6  7  1  0  0  0  0
  7  8  1  0  0  0  0
  8  9  1  0  0  0  0
M  END
> <ChemID>
100617

> <CAS>
111-87-5

> <Original_SMILES>
CCCCCCCCO

> <preferred_name>
1-Octanol

> <dsstox_substance_id>
DTXSID7021940

> <dsstox_compound_id>
DTXCID101940

> <qc_level>
DSSTox_Low

> <Canonical_QSARr>
CCCCCCCCO

> <InChI_Code_QSARr>
InChI=1S/C8H18O/c1-2-3-4-5-6-7-8-9/h9H,2-8H2,1H3

> <InChI Key_QSARr>
KBPLFHHGFOOTCA-UHFFFAOYSA-N

> <Salt_Solvent>


> <Salt_Solvent_ID>
0

> <MPID>
102459

> <HL Reference>
BUTTERY,RG ET AL. (1969)

> <HL Temperature>
25

> <LogHL>
-4.61083391563547

> <Tr_1_Tst_0>
1

$$$$
100620
  Mrv171c012241914302D          

  9  8  0  0  0  0            999 V2000
    2.8595   -0.0454    0.0000 N   0  0  0  0  0  0  0  0  0  0  0  0
    2.1451   -0.4579    0.0000 C   0  0  0  0  0  0  0  0  0  0  0  0
    1.4306   -0.0454    0.0000 C   0  0  0  0  0  0  0  0  0  0  0  0
    0.7161   -0.4579    0.0000 C   0  0  0  0  0  0  0  0  0  0  0  0
    0.0017   -0.0454    0.0000 C   0  0  0  0  0  0  0  0  0  0  0  0
    3.5740   -0.4579    0.0000 C   0  0  0  0  0  0  0  0  0  0  0  0
    4.2885   -0.0454    0.0000 C   0  0  0  0  0  0  0  0  0  0  0  0
    5.0030   -0.4579    0.0000 C   0  0  0  0  0  0  0  0  0  0  0  0
    5.7174   -0.0454    0.0000 C   0  0  0  0  0  0  0  0  0  0  0  0
  1  2  1  0  0  0  0
  2  3  1  0  0  0  0
  3  4  1  0  0  0  0
  4  5  1  0  0  0  0
  1  6  1  0  0  0  0
  6  7  1  0  0  0  0
  7  8  1  0  0  0  0
  8  9  1  0  0  0  0
M  END
> <ChemID>
100620

> <CAS>
111-92-2

> <Original_SMILES>
CCCCNCCCC

> <preferred_name>
N-Butyl-1-butanamine

> <dsstox_substance_id>
DTXSID7024952

> <dsstox_compound_id>
DTXCID504952

> <qc_level>
DSSTox_Low

> <Canonical_QSARr>
CCCCNCCCC

> <InChI_Code_QSARr>
InChI=1S/C8H19N/c1-3-5-7-9-8-6-4-2/h9H,3-8H2,1-2H3

> <InChI Key_QSARr>
JQVDAXLFBXTEQA-UHFFFAOYSA-N

> <Salt_Solvent>


> <Salt_Solvent_ID>
0

> <MPID>
102460

> <HL Reference>
CHRISTIE,AO & CRISP,DJ (1967)

> <HL Temperature>
25

> <LogHL>
-4.050609993355085

> <Tr_1_Tst_0>
0

$$$$
100623
  Mrv171c012241914302D          

 11 10  0  0  0  0            999 V2000
    2.6043   -0.1872    0.0000 C   0  0  0  0  0  0  0  0  0  0  0  0
    1.8898   -0.5997    0.0000 O   0  0  0  0  0  0  0  0  0  0  0  0
    1.1753   -0.1872    0.0000 C   0  0  0  0  0  0  0  0  0  0  0  0
    0.4609   -0.5997    0.0000 C   0  0  0  0  0  0  0  0  0  0  0  0
    1.1753    0.6378    0.0000 O   0  0  0  0  0  0  0  0  0  0  0  0
    3.3188   -0.5997    0.0000 C   0  0  0  0  0  0  0  0  0  0  0  0
    4.0332   -0.1872    0.0000 O   0  0  0  0  0  0  0  0  0  0  0  0
    4.7477   -0.5997    0.0000 C   0  0  0  0  0  0  0  0  0  0  0  0
    5.4622   -0.1872    0.0000 C   0  0  0  0  0  0  0  0  0  0  0  0
    6.1766   -0.5997    0.0000 C   0  0  0  0  0  0  0  0  0  0  0  0
    6.8911   -0.1872    0.0000 C   0  0  0  0  0  0  0  0  0  0  0  0
  1  2  1  0  0  0  0
  2  3  1  0  0  0  0
  3  4  1  0  0  0  0
  3  5  2  0  0  0  0
  1  6  1  0  0  0  0
  6  7  1  0  0  0  0
  7  8  1  0  0  0  0
  8  9  1  0  0  0  0
  9 10  1  0  0  0  0
 10 11  1  0  0  0  0
M  END
> <ChemID>
100623

> <CAS>
112-07-2

> <Original_SMILES>
CCCCOCCOC(C)=O

> <preferred_name>
2-Butoxyethyl acetate

> <dsstox_substance_id>
DTXSID1026904

> <dsstox_compound_id>
DTXCID006904

> <qc_level>
DSSTox_Low

> <Canonical_QSARr>
CCCCOCCOC(C)=O

> <InChI_Code_QSARr>
InChI=1S/C8H16O3/c1-3-4-5-10-6-7-11-8(2)9/h3-7H2,1-2H3

> <InChI Key_QSARr>
NQBXSWAWVZHKBZ-UHFFFAOYSA-N

> <Salt_Solvent>


> <Salt_Solvent_ID>
0

> <MPID>
102461

> <HL Reference>
KIM,BR ET AL. (2000)

> <HL Temperature>
25

> <LogHL>
-5.262807357295279

> <Tr_1_Tst_0>
1

$$$$
100624
  Mrv171c012241914302D          

 12 11  0  0  0  0            999 V2000
   -0.0043   -0.6843    0.0000 C   0  0  0  0  0  0  0  0  0  0  0  0
    0.7102   -1.0968    0.0000 C   0  0  0  0  0  0  0  0  0  0  0  0
    1.4247   -0.6843    0.0000 C   0  0  0  0  0  0  0  0  0  0  0  0
    2.1392   -1.0968    0.0000 C   0  0  0  0  0  0  0  0  0  0  0  0
    2.8536   -0.6843    0.0000 C   0  0  0  0  0  0  0  0  0  0  0  0
    3.5681   -1.0968    0.0000 C   0  0  0  0  0  0  0  0  0  0  0  0
    4.2826   -0.6843    0.0000 C   0  0  0  0  0  0  0  0  0  0  0  0
    4.9970   -1.0968    0.0000 C   0  0  0  0  0  0  0  0  0  0  0  0
    5.7115   -0.6843    0.0000 C   0  0  0  0  0  0  0  0  0  0  0  0
    6.4260   -1.0968    0.0000 C   0  0  0  0  0  0  0  0  0  0  0  0
    7.1405   -0.6843    0.0000 C   0  0  0  0  0  0  0  0  0  0  0  0
    6.4260   -1.9218    0.0000 O   0  0  0  0  0  0  0  0  0  0  0  0
  1  2  1  0  0  0  0
  2  3  1  0  0  0  0
  3  4  1  0  0  0  0
  4  5  1  0  0  0  0
  5  6  1  0  0  0  0
  6  7  1  0  0  0  0
  7  8  1  0  0  0  0
  8  9  1  0  0  0  0
  9 10  1  0  0  0  0
 10 11  1  0  0  0  0
 10 12  2  0  0  0  0
M  END
> <ChemID>
100624

> <CAS>
112-12-9

> <Original_SMILES>
CCCCCCCCCC(C)=O

> <preferred_name>
2-Undecanone

> <dsstox_substance_id>
DTXSID2021943

> <dsstox_compound_id>
DTXCID301943

> <qc_level>
DSSTox_Low

> <Canonical_QSARr>
CCCCCCCCCC(C)=O

> <InChI_Code_QSARr>
InChI=1S/C11H22O/c1-3-4-5-6-7-8-9-10-11(2)12/h3-10H2,1-2H3

> <InChI Key_QSARr>
KYWIYKKSMDLRDC-UHFFFAOYSA-N

> <Salt_Solvent>


> <Salt_Solvent_ID>
0

> <MPID>
102462

> <HL Reference>
BUTTERY,RG ET AL. (1969)

> <HL Temperature>
25

> <LogHL>
-4.196542884351587

> <Tr_1_Tst_0>
0

$$$$
100628
  Mrv171c012241914302D          

 11 10  0  0  0  0            999 V2000
   -0.0043   -0.0383    0.0000 C   0  0  0  0  0  0  0  0  0  0  0  0
    0.7102   -0.4508    0.0000 C   0  0  0  0  0  0  0  0  0  0  0  0
    1.4246   -0.0383    0.0000 C   0  0  0  0  0  0  0  0  0  0  0  0
    2.1391   -0.4508    0.0000 C   0  0  0  0  0  0  0  0  0  0  0  0
    2.8536   -0.0383    0.0000 C   0  0  0  0  0  0  0  0  0  0  0  0
    3.5680   -0.4508    0.0000 C   0  0  0  0  0  0  0  0  0  0  0  0
    4.2825   -0.0383    0.0000 C   0  0  0  0  0  0  0  0  0  0  0  0
    4.9970   -0.4508    0.0000 C   0  0  0  0  0  0  0  0  0  0  0  0
    5.7115   -0.0383    0.0000 C   0  0  0  0  0  0  0  0  0  0  0  0
    6.4259   -0.4508    0.0000 C   0  0  0  0  0  0  0  0  0  0  0  0
    7.1404   -0.0383    0.0000 O   0  0  0  0  0  0  0  0  0  0  0  0
  1  2  1  0  0  0  0
  2  3  1  0  0  0  0
  3  4  1  0  0  0  0
  4  5  1  0  0  0  0
  5  6  1  0  0  0  0
  6  7  1  0  0  0  0
  7  8  1  0  0  0  0
  8  9  1  0  0  0  0
  9 10  1  0  0  0  0
 10 11  1  0  0  0  0
M  END
> <ChemID>
100628

> <CAS>
112-30-1

> <Original_SMILES>
CCCCCCCCCCO

> <preferred_name>
1-Decanol

> <dsstox_substance_id>
DTXSID7021946

> <dsstox_compound_id>
DTXCID501946

> <qc_level>
DSSTox_Low

> <Canonical_QSARr>
CCCCCCCCCCO

> <InChI_Code_QSARr>
InChI=1S/C10H22O/c1-2-3-4-5-6-7-8-9-10-11/h11H,2-10H2,1H3

> <InChI Key_QSARr>
MWKFXSUHUHTGQN-UHFFFAOYSA-N

> <Salt_Solvent>


> <Salt_Solvent_ID>
0

> <MPID>
102463

> <HL Reference>
ALTSCHUH,J ET AL. (1999)

> <HL Temperature>
25

> <LogHL>
-4.494850021680073

> <Tr_1_Tst_0>
0

$$$$
100629
  Mrv171c012241914302D          

 11 10  0  0  0  0            999 V2000
   -0.0043   -0.0383    0.0000 C   0  0  0  0  0  0  0  0  0  0  0  0
    0.7102   -0.4508    0.0000 C   0  0  0  0  0  0  0  0  0  0  0  0
    1.4246   -0.0383    0.0000 C   0  0  0  0  0  0  0  0  0  0  0  0
    2.1391   -0.4508    0.0000 C   0  0  0  0  0  0  0  0  0  0  0  0
    2.8536   -0.0383    0.0000 C   0  0  0  0  0  0  0  0  0  0  0  0
    3.5680   -0.4508    0.0000 C   0  0  0  0  0  0  0  0  0  0  0  0
    4.2825   -0.0383    0.0000 C   0  0  0  0  0  0  0  0  0  0  0  0
    4.9970   -0.4508    0.0000 C   0  0  0  0  0  0  0  0  0  0  0  0
    5.7115   -0.0383    0.0000 C   0  0  0  0  0  0  0  0  0  0  0  0
    6.4259   -0.4508    0.0000 C   0  0  0  0  0  0  0  0  0  0  0  0
    7.1404   -0.0383    0.0000 O   0  0  0  0  0  0  0  0  0  0  0  0
  1  2  1  0  0  0  0
  2  3  1  0  0  0  0
  3  4  1  0  0  0  0
  4  5  1  0  0  0  0
  5  6  1  0  0  0  0
  6  7  1  0  0  0  0
  7  8  1  0  0  0  0
  8  9  1  0  0  0  0
  9 10  1  0  0  0  0
 10 11  2  0  0  0  0
M  END
> <ChemID>
100629

> <CAS>
112-31-2

> <Original_SMILES>
CCCCCCCCCC=O

> <preferred_name>
Decanal

> <dsstox_substance_id>
DTXSID4021553

> <dsstox_compound_id>
DTXCID801553

> <qc_level>
DSSTox_Low

> <Canonical_QSARr>
CCCCCCCCCC=O

> <InChI_Code_QSARr>
InChI=1S/C10H20O/c1-2-3-4-5-6-7-8-9-10-11/h10H,2-9H2,1H3

> <InChI Key_QSARr>
KSMVZQYAVGTKIV-UHFFFAOYSA-N

> <Salt_Solvent>


> <Salt_Solvent_ID>
0

> <MPID>
102464

> <HL Reference>
ZHOU,X & MOPPER,K (1990)

> <HL Temperature>
25

> <LogHL>
-2.7447274948966944

> <Tr_1_Tst_0>
1

$$$$
100630
  Mrv171c012241914302D          

 11 10  0  0  0  0            999 V2000
   -0.0043   -0.0383    0.0000 C   0  0  0  0  0  0  0  0  0  0  0  0
    0.7102   -0.4508    0.0000 C   0  0  0  0  0  0  0  0  0  0  0  0
    1.4246   -0.0383    0.0000 C   0  0  0  0  0  0  0  0  0  0  0  0
    2.1391   -0.4508    0.0000 C   0  0  0  0  0  0  0  0  0  0  0  0
    2.8536   -0.0383    0.0000 O   0  0  0  0  0  0  0  0  0  0  0  0
    3.5680   -0.4508    0.0000 C   0  0  0  0  0  0  0  0  0  0  0  0
    4.2825   -0.0383    0.0000 C   0  0  0  0  0  0  0  0  0  0  0  0
    4.9970   -0.4508    0.0000 O   0  0  0  0  0  0  0  0  0  0  0  0
    5.7115   -0.0383    0.0000 C   0  0  0  0  0  0  0  0  0  0  0  0
    6.4259   -0.4508    0.0000 C   0  0  0  0  0  0  0  0  0  0  0  0
    7.1404   -0.0383    0.0000 O   0  0  0  0  0  0  0  0  0  0  0  0
  1  2  1  0  0  0  0
  2  3  1  0  0  0  0
  3  4  1  0  0  0  0
  4  5  1  0  0  0  0
  5  6  1  0  0  0  0
  6  7  1  0  0  0  0
  7  8  1  0  0  0  0
  8  9  1  0  0  0  0
  9 10  1  0  0  0  0
 10 11  1  0  0  0  0
M  END
> <ChemID>
100630

> <CAS>
112-34-5

> <Original_SMILES>
CCCCOCCOCCO

> <preferred_name>
2-(2-Butoxyethoxy)ethanol

> <dsstox_substance_id>
DTXSID8021519

> <dsstox_compound_id>
DTXCID001519

> <qc_level>
DSSTox_Low

> <Canonical_QSARr>
CCCCOCCOCCO

> <InChI_Code_QSARr>
InChI=1S/C8H18O3/c1-2-3-5-10-7-8-11-6-4-9/h9H,2-8H2,1H3

> <InChI Key_QSARr>
OAYXUHPQHDHDDZ-UHFFFAOYSA-N

> <Salt_Solvent>


> <Salt_Solvent_ID>
0

> <MPID>
102465

> <HL Reference>
KIM,BR ET AL. (2000)

> <HL Temperature>
20

> <LogHL>
-8.142667503568731

> <Tr_1_Tst_0>
1

$$$$
100634
  Mrv171c012241914302D          

 13 12  0  0  0  0            999 V2000
    0.7075   -0.4480    0.0000 C   0  0  0  0  0  0  0  0  0  0  0  0
   -0.0070   -0.0355    0.0000 O   0  0  0  0  0  0  0  0  0  0  0  0
    1.4220   -0.0355    0.0000 C   0  0  0  0  0  0  0  0  0  0  0  0
    2.1364   -0.4480    0.0000 C   0  0  0  0  0  0  0  0  0  0  0  0
    2.8509   -0.0355    0.0000 C   0  0  0  0  0  0  0  0  0  0  0  0
    3.5654   -0.4480    0.0000 C   0  0  0  0  0  0  0  0  0  0  0  0
    4.2799   -0.0355    0.0000 C   0  0  0  0  0  0  0  0  0  0  0  0
    4.9943   -0.4480    0.0000 C   0  0  0  0  0  0  0  0  0  0  0  0
    5.7088   -0.0355    0.0000 C   0  0  0  0  0  0  0  0  0  0  0  0
    6.4233   -0.4480    0.0000 C   0  0  0  0  0  0  0  0  0  0  0  0
    7.1377   -0.0355    0.0000 C   0  0  0  0  0  0  0  0  0  0  0  0
    7.8522   -0.4480    0.0000 C   0  0  0  0  0  0  0  0  0  0  0  0
    8.5667   -0.0355    0.0000 C   0  0  0  0  0  0  0  0  0  0  0  0
  1  2  1  0  0  0  0
  1  3  1  0  0  0  0
  3  4  1  0  0  0  0
  4  5  1  0  0  0  0
  5  6  1  0  0  0  0
  6  7  1  0  0  0  0
  7  8  1  0  0  0  0
  8  9  1  0  0  0  0
  9 10  1  0  0  0  0
 10 11  1  0  0  0  0
 11 12  1  0  0  0  0
 12 13  1  0  0  0  0
M  END
> <ChemID>
100634

> <CAS>
112-53-8

> <Original_SMILES>
CCCCCCCCCCCCO

> <preferred_name>
1-Dodecanol

> <dsstox_substance_id>
DTXSID5026918

> <dsstox_compound_id>
DTXCID906918

> <qc_level>
DSSTox_Low

> <Canonical_QSARr>
CCCCCCCCCCCCO

> <InChI_Code_QSARr>
InChI=1S/C12H26O/c1-2-3-4-5-6-7-8-9-10-11-12-13/h13H,2-12H2,1H3

> <InChI Key_QSARr>
LQZZUXJYWNFBMV-UHFFFAOYSA-N

> <Salt_Solvent>


> <Salt_Solvent_ID>
0

> <MPID>
102466

> <HL Reference>
ALTSCHUH,J ET AL. (1999)

> <HL Temperature>
25

> <LogHL>
-4.653647025549343

> <Tr_1_Tst_0>
1

$$$$
100640
  Mrv171c012241914302D          

  3  2  0  0  0  0            999 V2000
   -0.0002   -0.1377    0.0000 C   0  0  0  0  0  0  0  0  0  0  0  0
    0.7143   -0.5502    0.0000 C   0  0  0  0  0  0  0  0  0  0  0  0
    1.4287   -0.1377    0.0000 C   0  0  0  0  0  0  0  0  0  0  0  0
  1  2  1  0  0  0  0
  2  3  2  0  0  0  0
M  END
> <ChemID>
100640

> <CAS>
115-07-1

> <Original_SMILES>
CC=C

> <preferred_name>
1-Propene

> <dsstox_substance_id>
DTXSID5021205

> <dsstox_compound_id>
DTXCID501205

> <qc_level>
DSSTox_Low

> <Canonical_QSARr>
CC=C

> <InChI_Code_QSARr>
InChI=1S/C3H6/c1-3-2/h3H,1H2,2H3

> <InChI Key_QSARr>
QQONPFPTGQHPMA-UHFFFAOYSA-N

> <Salt_Solvent>


> <Salt_Solvent_ID>
0

> <MPID>
102467

> <HL Reference>
WASIK,SP & TSANG,W (1970)

> <HL Temperature>
25

> <LogHL>
-0.707743928643524

> <Tr_1_Tst_0>
0

$$$$
100643
  Mrv171c012241914302D          

  4  3  0  0  0  0            999 V2000
    0.7124   -0.8310    0.0000 C   0  0  0  0  0  0  0  0  0  0  0  0
    1.1249   -0.1166    0.0000 C   0  0  0  0  0  0  0  0  0  0  0  0
    1.1249   -1.5455    0.0000 C   0  0  0  0  0  0  0  0  0  0  0  0
   -0.1126   -0.8310    0.0000 C   0  0  0  0  0  0  0  0  0  0  0  0
  1  2  1  0  0  0  0
  1  3  1  0  0  0  0
  1  4  2  0  0  0  0
M  END
> <ChemID>
100643

> <CAS>
115-11-7

> <Original_SMILES>
CC(C)=C

> <preferred_name>
Isobutene

> <dsstox_substance_id>
DTXSID9020748

> <dsstox_compound_id>
DTXCID90748

> <qc_level>
DSSTox_Low

> <Canonical_QSARr>
CC(C)=C

> <InChI_Code_QSARr>
InChI=1S/C4H8/c1-4(2)3/h1H2,2-3H3

> <InChI Key_QSARr>
VQTUBCCKSQIDNK-UHFFFAOYSA-N

> <Salt_Solvent>


> <Salt_Solvent_ID>
0

> <MPID>
102468

> <HL Reference>
WASIK,SP & TSANG,W (1970)

> <HL Temperature>
25

> <LogHL>
-0.6615435063953959

> <Tr_1_Tst_0>
1

$$$$
100644
  Mrv171c012241914302D          

  6  5  0  0  0  0            999 V2000
    1.5721   -1.5496    0.0000 C   0  0  0  0  0  0  0  0  0  0  0  0
    1.1596   -0.8351    0.0000 C   0  0  0  0  0  0  0  0  0  0  0  0
    1.8740   -0.4226    0.0000 C   0  0  0  0  0  0  0  0  0  0  0  0
    0.4451   -1.2476    0.0000 O   0  0  0  0  0  0  0  0  0  0  0  0
    0.7471   -0.1207    0.0000 C   0  0  0  0  0  0  0  0  0  0  0  0
   -0.0779   -0.1207    0.0000 C   0  0  0  0  0  0  0  0  0  0  0  0
  1  2  1  0  0  0  0
  2  3  1  0  0  0  0
  2  4  1  0  0  0  0
  2  5  1  0  0  0  0
  5  6  2  0  0  0  0
M  END
> <ChemID>
100644

> <CAS>
115-18-4

> <Original_SMILES>
CC(C)(O)C=C

> <preferred_name>
2-Methyl-3-buten-2-ol

> <dsstox_substance_id>
DTXSID3047471

> <dsstox_compound_id>
DTXCID1027471

> <qc_level>
DSSTox_Low

> <Canonical_QSARr>
CC(C)(O)C=C

> <InChI_Code_QSARr>
InChI=1S/C5H10O/c1-4-5(2,3)6/h4,6H,1H2,2-3H3

> <InChI Key_QSARr>
HNVRRHSXBLFLIG-UHFFFAOYSA-N

> <Salt_Solvent>


> <Salt_Solvent_ID>
0

> <MPID>
102469

> <HL Reference>
ALTSCHUH,J ET AL. (1999)

> <HL Temperature>
25

> <LogHL>
-4.681936665037237

> <Tr_1_Tst_0>
1

$$$$
100645
  Mrv171c012241914302D          

  6  5  0  0  0  0            999 V2000
    0.8254   -2.4766    0.0000 C   0  0  0  0  0  0  0  0  0  0  0  0
    0.8254   -1.6516    0.0000 C   0  0  0  0  0  0  0  0  0  0  0  0
    0.8254   -0.8266    0.0000 C   0  0  0  0  0  0  0  0  0  0  0  0
    0.8254   -0.0016    0.0000 C   0  0  0  0  0  0  0  0  0  0  0  0
    1.6504   -1.6516    0.0000 C   0  0  0  0  0  0  0  0  0  0  0  0
    0.0004   -1.6516    0.0000 O   0  0  0  0  0  0  0  0  0  0  0  0
  1  2  1  0  0  0  0
  2  3  1  0  0  0  0
  3  4  3  0  0  0  0
  2  5  1  0  0  0  0
  2  6  1  0  0  0  0
M  END
> <ChemID>
100645

> <CAS>
115-19-5

> <Original_SMILES>
CC(C)(O)C#C

> <preferred_name>
2-Methyl-3-butyn-2-ol

> <dsstox_substance_id>
DTXSID2021949

> <dsstox_compound_id>
DTXCID701949

> <qc_level>
DSSTox_Low

> <Canonical_QSARr>
CC(C)(O)C#C

> <InChI_Code_QSARr>
InChI=1S/C5H8O/c1-4-5(2,3)6/h1,6H,2-3H3

> <InChI Key_QSARr>
CEBKHWWANWSNTI-UHFFFAOYSA-N

> <Salt_Solvent>


> <Salt_Solvent_ID>
0

> <MPID>
102470

> <HL Reference>
ALTSCHUH,J ET AL. (1999)

> <HL Temperature>
25

> <LogHL>
-5.407823242604133

> <Tr_1_Tst_0>
0

$$$$
100648
  Mrv171c012241914302D          

 19 21  0  0  0  0            999 V2000
    1.1239   -2.4399    0.0000 O   0  0  0  0  0  0  0  0  0  0  0  0
    1.9271   -2.6284    0.0000 C   0  0  0  0  0  0  0  0  0  0  0  0
    2.4923   -2.2000    0.0000 C   0  0  0  0  0  0  0  0  0  0  0  0
    3.2872   -2.5349    0.0000 C   0  0  0  0  0  0  0  0  0  0  0  0
    3.4299   -3.3877    0.0000 Cl  0  0  0  0  0  0  0  0  0  0  0  0
    3.4985   -1.7112    0.0000 C   0  0  0  0  0  0  0  0  0  0  0  0
    2.7815   -1.8182    0.0000 Cl  0  0  0  0  0  0  0  0  0  0  0  0
    2.8346   -0.9234    0.0000 Cl  0  0  0  0  0  0  0  0  0  0  0  0
    3.2974   -0.8850    0.0000 C   0  0  0  0  0  0  0  0  0  0  0  0
    3.4744   -0.0236    0.0000 Cl  0  0  0  0  0  0  0  0  0  0  0  0
    2.5804   -1.2931    0.0000 C   0  0  0  0  0  0  0  0  0  0  0  0
    1.9385   -0.7747    0.0000 C   0  0  0  0  0  0  0  0  0  0  0  0
    1.1331   -0.9533    0.0000 O   0  0  0  0  0  0  0  0  0  0  0  0
    0.7706   -1.6944    0.0000 S   0  0  0  0  0  0  0  0  0  0  0  0
   -0.0887   -1.6896    0.0000 O   0  0  0  0  0  0  0  0  0  0  0  0
    4.0093   -1.3019    0.0000 C   0  0  0  0  0  0  0  0  0  0  0  0
    4.7684   -0.8868    0.0000 Cl  0  0  0  0  0  0  0  0  0  0  0  0
    4.0042   -2.1269    0.0000 C   0  0  0  0  0  0  0  0  0  0  0  0
    4.7538   -2.5541    0.0000 Cl  0  0  0  0  0  0  0  0  0  0  0  0
  2  1  1  0  0  0  0
  3  2  1  0  0  0  0
  3  4  1  0  0  0  0
  4  5  1  0  0  0  0
  6  4  1  0  0  0  0
  6  7  1  0  0  0  0
  6  8  1  0  0  0  0
  9  6  1  0  0  0  0
  9 10  1  0  0  0  0
  9 11  1  0  0  0  0
 11  3  1  0  0  0  0
 12 11  1  0  0  0  0
 13 12  1  0  0  0  0
 14 13  1  0  0  0  0
  1 14  1  0  0  0  0
 14 15  2  0  0  0  0
 16  9  1  0  0  0  0
 16 17  1  0  0  0  0
 18 16  2  0  0  0  0
  4 18  1  0  0  0  0
 18 19  1  0  0  0  0
M  END
> <ChemID>
100648

> <CAS>
115-29-7|959-98-8|33213-65-9

> <Original_SMILES>
O=S1OCC2C(CO1)C1(Cl)C(Cl)=C(Cl)C2(Cl)C1(Cl)Cl

> <preferred_name>
Endosulfan|Endosulfan I|Endosulfan II

> <dsstox_substance_id>
DTXSID1020560|DTXSID9037539|DTXSID8037540

> <dsstox_compound_id>
DTXCID70560|DTXCID7017539|DTXCID6017540

> <qc_level>
DSSTox_High

> <Canonical_QSARr>
O=S1OCC2C(CO1)C1(Cl)C(Cl)=C(Cl)C2(Cl)C1(Cl)Cl

> <InChI_Code_QSARr>
InChI=1S/C9H6Cl6O3S/c10-5-6(11)8(13)4-2-18-19(16)17-1-3(4)7(5,12)9(8,14)15/h3-4H,1-2H2

> <InChI Key_QSARr>
RDYMFSUJUZBWLH-UHFFFAOYSA-N

> <Salt_Solvent>


> <Salt_Solvent_ID>
0

> <MPID>
102471|102631|102701

> <HL Reference>
RICE,CP & CHERNYAK,SM (1995)|ALTSCHUH,J ET AL. (1999)

> <HL Temperature>
23

> <LogHL>
-4.61689707817056

> <Tr_1_Tst_0>
1

$$$$
100662
  Mrv171c012241914302D          

 12 12  0  0  0  0            999 V2000
    3.0761   -0.6015    0.0000 Cl  0  0  0  0  0  0  0  0  0  0  0  0
    2.3616   -1.0140    0.0000 C   0  0  0  0  0  0  0  0  0  0  0  0
    1.6472   -0.6015    0.0000 C   0  0  0  0  0  0  0  0  0  0  0  0
    1.6472    0.2235    0.0000 Cl  0  0  0  0  0  0  0  0  0  0  0  0
    0.9327   -1.0140    0.0000 C   0  0  0  0  0  0  0  0  0  0  0  0
    0.2182   -0.6015    0.0000 Cl  0  0  0  0  0  0  0  0  0  0  0  0
    0.9327   -1.8390    0.0000 C   0  0  0  0  0  0  0  0  0  0  0  0
    0.2182   -2.2515    0.0000 Cl  0  0  0  0  0  0  0  0  0  0  0  0
    1.6472   -2.2515    0.0000 C   0  0  0  0  0  0  0  0  0  0  0  0
    1.6472   -3.0765    0.0000 Cl  0  0  0  0  0  0  0  0  0  0  0  0
    2.3616   -1.8390    0.0000 C   0  0  0  0  0  0  0  0  0  0  0  0
    3.0761   -2.2515    0.0000 Cl  0  0  0  0  0  0  0  0  0  0  0  0
  1  2  1  0  0  0  0
  3  2  1  0  0  0  0
  3  4  1  0  0  0  0
  5  3  2  0  0  0  0
  5  6  1  0  0  0  0
  7  5  1  0  0  0  0
  7  8  1  0  0  0  0
  9  7  2  0  0  0  0
  9 10  1  0  0  0  0
 11  9  1  0  0  0  0
  2 11  2  0  0  0  0
 11 12  1  0  0  0  0
M  END
> <ChemID>
100662

> <CAS>
118-74-1

> <Original_SMILES>
Clc1c(Cl)c(Cl)c(Cl)c(Cl)c1Cl

> <preferred_name>
Hexachlorobenzene

> <dsstox_substance_id>
DTXSID2020682

> <dsstox_compound_id>
DTXCID80682

> <qc_level>
DSSTox_Low

> <Canonical_QSARr>
ClC1C(Cl)=C(Cl)C(Cl)=C(Cl)C=1Cl

> <InChI_Code_QSARr>
InChI=1S/C6Cl6/c7-1-2(8)4(10)6(12)5(11)3(1)9

> <InChI Key_QSARr>
CKAPSXZOOQJIBF-UHFFFAOYSA-N

> <Salt_Solvent>


> <Salt_Solvent_ID>
0

> <MPID>
102472

> <HL Reference>
WARNER,HP ET AL. (1987)

> <HL Temperature>
25

> <LogHL>
-2.7695510786217272

> <Tr_1_Tst_0>
0

$$$$
100667
  Mrv171c012241914302D          

 11 11  0  0  0  0            999 V2000
    1.6235   -1.9530    0.0000 C   0  0  0  0  0  0  0  0  0  0  0  0
    2.3380   -1.5405    0.0000 C   0  0  0  0  0  0  0  0  0  0  0  0
    2.3380   -0.7155    0.0000 C   0  0  0  0  0  0  0  0  0  0  0  0
    1.6235   -0.3030    0.0000 C   0  0  0  0  0  0  0  0  0  0  0  0
    1.6235    0.5220    0.0000 C   0  0  0  0  0  0  0  0  0  0  0  0
    0.9090   -0.7155    0.0000 C   0  0  0  0  0  0  0  0  0  0  0  0
    0.9090   -1.5405    0.0000 C   0  0  0  0  0  0  0  0  0  0  0  0
    0.1946   -1.9530    0.0000 N   0  3  0  0  0  0  0  0  0  0  0  0
    0.1946   -2.7780    0.0000 O   0  0  0  0  0  0  0  0  0  0  0  0
   -0.5199   -1.5405    0.0000 O   0  5  0  0  0  0  0  0  0  0  0  0
    1.6235   -2.7780    0.0000 O   0  0  0  0  0  0  0  0  0  0  0  0
  2  1  1  0  0  0  0
  3  2  2  0  0  0  0
  4  3  1  0  0  0  0
  4  5  1  0  0  0  0
  6  4  2  0  0  0  0
  7  6  1  0  0  0  0
  1  7  2  0  0  0  0
  7  8  1  0  0  0  0
  8  9  2  0  0  0  0
  8 10  1  0  0  0  0
  1 11  1  0  0  0  0
M  CHG  2   8   1  10  -1
M  END
> <ChemID>
100667

> <CAS>
119-33-5

> <Original_SMILES>
Cc1cc(c(O)cc1)[N+]([O-])=O

> <preferred_name>
4-Methyl-2-nitrophenol

> <dsstox_substance_id>
DTXSID0026961

> <dsstox_compound_id>
DTXCID606961

> <qc_level>
DSSTox_Low

> <Canonical_QSARr>
CC1=CC(=C(O)C=C1)[N+]([O-])=O

> <InChI_Code_QSARr>
InChI=1S/C7H7NO3/c1-5-2-3-7(9)6(4-5)8(10)11/h2-4,9H,1H3

> <InChI Key_QSARr>
SYDNSSSQVSOXTN-UHFFFAOYSA-N

> <Salt_Solvent>


> <Salt_Solvent_ID>
0

> <MPID>
102473

> <HL Reference>
TREMP,J ET AL. (1993)

> <HL Temperature>
20

> <LogHL>
-4.82973828460504

> <Tr_1_Tst_0>
1

$$$$
100670
  Mrv171c012241914302D          

 14 16  0  0  0  0            999 V2000
    2.1385   -0.0041    0.0000 C   0  0  0  0  0  0  0  0  0  0  0  0
    2.8530   -0.4166    0.0000 C   0  0  0  0  0  0  0  0  0  0  0  0
    3.5675   -0.0041    0.0000 C   0  0  0  0  0  0  0  0  0  0  0  0
    4.2819   -0.4166    0.0000 C   0  0  0  0  0  0  0  0  0  0  0  0
    4.2819   -1.2416    0.0000 C   0  0  0  0  0  0  0  0  0  0  0  0
    3.5675   -1.6541    0.0000 C   0  0  0  0  0  0  0  0  0  0  0  0
    2.8530   -1.2416    0.0000 C   0  0  0  0  0  0  0  0  0  0  0  0
    2.1385   -1.6541    0.0000 C   0  0  0  0  0  0  0  0  0  0  0  0
    1.4240   -1.2416    0.0000 C   0  0  0  0  0  0  0  0  0  0  0  0
    0.7096   -1.6541    0.0000 C   0  0  0  0  0  0  0  0  0  0  0  0
   -0.0049   -1.2416    0.0000 C   0  0  0  0  0  0  0  0  0  0  0  0
   -0.0049   -0.4166    0.0000 C   0  0  0  0  0  0  0  0  0  0  0  0
    0.7096   -0.0041    0.0000 C   0  0  0  0  0  0  0  0  0  0  0  0
    1.4240   -0.4166    0.0000 C   0  0  0  0  0  0  0  0  0  0  0  0
  2  1  2  0  0  0  0
  2  3  1  0  0  0  0
  3  4  2  0  0  0  0
  4  5  1  0  0  0  0
  5  6  2  0  0  0  0
  6  7  1  0  0  0  0
  7  2  1  0  0  0  0
  8  7  2  0  0  0  0
  9  8  1  0  0  0  0
  9 10  1  0  0  0  0
 10 11  2  0  0  0  0
 11 12  1  0  0  0  0
 12 13  2  0  0  0  0
 13 14  1  0  0  0  0
  1 14  1  0  0  0  0
 14  9  2  0  0  0  0
M  END
> <ChemID>
100670

> <CAS>
120-12-7

> <Original_SMILES>
c1c2ccccc2cc2ccccc21

> <preferred_name>
Anthracene

> <dsstox_substance_id>
DTXSID0023878

> <dsstox_compound_id>
DTXCID203878

> <qc_level>
DSSTox_Low

> <Canonical_QSARr>
C1=C2C=CC=CC2=CC2C=CC=CC=21

> <InChI_Code_QSARr>
InChI=1S/C14H10/c1-2-6-12-10-14-8-4-3-7-13(14)9-11(12)5-1/h1-10H

> <InChI Key_QSARr>
MWPLVEDNUUSJAV-UHFFFAOYSA-N

> <Salt_Solvent>


> <Salt_Solvent_ID>
0

> <MPID>
102474

> <HL Reference>
ALAEE,M ET AL. (1996)

> <HL Temperature>
25

> <LogHL>
-4.254925208417943

> <Tr_1_Tst_0>
0

$$$$
100676
  Mrv171c012241914302D          

  9  9  0  0  0  0            999 V2000
    1.7473   -2.4749    0.0000 Cl  0  0  0  0  0  0  0  0  0  0  0  0
    1.7473   -1.6499    0.0000 C   0  0  0  0  0  0  0  0  0  0  0  0
    2.4618   -1.2374    0.0000 C   0  0  0  0  0  0  0  0  0  0  0  0
    2.4618   -0.4124    0.0000 C   0  0  0  0  0  0  0  0  0  0  0  0
    1.7473    0.0001    0.0000 C   0  0  0  0  0  0  0  0  0  0  0  0
    1.7473    0.8251    0.0000 Cl  0  0  0  0  0  0  0  0  0  0  0  0
    1.0328   -0.4124    0.0000 C   0  0  0  0  0  0  0  0  0  0  0  0
    1.0328   -1.2374    0.0000 C   0  0  0  0  0  0  0  0  0  0  0  0
    0.3184   -1.6499    0.0000 Cl  0  0  0  0  0  0  0  0  0  0  0  0
  1  2  1  0  0  0  0
  3  2  1  0  0  0  0
  4  3  2  0  0  0  0
  5  4  1  0  0  0  0
  5  6  1  0  0  0  0
  7  5  2  0  0  0  0
  8  7  1  0  0  0  0
  2  8  2  0  0  0  0
  8  9  1  0  0  0  0
M  END
> <ChemID>
100676

> <CAS>
120-82-1

> <Original_SMILES>
Clc1cc(Cl)c(Cl)cc1

> <preferred_name>
1,2,4-Trichlorobenzene

> <dsstox_substance_id>
DTXSID0021965

> <dsstox_compound_id>
DTXCID701965

> <qc_level>
DSSTox_High

> <Canonical_QSARr>
ClC1=CC(Cl)=C(Cl)C=C1

> <InChI_Code_QSARr>
InChI=1S/C6H3Cl3/c7-4-1-2-5(8)6(9)3-4/h1-3H

> <InChI Key_QSARr>
PBKONEOXTCPAFI-UHFFFAOYSA-N

> <Salt_Solvent>


> <Salt_Solvent_ID>
0

> <MPID>
102475

> <HL Reference>
WARNER,HP ET AL. (1987)

> <HL Temperature>
25

> <LogHL>
-2.8477116556169446

> <Tr_1_Tst_0>
1

$$$$
100678
  Mrv171c012241914302D          

  6  6  0  0  0  0            999 V2000
    0.6463   -0.7917    0.0000 C   0  0  0  0  0  0  0  0  0  0  0  0
    0.6463    0.0333    0.0000 O   0  0  0  0  0  0  0  0  0  0  0  0
   -0.0211   -1.2766    0.0000 C   0  0  0  0  0  0  0  0  0  0  0  0
    0.2338   -2.0612    0.0000 C   0  0  0  0  0  0  0  0  0  0  0  0
    1.0588   -2.0612    0.0000 C   0  0  0  0  0  0  0  0  0  0  0  0
    1.3137   -1.2766    0.0000 C   0  0  0  0  0  0  0  0  0  0  0  0
  1  2  2  0  0  0  0
  3  1  1  0  0  0  0
  4  3  1  0  0  0  0
  5  4  1  0  0  0  0
  6  5  1  0  0  0  0
  1  6  1  0  0  0  0
M  END
> <ChemID>
100678

> <CAS>
120-92-3

> <Original_SMILES>
O=C1CCCC1

> <preferred_name>
Cyclopentanone

> <dsstox_substance_id>
DTXSID3029154

> <dsstox_compound_id>
DTXCID209154

> <qc_level>
DSSTox_Low

> <Canonical_QSARr>
O=C1CCCC1

> <InChI_Code_QSARr>
InChI=1S/C5H8O/c6-5-3-1-2-4-5/h1-4H2

> <InChI Key_QSARr>
BGTOWKSIORTVQH-UHFFFAOYSA-N

> <Salt_Solvent>


> <Salt_Solvent_ID>
0

> <MPID>
102476

> <HL Reference>
HAWTHORNE,SB ET AL. (1985)

> <HL Temperature>
25

> <LogHL>
-4.999999999999988

> <Tr_1_Tst_0>
0

$$$$
100679
  Mrv171c012241914302D          

  6  6  0  0  0  0            999 V2000
    0.6680   -0.8208    0.0000 N   0  0  0  0  0  0  0  0  0  0  0  0
    0.6680    0.0042    0.0000 C   0  0  0  0  0  0  0  0  0  0  0  0
    0.0006   -1.3058    0.0000 C   0  0  0  0  0  0  0  0  0  0  0  0
    0.2555   -2.0904    0.0000 C   0  0  0  0  0  0  0  0  0  0  0  0
    1.0805   -2.0904    0.0000 C   0  0  0  0  0  0  0  0  0  0  0  0
    1.3355   -1.3058    0.0000 C   0  0  0  0  0  0  0  0  0  0  0  0
  1  2  1  0  0  0  0
  3  1  1  0  0  0  0
  4  3  1  0  0  0  0
  5  4  1  0  0  0  0
  6  5  1  0  0  0  0
  1  6  1  0  0  0  0
M  END
> <ChemID>
100679

> <CAS>
120-94-5

> <Original_SMILES>
CN1CCCC1

> <preferred_name>
N-Methylpyrrolidine

> <dsstox_substance_id>
DTXSID8042210

> <dsstox_compound_id>
DTXCID6022210

> <qc_level>
DSSTox_Low

> <Canonical_QSARr>
CN1CCCC1

> <InChI_Code_QSARr>
InChI=1S/C5H11N/c1-6-4-2-3-5-6/h2-5H2,1H3

> <InChI Key_QSARr>
AVFZOVWCLRSYKC-UHFFFAOYSA-N

> <Salt_Solvent>


> <Salt_Solvent_ID>
0

> <MPID>
102477

> <HL Reference>
CABANI,S ET AL. (1971)

> <HL Temperature>
25

> <LogHL>
-4.521433504406137

> <Tr_1_Tst_0>
1

$$$$
100680
  Mrv171c012241914302D          

 13 13  0  0  0  0            999 V2000
    2.6359   -2.9487    0.0000 C   0  0  0  0  0  0  0  0  0  0  0  0
    2.6359   -2.1237    0.0000 C   0  0  0  0  0  0  0  0  0  0  0  0
    3.3504   -1.7112    0.0000 C   0  0  0  0  0  0  0  0  0  0  0  0
    3.3504   -0.8862    0.0000 C   0  0  0  0  0  0  0  0  0  0  0  0
    2.6359   -0.4737    0.0000 C   0  0  0  0  0  0  0  0  0  0  0  0
    2.6359    0.3513    0.0000 N   0  3  0  0  0  0  0  0  0  0  0  0
    1.9215    0.7638    0.0000 O   0  5  0  0  0  0  0  0  0  0  0  0
    3.3504    0.7638    0.0000 O   0  0  0  0  0  0  0  0  0  0  0  0
    1.9215   -0.8862    0.0000 C   0  0  0  0  0  0  0  0  0  0  0  0
    1.9215   -1.7112    0.0000 C   0  0  0  0  0  0  0  0  0  0  0  0
    1.2070   -2.1237    0.0000 N   0  3  0  0  0  0  0  0  0  0  0  0
    1.2070   -2.9487    0.0000 O   0  5  0  0  0  0  0  0  0  0  0  0
    0.4925   -1.7112    0.0000 O   0  0  0  0  0  0  0  0  0  0  0  0
  1  2  1  0  0  0  0
  3  2  1  0  0  0  0
  4  3  2  0  0  0  0
  5  4  1  0  0  0  0
  5  6  1  0  0  0  0
  6  7  1  0  0  0  0
  6  8  2  0  0  0  0
  9  5  2  0  0  0  0
 10  9  1  0  0  0  0
  2 10  2  0  0  0  0
 10 11  1  0  0  0  0
 11 12  1  0  0  0  0
 11 13  2  0  0  0  0
M  CHG  4   6   1   7  -1  11   1  12  -1
M  END
> <ChemID>
100680

> <CAS>
121-14-2

> <Original_SMILES>
Cc1ccc(cc1[N+]([O-])=O)[N+]([O-])=O

> <preferred_name>
2,4-Dinitrotoluene

> <dsstox_substance_id>
DTXSID0020529

> <dsstox_compound_id>
DTXCID60529

> <qc_level>
DSSTox_High

> <Canonical_QSARr>
CC1C=CC(=CC=1[N+]([O-])=O)[N+]([O-])=O

> <InChI_Code_QSARr>
InChI=1S/C7H6N2O4/c1-5-2-3-6(8(10)11)4-7(5)9(12)13/h2-4H,1H3

> <InChI Key_QSARr>
RMBFBMJGBANMMK-UHFFFAOYSA-N

> <Salt_Solvent>


> <Salt_Solvent_ID>
0

> <MPID>
102478

> <HL Reference>
ALTSCHUH,J ET AL. (1999)

> <HL Temperature>
25

> <LogHL>
-7.267606240177014

> <Tr_1_Tst_0>
1

$$$$
100684
  Mrv171c012241914302D          

  7  6  0  0  0  0            999 V2000
    2.6512   -2.0431    0.0000 C   0  0  0  0  0  0  0  0  0  0  0  0
    2.2387   -1.3286    0.0000 C   0  0  0  0  0  0  0  0  0  0  0  0
    1.4137   -1.3286    0.0000 N   0  0  0  0  0  0  0  0  0  0  0  0
    1.0012   -0.6142    0.0000 C   0  0  0  0  0  0  0  0  0  0  0  0
    0.1762   -0.6142    0.0000 C   0  0  0  0  0  0  0  0  0  0  0  0
    1.0012   -2.0431    0.0000 C   0  0  0  0  0  0  0  0  0  0  0  0
    0.1762   -2.0431    0.0000 C   0  0  0  0  0  0  0  0  0  0  0  0
  1  2  1  0  0  0  0
  2  3  1  0  0  0  0
  3  4  1  0  0  0  0
  4  5  1  0  0  0  0
  3  6  1  0  0  0  0
  6  7  1  0  0  0  0
M  END
> <ChemID>
100684

> <CAS>
121-44-8

> <Original_SMILES>
CCN(CC)CC

> <preferred_name>
Triethylamine

> <dsstox_substance_id>
DTXSID3024366

> <dsstox_compound_id>
DTXCID204366

> <qc_level>
DSSTox_High

> <Canonical_QSARr>
CCN(CC)CC

> <InChI_Code_QSARr>
InChI=1S/C6H15N/c1-4-7(5-2)6-3/h4-6H2,1-3H3

> <InChI Key_QSARr>
ZMANZCXQSJIPKH-UHFFFAOYSA-N

> <Salt_Solvent>


> <Salt_Solvent_ID>
0

> <MPID>
102479

> <HL Reference>
CHRISTIE,AO & CRISP,DJ (1967)

> <HL Temperature>
25

> <LogHL>
-3.826813731587728

> <Tr_1_Tst_0>
1

$$$$
100686
  Mrv171c012241914302D          

 10 10  0  0  0  0            999 V2000
    0.0333   -2.6048    0.0000 Cl  0  0  0  0  0  0  0  0  0  0  0  0
    0.7478   -2.1923    0.0000 C   0  0  0  0  0  0  0  0  0  0  0  0
    1.4623   -2.6048    0.0000 C   0  0  0  0  0  0  0  0  0  0  0  0
    2.1767   -2.1923    0.0000 C   0  0  0  0  0  0  0  0  0  0  0  0
    2.1767   -1.3673    0.0000 C   0  0  0  0  0  0  0  0  0  0  0  0
    1.4623   -0.9548    0.0000 C   0  0  0  0  0  0  0  0  0  0  0  0
    1.4623   -0.1298    0.0000 N   0  3  0  0  0  0  0  0  0  0  0  0
    0.7478    0.2827    0.0000 O   0  5  0  0  0  0  0  0  0  0  0  0
    2.1767    0.2827    0.0000 O   0  0  0  0  0  0  0  0  0  0  0  0
    0.7478   -1.3673    0.0000 C   0  0  0  0  0  0  0  0  0  0  0  0
  1  2  1  0  0  0  0
  3  2  1  0  0  0  0
  4  3  2  0  0  0  0
  5  4  1  0  0  0  0
  6  5  2  0  0  0  0
  6  7  1  0  0  0  0
  7  8  1  0  0  0  0
  7  9  2  0  0  0  0
 10  6  1  0  0  0  0
  2 10  2  0  0  0  0
M  CHG  2   7   1   8  -1
M  END
> <ChemID>
100686

> <CAS>
121-73-3

> <Original_SMILES>
[O-][N+](=O)c1cccc(Cl)c1

> <preferred_name>
1-Chloro-3-nitrobenzene

> <dsstox_substance_id>
DTXSID4021971

> <dsstox_compound_id>
DTXCID401971

> <qc_level>
DSSTox_Low

> <Canonical_QSARr>
[O-][N+](=O)C1C=C(Cl)C=CC=1

> <InChI_Code_QSARr>
InChI=1S/C6H4ClNO2/c7-5-2-1-3-6(4-5)8(9)10/h1-4H

> <InChI Key_QSARr>
KMAQZIILEGKYQZ-UHFFFAOYSA-N

> <Salt_Solvent>


> <Salt_Solvent_ID>
0

> <MPID>
102480

> <HL Reference>
ALTSCHUH,J ET AL. (1999)

> <HL Temperature>
25

> <LogHL>
-4.869666231504998

> <Tr_1_Tst_0>
0

$$$$
100687
  Mrv171c012241914302D          

 19 18  0  0  0  0            999 V2000
    1.8978   -0.9530    0.0000 O   0  0  0  0  0  0  0  0  0  0  0  0
    1.8978   -1.7780    0.0000 C   0  0  0  0  0  0  0  0  0  0  0  0
    1.1833   -2.1905    0.0000 O   0  0  0  0  0  0  0  0  0  0  0  0
    0.4688   -1.7780    0.0000 C   0  0  0  0  0  0  0  0  0  0  0  0
   -0.2456   -2.1905    0.0000 C   0  0  0  0  0  0  0  0  0  0  0  0
    2.6122   -2.1905    0.0000 C   0  0  0  0  0  0  0  0  0  0  0  0
    3.3267   -1.7780    0.0000 C   0  0  0  0  0  0  0  0  0  0  0  0
    4.0412   -2.1905    0.0000 C   0  0  0  0  0  0  0  0  0  0  0  0
    4.7557   -1.7780    0.0000 O   0  0  0  0  0  0  0  0  0  0  0  0
    5.4701   -2.1905    0.0000 C   0  0  0  0  0  0  0  0  0  0  0  0
    6.1846   -1.7780    0.0000 C   0  0  0  0  0  0  0  0  0  0  0  0
    4.0412   -3.0155    0.0000 O   0  0  0  0  0  0  0  0  0  0  0  0
    2.6122   -3.0155    0.0000 S   0  0  0  0  0  0  0  0  0  0  0  0
    1.8978   -3.4280    0.0000 P   0  0  0  0  0  0  0  0  0  0  0  0
    1.4853   -2.7136    0.0000 O   0  0  0  0  0  0  0  0  0  0  0  0
    0.6603   -2.7136    0.0000 C   0  0  0  0  0  0  0  0  0  0  0  0
    1.1833   -3.8405    0.0000 O   0  0  0  0  0  0  0  0  0  0  0  0
    0.4688   -3.4280    0.0000 C   0  0  0  0  0  0  0  0  0  0  0  0
    2.3103   -4.1425    0.0000 S   0  0  0  0  0  0  0  0  0  0  0  0
  1  2  2  0  0  0  0
  2  3  1  0  0  0  0
  3  4  1  0  0  0  0
  4  5  1  0  0  0  0
  2  6  1  0  0  0  0
  6  7  1  0  0  0  0
  7  8  1  0  0  0  0
  8  9  1  0  0  0  0
  9 10  1  0  0  0  0
 10 11  1  0  0  0  0
  8 12  2  0  0  0  0
  6 13  1  0  0  0  0
 13 14  1  0  0  0  0
 14 15  1  0  0  0  0
 15 16  1  0  0  0  0
 14 17  1  0  0  0  0
 17 18  1  0  0  0  0
 14 19  2  0  0  0  0
M  END
> <ChemID>
100687

> <CAS>
121-75-5

> <Original_SMILES>
CCOC(=O)C(CC(=O)OCC)SP(=S)(OC)OC

> <preferred_name>
Malathion

> <dsstox_substance_id>
DTXSID4020791

> <dsstox_compound_id>
DTXCID80791

> <qc_level>
DSSTox_Low

> <Canonical_QSARr>
CCOC(=O)C(CC(=O)OCC)SP(=S)(OC)OC

> <InChI_Code_QSARr>
InChI=1S/C10H19O6PS2/c1-5-15-9(11)7-8(10(12)16-6-2)19-17(18,13-3)14-4/h8H,5-7H2,1-4H3

> <InChI Key_QSARr>
JXSJBGJIGXNWCI-UHFFFAOYSA-N

> <Salt_Solvent>


> <Salt_Solvent_ID>
0

> <MPID>
102481

> <HL Reference>
FENDINGER,NJ & GLOTFELTY,DE (1990)

> <HL Temperature>
25

> <LogHL>
-8.310691140876367

> <Tr_1_Tst_0>
1

$$$$
100689
  Mrv171c012241914302D          

 11 11  0  0  0  0            999 V2000
    2.0764   -3.2460    0.0000 N   0  0  0  0  0  0  0  0  0  0  0  0
    2.0764   -2.4210    0.0000 C   0  0  0  0  0  0  0  0  0  0  0  0
    2.7909   -2.0085    0.0000 C   0  0  0  0  0  0  0  0  0  0  0  0
    2.7909   -1.1835    0.0000 C   0  0  0  0  0  0  0  0  0  0  0  0
    2.0764   -0.7710    0.0000 C   0  0  0  0  0  0  0  0  0  0  0  0
    2.0764    0.0540    0.0000 N   0  3  0  0  0  0  0  0  0  0  0  0
    1.3619    0.4665    0.0000 O   0  0  0  0  0  0  0  0  0  0  0  0
    2.7909    0.4665    0.0000 O   0  5  0  0  0  0  0  0  0  0  0  0
    1.3619   -1.1835    0.0000 C   0  0  0  0  0  0  0  0  0  0  0  0
    1.3619   -2.0085    0.0000 C   0  0  0  0  0  0  0  0  0  0  0  0
    0.6474   -2.4210    0.0000 Cl  0  0  0  0  0  0  0  0  0  0  0  0
  1  2  1  0  0  0  0
  3  2  1  0  0  0  0
  4  3  2  0  0  0  0
  5  4  1  0  0  0  0
  5  6  1  0  0  0  0
  6  7  2  0  0  0  0
  6  8  1  0  0  0  0
  9  5  2  0  0  0  0
 10  9  1  0  0  0  0
  2 10  2  0  0  0  0
 10 11  1  0  0  0  0
M  CHG  2   6   1   8  -1
M  END
> <ChemID>
100689

> <CAS>
121-87-9

> <Original_SMILES>
Nc1ccc(cc1Cl)[N+]([O-])=O

> <preferred_name>
2-Chloro-4-nitroaniline

> <dsstox_substance_id>
DTXSID4021973

> <dsstox_compound_id>
DTXCID201973

> <qc_level>
DSSTox_Low

> <Canonical_QSARr>
NC1C=CC(=CC=1Cl)[N+]([O-])=O

> <InChI_Code_QSARr>
InChI=1S/C6H5ClN2O2/c7-5-3-4(9(10)11)1-2-6(5)8/h1-3H,8H2

> <InChI Key_QSARr>
LOCWBQIWHWIRGN-UHFFFAOYSA-N

> <Salt_Solvent>


> <Salt_Solvent_ID>
0

> <MPID>
102482

> <HL Reference>
ALTSCHUH,J ET AL. (1999)

> <HL Temperature>
25

> <LogHL>
-8.020451625295896

> <Tr_1_Tst_0>
1

$$$$
100690
  Mrv171c012241914302D          

 17 17  0  0  0  0            999 V2000
    2.0185   -2.3363    0.0000 S   0  0  0  0  0  0  0  0  0  0  0  0
    2.4310   -3.0508    0.0000 P   0  0  0  0  0  0  0  0  0  0  0  0
    1.7166   -3.4633    0.0000 O   0  0  0  0  0  0  0  0  0  0  0  0
    1.7166   -4.2883    0.0000 C   0  0  0  0  0  0  0  0  0  0  0  0
    2.8435   -3.7653    0.0000 O   0  0  0  0  0  0  0  0  0  0  0  0
    2.4310   -4.4797    0.0000 C   0  0  0  0  0  0  0  0  0  0  0  0
    3.1455   -2.6383    0.0000 O   0  0  0  0  0  0  0  0  0  0  0  0
    3.1455   -1.8133    0.0000 C   0  0  0  0  0  0  0  0  0  0  0  0
    3.8600   -1.4008    0.0000 C   0  0  0  0  0  0  0  0  0  0  0  0
    3.8600   -0.5758    0.0000 C   0  0  0  0  0  0  0  0  0  0  0  0
    3.1455   -0.1633    0.0000 C   0  0  0  0  0  0  0  0  0  0  0  0
    3.1455    0.6617    0.0000 N   0  3  0  0  0  0  0  0  0  0  0  0
    2.4310    1.0742    0.0000 O   0  5  0  0  0  0  0  0  0  0  0  0
    3.8600    1.0742    0.0000 O   0  0  0  0  0  0  0  0  0  0  0  0
    2.4310   -0.5758    0.0000 C   0  0  0  0  0  0  0  0  0  0  0  0
    1.7166   -0.1633    0.0000 C   0  0  0  0  0  0  0  0  0  0  0  0
    2.4310   -1.4008    0.0000 C   0  0  0  0  0  0  0  0  0  0  0  0
  1  2  2  0  0  0  0
  2  3  1  0  0  0  0
  3  4  1  0  0  0  0
  2  5  1  0  0  0  0
  5  6  1  0  0  0  0
  2  7  1  0  0  0  0
  7  8  1  0  0  0  0
  9  8  2  0  0  0  0
 10  9  1  0  0  0  0
 11 10  2  0  0  0  0
 11 12  1  0  0  0  0
 12 13  1  0  0  0  0
 12 14  2  0  0  0  0
 15 11  1  0  0  0  0
 15 16  1  0  0  0  0
 17 15  2  0  0  0  0
  8 17  1  0  0  0  0
M  CHG  2  12   1  13  -1
M  END
> <ChemID>
100690

> <CAS>
122-14-5

> <Original_SMILES>
Cc1cc(ccc1[N+]([O-])=O)OP(=S)(OC)OC

> <preferred_name>
Fenitrothion

> <dsstox_substance_id>
DTXSID4032613

> <dsstox_compound_id>
DTXCID2012613

> <qc_level>
DSSTox_Low

> <Canonical_QSARr>
CC1=CC(=CC=C1[N+]([O-])=O)OP(=S)(OC)OC

> <InChI_Code_QSARr>
InChI=1S/C9H12NO5PS/c1-7-6-8(4-5-9(7)10(11)12)15-16(17,13-2)14-3/h4-6H,1-3H3

> <InChI Key_QSARr>
ZNOLGFHPUIJIMJ-UHFFFAOYSA-N

> <Salt_Solvent>


> <Salt_Solvent_ID>
0

> <MPID>
102483

> <HL Reference>
METCALFE,CD ET AL. (1980)

> <HL Temperature>
25

> <LogHL>
-6.03151705144606

> <Tr_1_Tst_0>
0

$$$$
100696
  Mrv171c012241914302D          

 10 10  0  0  0  0            999 V2000
    1.4290   -1.2352    0.0000 C   0  0  0  0  0  0  0  0  0  0  0  0
    1.4290   -0.4102    0.0000 C   0  0  0  0  0  0  0  0  0  0  0  0
    2.1434    0.0023    0.0000 C   0  0  0  0  0  0  0  0  0  0  0  0
    2.1434    0.8273    0.0000 C   0  0  0  0  0  0  0  0  0  0  0  0
    2.8579    1.2398    0.0000 O   0  0  0  0  0  0  0  0  0  0  0  0
    0.7145   -1.6477    0.0000 C   0  0  0  0  0  0  0  0  0  0  0  0
    0.7145   -2.4727    0.0000 C   0  0  0  0  0  0  0  0  0  0  0  0
    1.4290   -2.8852    0.0000 C   0  0  0  0  0  0  0  0  0  0  0  0
    2.1434   -2.4727    0.0000 C   0  0  0  0  0  0  0  0  0  0  0  0
    2.1434   -1.6477    0.0000 C   0  0  0  0  0  0  0  0  0  0  0  0
  1  2  1  0  0  0  0
  2  3  1  0  0  0  0
  3  4  1  0  0  0  0
  4  5  1  0  0  0  0
  6  1  1  0  0  0  0
  7  6  2  0  0  0  0
  8  7  1  0  0  0  0
  9  8  2  0  0  0  0
 10  9  1  0  0  0  0
  1 10  2  0  0  0  0
M  END
> <ChemID>
100696

> <CAS>
122-97-4

> <Original_SMILES>
OCCCc1ccccc1

> <preferred_name>
3-Phenyl-1-propanol

> <dsstox_substance_id>
DTXSID6041638

> <dsstox_compound_id>
DTXCID4021638

> <qc_level>
DSSTox_High

> <Canonical_QSARr>
OCCCC1C=CC=CC=1

> <InChI_Code_QSARr>
InChI=1S/C9H12O/c10-8-4-7-9-5-2-1-3-6-9/h1-3,5-6,10H,4,7-8H2

> <InChI Key_QSARr>
VAJVDSVGBWFCLW-UHFFFAOYSA-N

> <Salt_Solvent>


> <Salt_Solvent_ID>
0

> <MPID>
102484

> <HL Reference>
ABRAHAM,MH ET AL. (1994)

> <HL Temperature>
25

> <LogHL>
-6.692503962086776

> <Tr_1_Tst_0>
1

$$$$
100700
  Mrv171c012241914302D          

  9  9  0  0  0  0            999 V2000
    1.9091   -2.5140    0.0000 O   0  0  0  0  0  0  0  0  0  0  0  0
    1.9091   -1.6890    0.0000 C   0  0  0  0  0  0  0  0  0  0  0  0
    2.6236   -1.2765    0.0000 C   0  0  0  0  0  0  0  0  0  0  0  0
    2.6236   -0.4515    0.0000 C   0  0  0  0  0  0  0  0  0  0  0  0
    1.9091   -0.0390    0.0000 C   0  0  0  0  0  0  0  0  0  0  0  0
    1.9091    0.7860    0.0000 C   0  0  0  0  0  0  0  0  0  0  0  0
    1.1946    1.1985    0.0000 C   0  0  0  0  0  0  0  0  0  0  0  0
    1.1946   -0.4515    0.0000 C   0  0  0  0  0  0  0  0  0  0  0  0
    1.1946   -1.2765    0.0000 C   0  0  0  0  0  0  0  0  0  0  0  0
  1  2  1  0  0  0  0
  3  2  1  0  0  0  0
  4  3  2  0  0  0  0
  5  4  1  0  0  0  0
  5  6  1  0  0  0  0
  6  7  1  0  0  0  0
  8  5  2  0  0  0  0
  9  8  1  0  0  0  0
  2  9  2  0  0  0  0
M  END
> <ChemID>
100700

> <CAS>
123-07-9

> <Original_SMILES>
CCc1ccc(O)cc1

> <preferred_name>
4-Ethylphenol

> <dsstox_substance_id>
DTXSID4021977

> <dsstox_compound_id>
DTXCID801977

> <qc_level>
DSSTox_Low

> <Canonical_QSARr>
CCC1C=CC(O)=CC=1

> <InChI_Code_QSARr>
InChI=1S/C8H10O/c1-2-7-3-5-8(9)6-4-7/h3-6,9H,2H2,1H3

> <InChI Key_QSARr>
HXDOZKJGKXYMEW-UHFFFAOYSA-N

> <Salt_Solvent>


> <Salt_Solvent_ID>
0

> <MPID>
102485

> <HL Reference>
ABRAHAM,MH ET AL. (1994)

> <HL Temperature>
25

> <LogHL>
-6.1118205060816795

> <Tr_1_Tst_0>
1

$$$$
100701
  Mrv171c012241914302D          

  9  9  0  0  0  0            999 V2000
    0.7145    0.0458    0.0000 C   0  0  0  0  0  0  0  0  0  0  0  0
    0.7145   -0.7792    0.0000 C   0  0  0  0  0  0  0  0  0  0  0  0
   -0.0000   -1.1917    0.0000 O   0  0  0  0  0  0  0  0  0  0  0  0
    1.4289    0.4583    0.0000 C   0  0  0  0  0  0  0  0  0  0  0  0
    1.4289    1.2833    0.0000 C   0  0  0  0  0  0  0  0  0  0  0  0
    0.7145    1.6958    0.0000 C   0  0  0  0  0  0  0  0  0  0  0  0
    0.7145    2.5208    0.0000 O   0  0  0  0  0  0  0  0  0  0  0  0
   -0.0000    1.2833    0.0000 C   0  0  0  0  0  0  0  0  0  0  0  0
   -0.0000    0.4583    0.0000 C   0  0  0  0  0  0  0  0  0  0  0  0
  1  2  1  0  0  0  0
  2  3  2  0  0  0  0
  4  1  1  0  0  0  0
  5  4  2  0  0  0  0
  6  5  1  0  0  0  0
  6  7  1  0  0  0  0
  8  6  2  0  0  0  0
  9  8  1  0  0  0  0
  1  9  2  0  0  0  0
M  END
> <ChemID>
100701

> <CAS>
123-08-0

> <Original_SMILES>
Oc1ccc(C=O)cc1

> <preferred_name>
p-Hydroxybenzaldehyde

> <dsstox_substance_id>
DTXSID8059552

> <dsstox_compound_id>
DTXCID7033787

> <qc_level>
Public_High

> <Canonical_QSARr>
OC1=CC=C(C=C1)C=O

> <InChI_Code_QSARr>
InChI=1S/C7H6O2/c8-5-6-1-3-7(9)4-2-6/h1-5,9H

> <InChI Key_QSARr>
RGHHSNMVTDWUBI-UHFFFAOYSA-N

> <Salt_Solvent>


> <Salt_Solvent_ID>
0

> <MPID>
102486

> <HL Reference>
PARSONS,GH ET AL. (1971)

> <HL Temperature>
25

> <LogHL>
-9.291579099865267

> <Tr_1_Tst_0>
1

$$$$
100707
  Mrv171c012241914302D          

  4  3  0  0  0  0            999 V2000
    2.1043   -0.5633    0.0000 C   0  0  0  0  0  0  0  0  0  0  0  0
    1.2793   -0.5633    0.0000 C   0  0  0  0  0  0  0  0  0  0  0  0
    0.8668    0.1512    0.0000 C   0  0  0  0  0  0  0  0  0  0  0  0
    0.0418    0.1512    0.0000 O   0  0  0  0  0  0  0  0  0  0  0  0
  1  2  1  0  0  0  0
  2  3  1  0  0  0  0
  3  4  2  0  0  0  0
M  END
> <ChemID>
100707

> <CAS>
123-38-6

> <Original_SMILES>
CCC=O

> <preferred_name>
Propanal

> <dsstox_substance_id>
DTXSID2021658

> <dsstox_compound_id>
DTXCID001658

> <qc_level>
DSSTox_Low

> <Canonical_QSARr>
CCC=O

> <InChI_Code_QSARr>
InChI=1S/C3H6O/c1-2-3-4/h3H,2H2,1H3

> <InChI Key_QSARr>
NBBJYMSMWIIQGU-UHFFFAOYSA-N

> <Salt_Solvent>


> <Salt_Solvent_ID>
0

> <MPID>
102487

> <HL Reference>
BUTTERY,RG ET AL. (1969)

> <HL Temperature>
25

> <LogHL>
-4.134303940083927

> <Tr_1_Tst_0>
1

$$$$
100710
  Mrv171c012241914302D          

  6  5  0  0  0  0            999 V2000
    1.2739   -1.1327    0.0000 C   0  0  0  0  0  0  0  0  0  0  0  0
    2.0989   -1.1327    0.0000 C   0  0  0  0  0  0  0  0  0  0  0  0
    2.5114   -1.8472    0.0000 C   0  0  0  0  0  0  0  0  0  0  0  0
    2.5114   -0.4182    0.0000 C   0  0  0  0  0  0  0  0  0  0  0  0
    0.8614   -0.4182    0.0000 C   0  0  0  0  0  0  0  0  0  0  0  0
    0.0364   -0.4182    0.0000 O   0  0  0  0  0  0  0  0  0  0  0  0
  1  2  1  0  0  0  0
  2  3  1  0  0  0  0
  2  4  1  0  0  0  0
  1  5  1  0  0  0  0
  5  6  1  0  0  0  0
M  END
> <ChemID>
100710

> <CAS>
123-51-3

> <Original_SMILES>
CC(C)CCO

> <preferred_name>
Isopentyl alcohol

> <dsstox_substance_id>
DTXSID3025469

> <dsstox_compound_id>
DTXCID705469

> <qc_level>
DSSTox_Low

> <Canonical_QSARr>
CC(C)CCO

> <InChI_Code_QSARr>
InChI=1S/C5H12O/c1-5(2)3-4-6/h5-6H,3-4H2,1-2H3

> <InChI Key_QSARr>
PHTQWCKDNZKARW-UHFFFAOYSA-N

> <Salt_Solvent>


> <Salt_Solvent_ID>
0

> <MPID>
102488

> <HL Reference>
BUTLER,JAV ET AL. (1935)

> <HL Temperature>
25

> <LogHL>
-4.850780887344641

> <Tr_1_Tst_0>
1

$$$$
100713
  Mrv171c012241914302D          

  5  4  0  0  0  0            999 V2000
    2.5848   -1.1044    0.0000 C   0  0  0  0  0  0  0  0  0  0  0  0
    2.1723   -0.3899    0.0000 C   0  0  0  0  0  0  0  0  0  0  0  0
    1.3473   -0.3899    0.0000 C   0  0  0  0  0  0  0  0  0  0  0  0
    0.9348    0.3245    0.0000 C   0  0  0  0  0  0  0  0  0  0  0  0
    0.1098    0.3245    0.0000 O   0  0  0  0  0  0  0  0  0  0  0  0
  1  2  1  0  0  0  0
  2  3  1  0  0  0  0
  3  4  1  0  0  0  0
  4  5  2  0  0  0  0
M  END
> <ChemID>
100713

> <CAS>
123-72-8

> <Original_SMILES>
CCCC=O

> <preferred_name>
Butyraldehyde

> <dsstox_substance_id>
DTXSID8021513

> <dsstox_compound_id>
DTXCID601513

> <qc_level>
DSSTox_Low

> <Canonical_QSARr>
CCCC=O

> <InChI_Code_QSARr>
InChI=1S/C4H8O/c1-2-3-4-5/h4H,2-3H2,1H3

> <InChI Key_QSARr>
ZTQSAGDEMFDKMZ-UHFFFAOYSA-N

> <Salt_Solvent>


> <Salt_Solvent_ID>
0

> <MPID>
102489

> <HL Reference>
BUTTERY,RG ET AL. (1969)

> <HL Temperature>
25

> <LogHL>
-3.9393021596463864

> <Tr_1_Tst_0>
1

$$$$
100714
  Mrv171c012241914302D          

  5  4  0  0  0  0            999 V2000
    1.2375    0.7145    0.0000 C   0  0  0  0  0  0  0  0  0  0  0  0
    0.8250    0.0000    0.0000 C   0  0  0  0  0  0  0  0  0  0  0  0
    0.0000    0.0000    0.0000 C   0  0  0  0  0  0  0  0  0  0  0  0
   -0.4125   -0.7145    0.0000 C   0  0  0  0  0  0  0  0  0  0  0  0
    0.0000   -1.4289    0.0000 O   0  0  0  0  0  0  0  0  0  0  0  0
  2  1  1  4  0  0  0
  2  3  2  0  0  0  0
  3  4  1  0  0  0  0
  4  5  2  0  0  0  0
M  END
> <ChemID>
100714

> <CAS>
123-73-9|4170-30-3

> <Original_SMILES>
C/C=C/C=O

> <preferred_name>
(E)-Crotonaldehyde|Crotonaldehyde

> <dsstox_substance_id>
DTXSID6020351|DTXSID8024864

> <dsstox_compound_id>
DTXCID60351|DTXCID404864

> <qc_level>
DSSTox_Low

> <Canonical_QSARr>
CC=CC=O

> <InChI_Code_QSARr>
InChI=1S/C4H6O/c1-2-3-4-5/h2-4H,1H3

> <InChI Key_QSARr>
MLUCVPSAIODCQM-UHFFFAOYSA-N

> <Salt_Solvent>


> <Salt_Solvent_ID>
0

> <MPID>
102490|102663

> <HL Reference>
HINE,J & MOOKERJEE,PK (1975)|VP/WSOL

> <HL Temperature>
23

> <LogHL>
-4.837435593476981

> <Tr_1_Tst_0>
1

$$$$
100715
  Mrv171c012241914302D          

  5  5  0  0  0  0            999 V2000
    1.2352    0.6294    0.0000 C   0  0  0  0  0  0  0  0  0  0  0  0
    0.5678    1.1143    0.0000 C   0  0  0  0  0  0  0  0  0  0  0  0
   -0.0997    0.6294    0.0000 N   0  0  0  0  0  0  0  0  0  0  0  0
    0.1553   -0.1553    0.0000 C   0  0  0  0  0  0  0  0  0  0  0  0
    0.9803   -0.1553    0.0000 C   0  0  0  0  0  0  0  0  0  0  0  0
  2  1  1  0  0  0  0
  3  2  1  0  0  0  0
  4  3  1  0  0  0  0
  5  4  1  0  0  0  0
  1  5  1  0  0  0  0
M  END
> <ChemID>
100715

> <CAS>
123-75-1

> <Original_SMILES>
C1CCCN1

> <preferred_name>
Pyrrolidine

> <dsstox_substance_id>
DTXSID3059559

> <dsstox_compound_id>
DTXCID6033796

> <qc_level>
Public_High

> <Canonical_QSARr>
C1CCCN1

> <InChI_Code_QSARr>
InChI=1S/C4H9N/c1-2-4-5-3-1/h5H,1-4H2

> <InChI Key_QSARr>
RWRDLPDLKQPQOW-UHFFFAOYSA-N

> <Salt_Solvent>


> <Salt_Solvent_ID>
0

> <MPID>
102491

> <HL Reference>
CABANI,S ET AL. (1971)

> <HL Temperature>
25

> <LogHL>
-5.621602099051882

> <Tr_1_Tst_0>
0

$$$$
100717
  Mrv171c012241914302D          

 26 25  0  0  0  0            999 V2000
    6.3524   -0.8192    0.0000 C   0  0  0  0  0  0  0  0  0  0  0  0
    6.3524    0.0058    0.0000 O   0  0  0  0  0  0  0  0  0  0  0  0
    5.6379   -1.2317    0.0000 O   0  0  0  0  0  0  0  0  0  0  0  0
    4.9234   -0.8192    0.0000 C   0  0  0  0  0  0  0  0  0  0  0  0
    4.2090   -1.2317    0.0000 C   0  0  0  0  0  0  0  0  0  0  0  0
    3.4945   -0.8192    0.0000 C   0  0  0  0  0  0  0  0  0  0  0  0
    2.7800   -1.2317    0.0000 C   0  0  0  0  0  0  0  0  0  0  0  0
    2.0656   -0.8192    0.0000 C   0  0  0  0  0  0  0  0  0  0  0  0
    1.3511   -1.2317    0.0000 C   0  0  0  0  0  0  0  0  0  0  0  0
    0.6366   -0.8192    0.0000 C   0  0  0  0  0  0  0  0  0  0  0  0
   -0.0778   -1.2317    0.0000 C   0  0  0  0  0  0  0  0  0  0  0  0
    7.0669   -1.2317    0.0000 C   0  0  0  0  0  0  0  0  0  0  0  0
    7.7813   -0.8192    0.0000 C   0  0  0  0  0  0  0  0  0  0  0  0
    8.4958   -1.2317    0.0000 C   0  0  0  0  0  0  0  0  0  0  0  0
    9.2103   -0.8192    0.0000 C   0  0  0  0  0  0  0  0  0  0  0  0
    9.9247   -1.2317    0.0000 C   0  0  0  0  0  0  0  0  0  0  0  0
    9.9247   -2.0567    0.0000 O   0  0  0  0  0  0  0  0  0  0  0  0
   10.6392   -0.8192    0.0000 O   0  0  0  0  0  0  0  0  0  0  0  0
   11.3537   -1.2317    0.0000 C   0  0  0  0  0  0  0  0  0  0  0  0
   12.0682   -0.8192    0.0000 C   0  0  0  0  0  0  0  0  0  0  0  0
   12.7826   -1.2317    0.0000 C   0  0  0  0  0  0  0  0  0  0  0  0
   13.4971   -0.8192    0.0000 C   0  0  0  0  0  0  0  0  0  0  0  0
   14.2116   -1.2317    0.0000 C   0  0  0  0  0  0  0  0  0  0  0  0
   14.9260   -0.8192    0.0000 C   0  0  0  0  0  0  0  0  0  0  0  0
   15.6405   -1.2317    0.0000 C   0  0  0  0  0  0  0  0  0  0  0  0
   16.3550   -0.8192    0.0000 C   0  0  0  0  0  0  0  0  0  0  0  0
  1  2  2  0  0  0  0
  1  3  1  0  0  0  0
  3  4  1  0  0  0  0
  4  5  1  0  0  0  0
  5  6  1  0  0  0  0
  6  7  1  0  0  0  0
  7  8  1  0  0  0  0
  8  9  1  0  0  0  0
  9 10  1  0  0  0  0
 10 11  1  0  0  0  0
  1 12  1  0  0  0  0
 12 13  1  0  0  0  0
 13 14  1  0  0  0  0
 14 15  1  0  0  0  0
 15 16  1  0  0  0  0
 16 17  2  0  0  0  0
 16 18  1  0  0  0  0
 18 19  1  0  0  0  0
 19 20  1  0  0  0  0
 20 21  1  0  0  0  0
 21 22  1  0  0  0  0
 22 23  1  0  0  0  0
 23 24  1  0  0  0  0
 24 25  1  0  0  0  0
 25 26  1  0  0  0  0
M  END
> <ChemID>
100717

> <CAS>
123-79-5

> <Original_SMILES>
CCCCCCCCOC(=O)CCCCC(=O)OCCCCCCCC

> <preferred_name>
Dioctyl hexanedioate

> <dsstox_substance_id>
DTXSID2021606

> <dsstox_compound_id>
DTXCID701606

> <qc_level>
DSSTox_High

> <Canonical_QSARr>
CCCCCCCCOC(=O)CCCCC(=O)OCCCCCCCC

> <InChI_Code_QSARr>
InChI=1S/C22H42O4/c1-3-5-7-9-11-15-19-25-21(23)17-13-14-18-22(24)26-20-16-12-10-8-6-4-2/h3-20H2,1-2H3

> <InChI Key_QSARr>
NEHDRDVHPTWWFG-UHFFFAOYSA-N

> <Salt_Solvent>


> <Salt_Solvent_ID>
0

> <MPID>
102492

> <HL Reference>
FELDER,JD ET AL. (1986)

> <HL Temperature>
20

> <LogHL>
-6.362510270487486

> <Tr_1_Tst_0>
1

$$$$
100718
  Mrv171c012241914302D          

  8  7  0  0  0  0            999 V2000
   -0.1066   -0.4070    0.0000 C   0  0  0  0  0  0  0  0  0  0  0  0
    0.6078   -0.8195    0.0000 C   0  0  0  0  0  0  0  0  0  0  0  0
    1.3223   -0.4070    0.0000 O   0  0  0  0  0  0  0  0  0  0  0  0
    2.0368   -0.8195    0.0000 C   0  0  0  0  0  0  0  0  0  0  0  0
    2.7512   -0.4070    0.0000 C   0  0  0  0  0  0  0  0  0  0  0  0
    3.4657   -0.8195    0.0000 C   0  0  0  0  0  0  0  0  0  0  0  0
    4.1802   -0.4070    0.0000 C   0  0  0  0  0  0  0  0  0  0  0  0
    0.6078   -1.6445    0.0000 O   0  0  0  0  0  0  0  0  0  0  0  0
  1  2  1  0  0  0  0
  2  3  1  0  0  0  0
  3  4  1  0  0  0  0
  4  5  1  0  0  0  0
  5  6  1  0  0  0  0
  6  7  1  0  0  0  0
  2  8  2  0  0  0  0
M  END
> <ChemID>
100718

> <CAS>
123-86-4

> <Original_SMILES>
CCCCOC(C)=O

> <preferred_name>
Butyl acetate

> <dsstox_substance_id>
DTXSID3021982

> <dsstox_compound_id>
DTXCID101982

> <qc_level>
DSSTox_Low

> <Canonical_QSARr>
CCCCOC(C)=O

> <InChI_Code_QSARr>
InChI=1S/C6H12O2/c1-3-4-5-8-6(2)7/h3-5H2,1-2H3

> <InChI Key_QSARr>
DKPFZGUDAPQIHT-UHFFFAOYSA-N

> <Salt_Solvent>


> <Salt_Solvent_ID>
0

> <MPID>
102493

> <HL Reference>
KIECKBUSCH,TG & KING,CJ (1979)

> <HL Temperature>
25

> <LogHL>
-3.5512936800949206

> <Tr_1_Tst_0>
1

$$$$
100719
  Mrv171c012241914302D          

  6  6  0  0  0  0            999 V2000
    1.4289   -0.4125    0.0000 C   0  0  0  0  0  0  0  0  0  0  0  0
    0.7145    0.0000    0.0000 O   0  0  0  0  0  0  0  0  0  0  0  0
    0.0000   -0.4125    0.0000 C   0  0  0  0  0  0  0  0  0  0  0  0
    0.0000   -1.2375    0.0000 C   0  0  0  0  0  0  0  0  0  0  0  0
    0.7145   -1.6500    0.0000 O   0  0  0  0  0  0  0  0  0  0  0  0
    1.4289   -1.2375    0.0000 C   0  0  0  0  0  0  0  0  0  0  0  0
  2  1  1  0  0  0  0
  3  2  1  0  0  0  0
  4  3  1  0  0  0  0
  5  4  1  0  0  0  0
  6  5  1  0  0  0  0
  1  6  1  0  0  0  0
M  END
> <ChemID>
100719

> <CAS>
123-91-1

> <Original_SMILES>
C1COCCO1

> <preferred_name>
1,4-Dioxane

> <dsstox_substance_id>
DTXSID4020533

> <dsstox_compound_id>
DTXCID00533

> <qc_level>
DSSTox_Low

> <Canonical_QSARr>
C1COCCO1

> <InChI_Code_QSARr>
InChI=1S/C4H8O2/c1-2-6-4-3-5-1/h1-4H2

> <InChI Key_QSARr>
RYHBNJHYFVUHQT-UHFFFAOYSA-N

> <Salt_Solvent>


> <Salt_Solvent_ID>
0

> <MPID>
102494

> <HL Reference>
PARK,JH ET AL. (1987)

> <HL Temperature>
25

> <LogHL>
-5.3187587626244

> <Tr_1_Tst_0>
0

$$$$
100720
  Mrv171c012241914302D          

  9  8  0  0  0  0            999 V2000
    2.1414   -0.8256    0.0000 C   0  0  0  0  0  0  0  0  0  0  0  0
    1.4269   -0.4131    0.0000 O   0  0  0  0  0  0  0  0  0  0  0  0
    0.7124   -0.8256    0.0000 C   0  0  0  0  0  0  0  0  0  0  0  0
   -0.0020   -0.4131    0.0000 O   0  0  0  0  0  0  0  0  0  0  0  0
    0.7124   -1.6506    0.0000 C   0  0  0  0  0  0  0  0  0  0  0  0
    2.8558   -0.4131    0.0000 C   0  0  0  0  0  0  0  0  0  0  0  0
    3.5703   -0.8256    0.0000 C   0  0  0  0  0  0  0  0  0  0  0  0
    4.2848   -0.4131    0.0000 C   0  0  0  0  0  0  0  0  0  0  0  0
    3.5703   -1.6506    0.0000 C   0  0  0  0  0  0  0  0  0  0  0  0
  1  2  1  0  0  0  0
  2  3  1  0  0  0  0
  3  4  2  0  0  0  0
  3  5  1  0  0  0  0
  1  6  1  0  0  0  0
  6  7  1  0  0  0  0
  7  8  1  0  0  0  0
  7  9  1  0  0  0  0
M  END
> <ChemID>
100720

> <CAS>
123-92-2

> <Original_SMILES>
CC(C)CCOC(C)=O

> <preferred_name>
3-Methylbutyl acetate

> <dsstox_substance_id>
DTXSID9025453

> <dsstox_compound_id>
DTXCID005453

> <qc_level>
DSSTox_High

> <Canonical_QSARr>
CC(C)CCOC(C)=O

> <InChI_Code_QSARr>
InChI=1S/C7H14O2/c1-6(2)4-5-9-7(3)8/h6H,4-5H2,1-3H3

> <InChI Key_QSARr>
MLFHJEHSLIIPHL-UHFFFAOYSA-N

> <Salt_Solvent>


> <Salt_Solvent_ID>
0

> <MPID>
102495

> <HL Reference>
HINE,J & MOOKERJEE,PK (1975)

> <HL Temperature>
25

> <LogHL>
-3.2313618987523864

> <Tr_1_Tst_0>
1

$$$$
100721
  Mrv171c012241914302D          

  9  8  0  0  0  0            999 V2000
   -0.0224   -0.6420    0.0000 C   0  0  0  0  0  0  0  0  0  0  0  0
    0.6921   -0.2295    0.0000 C   0  0  0  0  0  0  0  0  0  0  0  0
    0.6921    0.5955    0.0000 O   0  0  0  0  0  0  0  0  0  0  0  0
    1.4066   -0.6420    0.0000 C   0  0  0  0  0  0  0  0  0  0  0  0
    2.1210   -0.2295    0.0000 C   0  0  0  0  0  0  0  0  0  0  0  0
    2.8355   -0.6420    0.0000 C   0  0  0  0  0  0  0  0  0  0  0  0
    3.5500   -0.2295    0.0000 C   0  0  0  0  0  0  0  0  0  0  0  0
    4.2644   -0.6420    0.0000 C   0  0  0  0  0  0  0  0  0  0  0  0
    4.9789   -0.2295    0.0000 C   0  0  0  0  0  0  0  0  0  0  0  0
  1  2  1  0  0  0  0
  2  3  1  0  0  0  0
  2  4  1  0  0  0  0
  4  5  1  0  0  0  0
  5  6  1  0  0  0  0
  6  7  1  0  0  0  0
  7  8  1  0  0  0  0
  8  9  1  0  0  0  0
M  END
> <ChemID>
100721

> <CAS>
123-96-6

> <Original_SMILES>
CCCCCCC(C)O

> <preferred_name>
2-Octanol

> <dsstox_substance_id>
DTXSID0027014

> <dsstox_compound_id>
DTXCID607014

> <qc_level>
DSSTox_Low

> <Canonical_QSARr>
CCCCCCC(C)O

> <InChI_Code_QSARr>
InChI=1S/C8H18O/c1-3-4-5-6-7-8(2)9/h8-9H,3-7H2,1-2H3

> <InChI Key_QSARr>
SJWFXCIHNDVPSH-UHFFFAOYSA-N

> <Salt_Solvent>


> <Salt_Solvent_ID>
0

> <MPID>
102496

> <HL Reference>
BOCEK,K (1976)

> <HL Temperature>
25

> <LogHL>
-3.910094888560603

> <Tr_1_Tst_0>
1

$$$$
100726
  Mrv171c012241914302D          

  9  8  0  0  0  0            999 V2000
    0.0017   -0.0454    0.0000 C   0  0  0  0  0  0  0  0  0  0  0  0
    0.7161   -0.4579    0.0000 C   0  0  0  0  0  0  0  0  0  0  0  0
    1.4306   -0.0454    0.0000 C   0  0  0  0  0  0  0  0  0  0  0  0
    2.1451   -0.4579    0.0000 C   0  0  0  0  0  0  0  0  0  0  0  0
    2.8595   -0.0454    0.0000 C   0  0  0  0  0  0  0  0  0  0  0  0
    3.5740   -0.4579    0.0000 C   0  0  0  0  0  0  0  0  0  0  0  0
    4.2885   -0.0454    0.0000 C   0  0  0  0  0  0  0  0  0  0  0  0
    5.0030   -0.4579    0.0000 C   0  0  0  0  0  0  0  0  0  0  0  0
    5.7174   -0.0454    0.0000 O   0  0  0  0  0  0  0  0  0  0  0  0
  1  2  1  0  0  0  0
  2  3  1  0  0  0  0
  3  4  1  0  0  0  0
  4  5  1  0  0  0  0
  5  6  1  0  0  0  0
  6  7  1  0  0  0  0
  7  8  1  0  0  0  0
  8  9  2  0  0  0  0
M  END
> <ChemID>
100726

> <CAS>
124-13-0

> <Original_SMILES>
CCCCCCCC=O

> <preferred_name>
Octanal

> <dsstox_substance_id>
DTXSID3021643

> <dsstox_compound_id>
DTXCID701643

> <qc_level>
DSSTox_Low

> <Canonical_QSARr>
CCCCCCCC=O

> <InChI_Code_QSARr>
InChI=1S/C8H16O/c1-2-3-4-5-6-7-8-9/h8H,2-7H2,1H3

> <InChI Key_QSARr>
NUJGJRNETVAIRJ-UHFFFAOYSA-N

> <Salt_Solvent>


> <Salt_Solvent_ID>
0

> <MPID>
102497

> <HL Reference>
BUTTERY,RG ET AL. (1969)

> <HL Temperature>
25

> <LogHL>
-3.2890368810047246

> <Tr_1_Tst_0>
1

$$$$
100729
  Mrv171c012241914302D          

 10  9  0  0  0  0            999 V2000
    0.0045   -0.4123    0.0000 C   0  0  0  0  0  0  0  0  0  0  0  0
    0.7189    0.0002    0.0000 C   0  0  0  0  0  0  0  0  0  0  0  0
    1.4334   -0.4123    0.0000 C   0  0  0  0  0  0  0  0  0  0  0  0
    2.1479    0.0002    0.0000 C   0  0  0  0  0  0  0  0  0  0  0  0
    2.8624   -0.4123    0.0000 C   0  0  0  0  0  0  0  0  0  0  0  0
    3.5768    0.0002    0.0000 C   0  0  0  0  0  0  0  0  0  0  0  0
    4.2913   -0.4123    0.0000 C   0  0  0  0  0  0  0  0  0  0  0  0
    5.0058    0.0002    0.0000 C   0  0  0  0  0  0  0  0  0  0  0  0
    5.7202   -0.4123    0.0000 C   0  0  0  0  0  0  0  0  0  0  0  0
    6.4347    0.0002    0.0000 O   0  0  0  0  0  0  0  0  0  0  0  0
  1  2  1  0  0  0  0
  2  3  1  0  0  0  0
  3  4  1  0  0  0  0
  4  5  1  0  0  0  0
  5  6  1  0  0  0  0
  6  7  1  0  0  0  0
  7  8  1  0  0  0  0
  8  9  1  0  0  0  0
  9 10  2  0  0  0  0
M  END
> <ChemID>
100729

> <CAS>
124-19-6

> <Original_SMILES>
CCCCCCCCC=O

> <preferred_name>
Nonanal

> <dsstox_substance_id>
DTXSID9021639

> <dsstox_compound_id>
DTXCID801639

> <qc_level>
DSSTox_Low

> <Canonical_QSARr>
CCCCCCCCC=O

> <InChI_Code_QSARr>
InChI=1S/C9H18O/c1-2-3-4-5-6-7-8-9-10/h9H,2-8H2,1H3

> <InChI Key_QSARr>
GYHFUZHODSMOHU-UHFFFAOYSA-N

> <Salt_Solvent>


> <Salt_Solvent_ID>
0

> <MPID>
102498

> <HL Reference>
BUTTERY,RG ET AL. (1969)

> <HL Temperature>
25

> <LogHL>
-3.13430394008393

> <Tr_1_Tst_0>
1

$$$$
100731
  Mrv171c012241914302D          

  3  2  0  0  0  0            999 V2000
   -0.0269   -0.3388    0.0000 C   0  0  0  0  0  0  0  0  0  0  0  0
    0.6876   -0.7513    0.0000 N   0  0  0  0  0  0  0  0  0  0  0  0
    1.4020   -0.3388    0.0000 C   0  0  0  0  0  0  0  0  0  0  0  0
  1  2  1  0  0  0  0
  2  3  1  0  0  0  0
M  END
> <ChemID>
100731

> <CAS>
124-40-3

> <Original_SMILES>
CNC

> <preferred_name>
Dimethylamine

> <dsstox_substance_id>
DTXSID5024057

> <dsstox_compound_id>
DTXCID704057

> <qc_level>
DSSTox_High

> <Canonical_QSARr>
CNC

> <InChI_Code_QSARr>
InChI=1S/C2H7N/c1-3-2/h3H,1-2H3

> <InChI Key_QSARr>
ROSDSFDQCJNGOL-UHFFFAOYSA-N

> <Salt_Solvent>


> <Salt_Solvent_ID>
0

> <MPID>
102499

> <HL Reference>
CHRISTIE,AO & CRISP,DJ (1967)

> <HL Temperature>
25

> <LogHL>
-4.752026733638197

> <Tr_1_Tst_0>
0

$$$$
100732
  Mrv171c012241914302D          

  4  3  0  0  0  0            999 V2000
    1.2371    0.0002    0.0000 Cl  0  0  0  0  0  0  0  0  0  0  0  0
    0.8246   -0.7143    0.0000 C   0  0  0  0  0  0  0  0  0  0  0  0
    1.2371   -1.4287    0.0000 Br  0  0  0  0  0  0  0  0  0  0  0  0
   -0.0004   -0.7143    0.0000 Br  0  0  0  0  0  0  0  0  0  0  0  0
  1  2  1  0  0  0  0
  2  3  1  0  0  0  0
  2  4  1  0  0  0  0
M  END
> <ChemID>
100732

> <CAS>
124-48-1

> <Original_SMILES>
ClC(Br)Br

> <preferred_name>
Chlorodibromomethane

> <dsstox_substance_id>
DTXSID1020300

> <dsstox_compound_id>
DTXCID30300

> <qc_level>
DSSTox_Low

> <Canonical_QSARr>
ClC(Br)Br

> <InChI_Code_QSARr>
InChI=1S/CHBr2Cl/c2-1(3)4/h1H

> <InChI Key_QSARr>
GATVIKZLVQHOMN-UHFFFAOYSA-N

> <Salt_Solvent>


> <Salt_Solvent_ID>
0

> <MPID>
102500

> <HL Reference>
WARNER,HP ET AL. (1987)

> <HL Temperature>
20

> <LogHL>
-3.1062382379420557

> <Tr_1_Tst_0>
1

$$$$
100733
  Mrv171c012241914302D          

  7  6  0  0  0  0            999 V2000
    1.0959   -0.6395    0.0000 C   0  0  0  0  0  0  0  0  0  0  0  0
    1.5084    0.0749    0.0000 F   0  0  0  0  0  0  0  0  0  0  0  0
    0.3814   -0.2270    0.0000 F   0  0  0  0  0  0  0  0  0  0  0  0
    1.8104   -1.0520    0.0000 F   0  0  0  0  0  0  0  0  0  0  0  0
    0.6834   -1.3540    0.0000 C   0  0  0  0  0  0  0  0  0  0  0  0
    1.0959   -2.0685    0.0000 F   0  0  0  0  0  0  0  0  0  0  0  0
   -0.1416   -1.3540    0.0000 Br  0  0  0  0  0  0  0  0  0  0  0  0
  1  2  1  0  0  0  0
  1  3  1  0  0  0  0
  1  4  1  0  0  0  0
  1  5  1  0  0  0  0
  5  6  1  0  0  0  0
  5  7  1  0  0  0  0
M  END
> <ChemID>
100733

> <CAS>
124-72-1

> <Original_SMILES>
FC(Br)C(F)(F)F

> <preferred_name>


> <dsstox_substance_id>
DTXSID10861765

> <dsstox_compound_id>
DTXCID20810648

> <qc_level>


> <Canonical_QSARr>
FC(Br)C(F)(F)F

> <InChI_Code_QSARr>
InChI=1S/C2HBrF4/c3-1(4)2(5,6)7/h1H

> <InChI Key_QSARr>
RZXZIZDRFQFCTA-UHFFFAOYSA-N

> <Salt_Solvent>


> <Salt_Solvent_ID>
0

> <MPID>
102501

> <HL Reference>
ABRAHAM,MH ET AL. (1994)

> <HL Temperature>
25

> <LogHL>
-1.2418453780326086

> <Tr_1_Tst_0>
1

$$$$
100738
  Mrv171c012241914302D          

  6  5  0  0  0  0            999 V2000
    0.8245    0.0003    0.0000 C   0  0  0  0  0  0  0  0  0  0  0  0
    1.2370   -0.7141    0.0000 C   0  0  0  0  0  0  0  0  0  0  0  0
    2.0620   -0.7141    0.0000 O   0  0  0  0  0  0  0  0  0  0  0  0
    0.8245   -1.4286    0.0000 C   0  0  0  0  0  0  0  0  0  0  0  0
    1.2370   -2.1431    0.0000 O   0  0  0  0  0  0  0  0  0  0  0  0
   -0.0005   -1.4286    0.0000 O   0  0  0  0  0  0  0  0  0  0  0  0
  1  2  1  0  0  0  0
  2  3  2  0  0  0  0
  2  4  1  0  0  0  0
  4  5  2  0  0  0  0
  4  6  1  0  0  0  0
M  END
> <ChemID>
100738

> <CAS>
127-17-3

> <Original_SMILES>
CC(=O)C(O)=O

> <preferred_name>
2-Oxopropanoic acid

> <dsstox_substance_id>
DTXSID2021650

> <dsstox_compound_id>
DTXCID801650

> <qc_level>
DSSTox_Low

> <Canonical_QSARr>
CC(=O)C(O)=O

> <InChI_Code_QSARr>
InChI=1S/C3H4O3/c1-2(4)3(5)6/h1H3,(H,5,6)

> <InChI Key_QSARr>
LCTONWCANYUPML-UHFFFAOYSA-N

> <Salt_Solvent>


> <Salt_Solvent_ID>
0

> <MPID>
102502

> <HL Reference>
KHAN,I & BRIMBLECOMBE,P (1992)

> <HL Temperature>
25

> <LogHL>
-8.490797477668876

> <Tr_1_Tst_0>
1

$$$$
100739
  Mrv171c012241914302D          

  6  5  0  0  0  0            999 V2000
    1.8554   -1.7855    0.0000 Cl  0  0  0  0  0  0  0  0  0  0  0  0
    1.4429   -1.0710    0.0000 C   0  0  0  0  0  0  0  0  0  0  0  0
    1.8554   -0.3566    0.0000 Cl  0  0  0  0  0  0  0  0  0  0  0  0
    0.6179   -1.0710    0.0000 C   0  0  0  0  0  0  0  0  0  0  0  0
    0.2054   -1.7855    0.0000 Cl  0  0  0  0  0  0  0  0  0  0  0  0
    0.2054   -0.3566    0.0000 Cl  0  0  0  0  0  0  0  0  0  0  0  0
  1  2  1  0  0  0  0
  2  3  1  0  0  0  0
  2  4  2  0  0  0  0
  4  5  1  0  0  0  0
  4  6  1  0  0  0  0
M  END
> <ChemID>
100739

> <CAS>
127-18-4

> <Original_SMILES>
ClC(Cl)=C(Cl)Cl

> <preferred_name>
Tetrachloroethylene

> <dsstox_substance_id>
DTXSID2021319

> <dsstox_compound_id>
DTXCID601319

> <qc_level>
DSSTox_Low

> <Canonical_QSARr>
ClC(Cl)=C(Cl)Cl

> <InChI_Code_QSARr>
InChI=1S/C2Cl4/c3-1(4)2(5)6

> <InChI Key_QSARr>
CYTYCFOTNPOANT-UHFFFAOYSA-N

> <Salt_Solvent>


> <Salt_Solvent_ID>
0

> <MPID>
102503

> <HL Reference>
GOSSETT,JM (1987)

> <HL Temperature>
24

> <LogHL>
-1.7520267336381918

> <Tr_1_Tst_0>
0

$$$$
100740
  Mrv171c012241914302D          

  6  5  0  0  0  0            999 V2000
    1.2751   -0.6739    0.0000 C   0  0  0  0  0  0  0  0  0  0  0  0
    0.8626    0.0406    0.0000 C   0  0  0  0  0  0  0  0  0  0  0  0
    2.1001   -0.6739    0.0000 O   0  0  0  0  0  0  0  0  0  0  0  0
    0.8626   -1.3883    0.0000 N   0  0  0  0  0  0  0  0  0  0  0  0
    1.2751   -2.1028    0.0000 C   0  0  0  0  0  0  0  0  0  0  0  0
    0.0376   -1.3883    0.0000 C   0  0  0  0  0  0  0  0  0  0  0  0
  1  2  1  0  0  0  0
  1  3  2  0  0  0  0
  1  4  1  0  0  0  0
  4  5  1  0  0  0  0
  4  6  1  0  0  0  0
M  END
> <ChemID>
100740

> <CAS>
127-19-5

> <Original_SMILES>
CC(=O)N(C)C

> <preferred_name>
N,N-Dimethylacetamide

> <dsstox_substance_id>
DTXSID5020499

> <dsstox_compound_id>
DTXCID90499

> <qc_level>
DSSTox_Low

> <Canonical_QSARr>
CC(=O)N(C)C

> <InChI_Code_QSARr>
InChI=1S/C4H9NO/c1-4(6)5(2)3/h1-3H3

> <InChI Key_QSARr>
FXHOOIRPVKKKFG-UHFFFAOYSA-N

> <Salt_Solvent>


> <Salt_Solvent_ID>
0

> <MPID>
102504

> <HL Reference>
TAFT,RW ET AL. (1985)

> <HL Temperature>
25

> <LogHL>
-7.882728704344233

> <Tr_1_Tst_0>
1

$$$$
100742
  Mrv171c012241914302D          

 16 19  0  0  0  0            999 V2000
    2.2044   -1.4429    0.0000 C   0  0  0  0  0  0  0  0  0  0  0  0
    2.6169   -0.7285    0.0000 C   0  0  0  0  0  0  0  0  0  0  0  0
    2.2044   -0.0140    0.0000 C   0  0  0  0  0  0  0  0  0  0  0  0
    1.3794   -0.0140    0.0000 C   0  0  0  0  0  0  0  0  0  0  0  0
    0.9669   -0.7285    0.0000 C   0  0  0  0  0  0  0  0  0  0  0  0
    0.1419   -0.7285    0.0000 C   0  0  0  0  0  0  0  0  0  0  0  0
   -0.2706   -1.4429    0.0000 C   0  0  0  0  0  0  0  0  0  0  0  0
    0.1419   -2.1574    0.0000 C   0  0  0  0  0  0  0  0  0  0  0  0
    0.9669   -2.1574    0.0000 C   0  0  0  0  0  0  0  0  0  0  0  0
    1.3794   -2.8719    0.0000 C   0  0  0  0  0  0  0  0  0  0  0  0
    2.2044   -2.8719    0.0000 C   0  0  0  0  0  0  0  0  0  0  0  0
    2.6169   -2.1574    0.0000 C   0  0  0  0  0  0  0  0  0  0  0  0
    3.4419   -2.1574    0.0000 C   0  0  0  0  0  0  0  0  0  0  0  0
    3.8544   -1.4429    0.0000 C   0  0  0  0  0  0  0  0  0  0  0  0
    3.4419   -0.7285    0.0000 C   0  0  0  0  0  0  0  0  0  0  0  0
    1.3794   -1.4429    0.0000 C   0  0  0  0  0  0  0  0  0  0  0  0
  2  1  1  0  0  0  0
  2  3  1  0  0  0  0
  3  4  2  0  0  0  0
  4  5  1  0  0  0  0
  5  6  2  0  0  0  0
  6  7  1  0  0  0  0
  7  8  2  0  0  0  0
  8  9  1  0  0  0  0
  9 10  1  0  0  0  0
 10 11  2  0  0  0  0
 11 12  1  0  0  0  0
 12  1  2  0  0  0  0
 12 13  1  0  0  0  0
 13 14  2  0  0  0  0
 14 15  1  0  0  0  0
 15  2  2  0  0  0  0
  9 16  2  0  0  0  0
  1 16  1  0  0  0  0
 16  5  1  0  0  0  0
M  END
> <ChemID>
100742

> <CAS>
129-00-0

> <Original_SMILES>
c1cc2cccc3ccc4cccc1c4c32

> <preferred_name>
Pyrene

> <dsstox_substance_id>
DTXSID3024289

> <dsstox_compound_id>
DTXCID804289

> <qc_level>
DSSTox_Low

> <Canonical_QSARr>
C1=CC2C=CC=C3C=CC4=CC=CC1=C4C=23

> <InChI_Code_QSARr>
InChI=1S/C16H10/c1-3-11-7-9-13-5-2-6-14-10-8-12(4-1)15(11)16(13)14/h1-10H

> <InChI Key_QSARr>
BBEAQIROQSPTKN-UHFFFAOYSA-N

> <Salt_Solvent>


> <Salt_Solvent_ID>
0

> <MPID>
102505

> <HL Reference>
SHIU,WY & MACKAY,D (1997)

> <HL Temperature>
25

> <LogHL>
-4.924453038607473

> <Tr_1_Tst_0>
1

$$$$
100752
  Mrv171c012241914302D          

 11 12  0  0  0  0            999 V2000
    1.5577   -0.8473    0.0000 C   0  0  0  0  0  0  0  0  0  0  0  0
    0.8432   -0.4348    0.0000 C   0  0  0  0  0  0  0  0  0  0  0  0
    0.1287   -0.8473    0.0000 C   0  0  0  0  0  0  0  0  0  0  0  0
    0.1287   -1.6723    0.0000 C   0  0  0  0  0  0  0  0  0  0  0  0
    0.8432   -2.0848    0.0000 C   0  0  0  0  0  0  0  0  0  0  0  0
    0.8432   -2.9098    0.0000 N   0  0  0  0  0  0  0  0  0  0  0  0
    1.5577   -1.6723    0.0000 C   0  0  0  0  0  0  0  0  0  0  0  0
    2.2721   -2.0848    0.0000 C   0  0  0  0  0  0  0  0  0  0  0  0
    2.9866   -1.6723    0.0000 C   0  0  0  0  0  0  0  0  0  0  0  0
    2.9866   -0.8473    0.0000 C   0  0  0  0  0  0  0  0  0  0  0  0
    2.2721   -0.4348    0.0000 C   0  0  0  0  0  0  0  0  0  0  0  0
  2  1  1  0  0  0  0
  3  2  2  0  0  0  0
  4  3  1  0  0  0  0
  5  4  2  0  0  0  0
  5  6  1  0  0  0  0
  7  5  1  0  0  0  0
  7  1  2  0  0  0  0
  8  7  1  0  0  0  0
  9  8  2  0  0  0  0
 10  9  1  0  0  0  0
 11 10  2  0  0  0  0
  1 11  1  0  0  0  0
M  END
> <ChemID>
100752

> <CAS>
134-32-7

> <Original_SMILES>
Nc1cccc2ccccc21

> <preferred_name>
1-Naphthylamine

> <dsstox_substance_id>
DTXSID7020920

> <dsstox_compound_id>
DTXCID30920

> <qc_level>
DSSTox_Low

> <Canonical_QSARr>
NC1=CC=CC2C=CC=CC=21

> <InChI_Code_QSARr>
InChI=1S/C10H9N/c11-10-7-3-5-8-4-1-2-6-9(8)10/h1-7H,11H2

> <InChI Key_QSARr>
RUFPHBVGCFYCNW-UHFFFAOYSA-N

> <Salt_Solvent>


> <Salt_Solvent_ID>
0

> <MPID>
102506

> <HL Reference>
ABRAHAM,MH ET AL. (1994)

> <HL Temperature>
25

> <LogHL>
-6.954677021213351

> <Tr_1_Tst_0>
1

$$$$
100754
  Mrv171c012241914302D          

 11 12  0  0  0  0            999 V2000
    1.8238   -0.4135    0.0000 C   0  0  0  0  0  0  0  0  0  0  0  0
    1.1094   -0.0010    0.0000 C   0  0  0  0  0  0  0  0  0  0  0  0
    0.3949   -0.4135    0.0000 C   0  0  0  0  0  0  0  0  0  0  0  0
   -0.3196   -0.0010    0.0000 O   0  0  0  0  0  0  0  0  0  0  0  0
    0.3949   -1.2385    0.0000 C   0  0  0  0  0  0  0  0  0  0  0  0
    1.1094   -1.6510    0.0000 C   0  0  0  0  0  0  0  0  0  0  0  0
    1.8238   -1.2385    0.0000 C   0  0  0  0  0  0  0  0  0  0  0  0
    2.5383   -1.6510    0.0000 C   0  0  0  0  0  0  0  0  0  0  0  0
    3.2528   -1.2385    0.0000 C   0  0  0  0  0  0  0  0  0  0  0  0
    3.2528   -0.4135    0.0000 C   0  0  0  0  0  0  0  0  0  0  0  0
    2.5383   -0.0010    0.0000 C   0  0  0  0  0  0  0  0  0  0  0  0
  2  1  1  0  0  0  0
  3  2  2  0  0  0  0
  3  4  1  0  0  0  0
  5  3  1  0  0  0  0
  6  5  2  0  0  0  0
  7  6  1  0  0  0  0
  7  1  2  0  0  0  0
  8  7  1  0  0  0  0
  9  8  2  0  0  0  0
 10  9  1  0  0  0  0
 11 10  2  0  0  0  0
  1 11  1  0  0  0  0
M  END
> <ChemID>
100754

> <CAS>
135-19-3

> <Original_SMILES>
Oc1cc2ccccc2cc1

> <preferred_name>
2-Naphthalenol

> <dsstox_substance_id>
DTXSID5027061

> <dsstox_compound_id>
DTXCID907061

> <qc_level>
DSSTox_Low

> <Canonical_QSARr>
OC1=CC2C=CC=CC=2C=C1

> <InChI_Code_QSARr>
InChI=1S/C10H8O/c11-10-6-5-8-3-1-2-4-9(8)7-10/h1-7,11H

> <InChI Key_QSARr>
JWAZRIHNYRIHIV-UHFFFAOYSA-N

> <Salt_Solvent>


> <Salt_Solvent_ID>
0

> <MPID>
102507

> <HL Reference>
ABRAHAM,MH ET AL. (1994)

> <HL Temperature>
25

> <LogHL>
-7.562249437179617

> <Tr_1_Tst_0>
1

$$$$
100757
  Mrv171c012241914302D          

 10 10  0  0  0  0            999 V2000
    2.8587    0.0001    0.0000 C   0  0  0  0  0  0  0  0  0  0  0  0
    2.1442   -0.4124    0.0000 C   0  0  0  0  0  0  0  0  0  0  0  0
    1.4297    0.0001    0.0000 C   0  0  0  0  0  0  0  0  0  0  0  0
    1.4297    0.8251    0.0000 C   0  0  0  0  0  0  0  0  0  0  0  0
    0.7153   -0.4124    0.0000 C   0  0  0  0  0  0  0  0  0  0  0  0
    0.7153   -1.2374    0.0000 C   0  0  0  0  0  0  0  0  0  0  0  0
    0.0008   -1.6499    0.0000 N   0  0  0  0  0  0  0  0  0  0  0  0
    1.4297   -1.6499    0.0000 C   0  0  0  0  0  0  0  0  0  0  0  0
    1.4297   -2.4749    0.0000 C   0  0  0  0  0  0  0  0  0  0  0  0
    2.1442   -1.2374    0.0000 C   0  0  0  0  0  0  0  0  0  0  0  0
  1  2  1  0  0  0  0
  3  2  1  0  0  0  0
  3  4  1  0  0  0  0
  5  3  2  0  0  0  0
  6  5  1  0  0  0  0
  6  7  1  0  0  0  0
  8  6  2  0  0  0  0
  8  9  1  0  0  0  0
 10  8  1  0  0  0  0
  2 10  2  0  0  0  0
M  END
> <ChemID>
100757

> <CAS>
137-17-7

> <Original_SMILES>
Cc1cc(N)c(C)cc1C

> <preferred_name>
2,4,5-Trimethylaniline

> <dsstox_substance_id>
DTXSID9021398

> <dsstox_compound_id>
DTXCID601398

> <qc_level>
DSSTox_Low

> <Canonical_QSARr>
CC1C=C(C)C(C)=CC=1N

> <InChI_Code_QSARr>
InChI=1S/C9H13N/c1-6-4-8(3)9(10)5-7(6)2/h4-5H,10H2,1-3H3

> <InChI Key_QSARr>
BMIPMKQAAJKBKP-UHFFFAOYSA-N

> <Salt_Solvent>


> <Salt_Solvent_ID>
0

> <MPID>
102508

> <HL Reference>
JAYASINGHE,DS ET AL. (1992)

> <HL Temperature>
25

> <LogHL>
-5.60554831917379

> <Tr_1_Tst_0>
1

$$$$
100760
  Mrv171c012241914302D          

  6  5  0  0  0  0            999 V2000
    2.2629   -0.4106    0.0000 C   0  0  0  0  0  0  0  0  0  0  0  0
    2.6754   -1.1251    0.0000 O   0  0  0  0  0  0  0  0  0  0  0  0
    1.4379   -0.4106    0.0000 C   0  0  0  0  0  0  0  0  0  0  0  0
    1.0254   -1.1251    0.0000 C   0  0  0  0  0  0  0  0  0  0  0  0
    1.0254    0.3039    0.0000 C   0  0  0  0  0  0  0  0  0  0  0  0
    0.2004    0.3039    0.0000 C   0  0  0  0  0  0  0  0  0  0  0  0
  1  2  1  0  0  0  0
  1  3  1  0  0  0  0
  3  4  1  0  0  0  0
  3  5  1  0  0  0  0
  5  6  1  0  0  0  0
M  END
> <ChemID>
100760

> <CAS>
137-32-6

> <Original_SMILES>
CCC(C)CO

> <preferred_name>
2-Methyl-1-butanol

> <dsstox_substance_id>
DTXSID5027069

> <dsstox_compound_id>
DTXCID107069

> <qc_level>
DSSTox_Low

> <Canonical_QSARr>
CCC(C)CO

> <InChI_Code_QSARr>
InChI=1S/C5H12O/c1-3-5(2)4-6/h5-6H,3-4H2,1-2H3

> <InChI Key_QSARr>
QPRQEDXDYOZYLA-UHFFFAOYSA-N

> <Salt_Solvent>


> <Salt_Solvent_ID>
0

> <MPID>
102509

> <HL Reference>
HINE,J & MOOKERJEE,PK (1975)

> <HL Temperature>
25

> <LogHL>
-4.850780887344641

> <Tr_1_Tst_0>
0

$$$$
100768
  Mrv171c012241914302D          

  4  3  0  0  0  0            999 V2000
    1.2375   -0.7145    0.0000 C   0  0  0  0  0  0  0  0  0  0  0  0
    2.0625   -0.7145    0.0000 O   0  0  0  0  0  0  0  0  0  0  0  0
    0.8250   -0.0000    0.0000 C   0  0  0  0  0  0  0  0  0  0  0  0
   -0.0000   -0.0000    0.0000 O   0  0  0  0  0  0  0  0  0  0  0  0
  1  2  1  0  0  0  0
  1  3  1  0  0  0  0
  3  4  2  0  0  0  0
M  END
> <ChemID>
100768

> <CAS>
141-46-8

> <Original_SMILES>
OCC=O

> <preferred_name>
Acetaldehyde, hydroxy-

> <dsstox_substance_id>
DTXSID4074693

> <dsstox_compound_id>
DTXCID4034570

> <qc_level>
Public_High

> <Canonical_QSARr>
OCC=O

> <InChI_Code_QSARr>
InChI=1S/C2H4O2/c3-1-2-4/h1,4H,2H2

> <InChI Key_QSARr>
WGCNASOHLSPBMP-UHFFFAOYSA-N

> <Salt_Solvent>


> <Salt_Solvent_ID>
0

> <MPID>
102510

> <HL Reference>
BETTERTON,EA & HOFFMAN,MR (1988)

> <HL Temperature>
25

> <LogHL>
-7.616184634019581

> <Tr_1_Tst_0>
0

$$$$
100769
  Mrv171c012241914302D          

 17 16  0  0  0  0            999 V2000
    1.5243   -2.5253    0.0000 Si  0  0  0  0  0  0  0  0  0  0  0  0
    2.3493   -2.5253    0.0000 C   0  0  0  0  0  0  0  0  0  0  0  0
    0.6993   -2.5253    0.0000 C   0  0  0  0  0  0  0  0  0  0  0  0
    1.5243   -3.3503    0.0000 O   0  0  0  0  0  0  0  0  0  0  0  0
    0.8098   -3.7628    0.0000 Si  0  0  0  0  0  0  0  0  0  0  0  0
    0.0954   -4.1753    0.0000 C   0  0  0  0  0  0  0  0  0  0  0  0
    1.2223   -4.4773    0.0000 C   0  0  0  0  0  0  0  0  0  0  0  0
    0.3973   -3.0483    0.0000 C   0  0  0  0  0  0  0  0  0  0  0  0
    1.5243   -1.7003    0.0000 O   0  0  0  0  0  0  0  0  0  0  0  0
    2.2388   -1.2878    0.0000 Si  0  0  0  0  0  0  0  0  0  0  0  0
    2.6513   -2.0023    0.0000 C   0  0  0  0  0  0  0  0  0  0  0  0
    1.8263   -0.5733    0.0000 C   0  0  0  0  0  0  0  0  0  0  0  0
    2.9532   -0.8753    0.0000 O   0  0  0  0  0  0  0  0  0  0  0  0
    2.9532   -0.0503    0.0000 Si  0  0  0  0  0  0  0  0  0  0  0  0
    2.9532    0.7747    0.0000 C   0  0  0  0  0  0  0  0  0  0  0  0
    3.7782   -0.0503    0.0000 C   0  0  0  0  0  0  0  0  0  0  0  0
    2.1282   -0.0503    0.0000 C   0  0  0  0  0  0  0  0  0  0  0  0
  1  2  1  0  0  0  0
  1  3  1  0  0  0  0
  1  4  1  0  0  0  0
  4  5  1  0  0  0  0
  5  6  1  0  0  0  0
  5  7  1  0  0  0  0
  5  8  1  0  0  0  0
  1  9  1  0  0  0  0
  9 10  1  0  0  0  0
 10 11  1  0  0  0  0
 10 12  1  0  0  0  0
 10 13  1  0  0  0  0
 13 14  1  0  0  0  0
 14 15  1  0  0  0  0
 14 16  1  0  0  0  0
 14 17  1  0  0  0  0
M  END
> <ChemID>
100769

> <CAS>
141-62-8

> <Original_SMILES>
C[Si](C)(C)O[Si](C)(C)O[Si](C)(C)O[Si](C)(C)C

> <preferred_name>
Decamethyltetrasiloxane

> <dsstox_substance_id>
DTXSID2044551

> <dsstox_compound_id>
DTXCID0024551

> <qc_level>
DSSTox_Low

> <Canonical_QSARr>
C[Si](C)(C)O[Si](C)(C)O[Si](C)(C)O[Si](C)(C)C

> <InChI_Code_QSARr>
InChI=1S/C10H30O3Si4/c1-14(2,3)11-16(7,8)13-17(9,10)12-15(4,5)6/h1-10H3

> <InChI Key_QSARr>
YFCGDEUVHLPRCZ-UHFFFAOYSA-N

> <Salt_Solvent>


> <Salt_Solvent_ID>
0

> <MPID>
102511

> <HL Reference>
KOCHETKOV,A ET AL. (2001)

> <HL Temperature>
25

> <LogHL>
1.2304489213782757

> <Tr_1_Tst_0>
1

$$$$
100770
  Mrv171c012241914302D          

 15 14  0  0  0  0            999 V2000
    1.2375   -0.7145    0.0000 C   0  0  0  0  0  0  0  0  0  0  0  0
    0.8250    0.0000    0.0000 C   0  0  0  0  0  0  0  0  0  0  0  0
    0.0000    0.0000    0.0000 C   0  0  0  0  0  0  0  0  0  0  0  0
   -0.4125   -0.7145    0.0000 C   0  0  0  0  0  0  0  0  0  0  0  0
    0.0000   -1.4289    0.0000 O   0  0  0  0  0  0  0  0  0  0  0  0
   -1.2375   -0.7145    0.0000 N   0  0  0  0  0  0  0  0  0  0  0  0
   -1.6500   -1.4289    0.0000 C   0  0  0  0  0  0  0  0  0  0  0  0
   -1.6500   -0.0000    0.0000 C   0  0  0  0  0  0  0  0  0  0  0  0
    1.2375    0.7145    0.0000 O   0  0  0  0  0  0  0  0  0  0  0  0
    2.0625    0.7145    0.0000 P   0  0  0  0  0  0  0  0  0  0  0  0
    2.0625   -0.1105    0.0000 O   0  0  0  0  0  0  0  0  0  0  0  0
    2.8875    0.7145    0.0000 O   0  0  0  0  0  0  0  0  0  0  0  0
    3.3000    1.4289    0.0000 C   0  0  0  0  0  0  0  0  0  0  0  0
    2.0625    1.5395    0.0000 O   0  0  0  0  0  0  0  0  0  0  0  0
    2.7770    1.9520    0.0000 C   0  0  0  0  0  0  0  0  0  0  0  0
  1  2  1  0  0  0  0
  2  3  2  0  0  0  0
  3  4  1  4  0  0  0
  4  5  2  0  0  0  0
  4  6  1  0  0  0  0
  6  7  1  0  0  0  0
  6  8  1  0  0  0  0
  2  9  1  0  0  0  0
  9 10  1  0  0  0  0
 10 11  2  0  0  0  0
 10 12  1  0  0  0  0
 12 13  1  0  0  0  0
 10 14  1  0  0  0  0
 14 15  1  0  0  0  0
M  END
> <ChemID>
100770

> <CAS>
141-66-2

> <Original_SMILES>
C/C(=C\C(=O)N(C)C)/OP(=O)(OC)OC

> <preferred_name>
Dicrotophos

> <dsstox_substance_id>
DTXSID9023914

> <dsstox_compound_id>
DTXCID003914

> <qc_level>
DSSTox_Low

> <Canonical_QSARr>
CC(=CC(=O)N(C)C)OP(=O)(OC)OC

> <InChI_Code_QSARr>
InChI=1S/C8H16NO5P/c1-7(6-8(10)9(2)3)14-15(11,12-4)13-5/h6H,1-5H3

> <InChI Key_QSARr>
VEENJGZXVHKXNB-UHFFFAOYSA-N

> <Salt_Solvent>


> <Salt_Solvent_ID>
0

> <MPID>
102512

> <HL Reference>
USDA PESTICIDE PROPERTIES DATABASE

> <HL Temperature>
25

> <LogHL>
-10.298432014944092

> <Tr_1_Tst_0>
1

$$$$
100771
  Mrv171c012241914302D          

  6  5  0  0  0  0            999 V2000
    1.8927    0.4153    0.0000 C   0  0  0  0  0  0  0  0  0  0  0  0
    1.4802   -0.2991    0.0000 C   0  0  0  0  0  0  0  0  0  0  0  0
    1.8927   -1.0136    0.0000 O   0  0  0  0  0  0  0  0  0  0  0  0
    1.4802   -1.7281    0.0000 C   0  0  0  0  0  0  0  0  0  0  0  0
    1.8927   -2.4425    0.0000 C   0  0  0  0  0  0  0  0  0  0  0  0
    0.6552   -0.2991    0.0000 O   0  0  0  0  0  0  0  0  0  0  0  0
  1  2  1  0  0  0  0
  2  3  1  0  0  0  0
  3  4  1  0  0  0  0
  4  5  1  0  0  0  0
  2  6  2  0  0  0  0
M  END
> <ChemID>
100771

> <CAS>
141-78-6

> <Original_SMILES>
CCOC(C)=O

> <preferred_name>
Ethyl acetate

> <dsstox_substance_id>
DTXSID1022001

> <dsstox_compound_id>
DTXCID602001

> <qc_level>
DSSTox_Low

> <Canonical_QSARr>
CCOC(C)=O

> <InChI_Code_QSARr>
InChI=1S/C4H8O2/c1-3-6-4(2)5/h3H2,1-2H3

> <InChI Key_QSARr>
XEKOWRVHYACXOJ-UHFFFAOYSA-N

> <Salt_Solvent>


> <Salt_Solvent_ID>
0

> <MPID>
102513

> <HL Reference>
BUTLER,JAV & RAMCHANDANI,CN (1935)

> <HL Temperature>
25

> <LogHL>
-3.872895201635191

> <Tr_1_Tst_0>
1

$$$$
100776
  Mrv171c012241914302D          

  5  4  0  0  0  0            999 V2000
    2.5848   -1.1044    0.0000 Cl  0  0  0  0  0  0  0  0  0  0  0  0
    2.1723   -0.3899    0.0000 C   0  0  0  0  0  0  0  0  0  0  0  0
    1.3473   -0.3899    0.0000 C   0  0  0  0  0  0  0  0  0  0  0  0
    0.9348    0.3245    0.0000 C   0  0  0  0  0  0  0  0  0  0  0  0
    0.1098    0.3245    0.0000 Cl  0  0  0  0  0  0  0  0  0  0  0  0
  1  2  1  0  0  0  0
  2  3  1  0  0  0  0
  3  4  1  0  0  0  0
  4  5  1  0  0  0  0
M  END
> <ChemID>
100776

> <CAS>
142-28-9

> <Original_SMILES>
ClCCCCl

> <preferred_name>
1,3-Dichloropropane

> <dsstox_substance_id>
DTXSID6022004

> <dsstox_compound_id>
DTXCID802004

> <qc_level>
DSSTox_Low

> <Canonical_QSARr>
ClCCCCl

> <InChI_Code_QSARr>
InChI=1S/C3H6Cl2/c4-2-1-3-5/h1-3H2

> <InChI Key_QSARr>
YHRUOJUYPBUZOS-UHFFFAOYSA-N

> <Salt_Solvent>


> <Salt_Solvent_ID>
0

> <MPID>
102514

> <HL Reference>
LEIGHTON,DTJR & CALO,JM (1981)

> <HL Temperature>
25

> <LogHL>
-3.010550182333307

> <Tr_1_Tst_0>
0

$$$$
100778
  Mrv171c012241914302D          

  8  7  0  0  0  0            999 V2000
   -0.0022   -0.6195    0.0000 C   0  0  0  0  0  0  0  0  0  0  0  0
    0.7122   -1.0320    0.0000 C   0  0  0  0  0  0  0  0  0  0  0  0
    1.4267   -0.6195    0.0000 C   0  0  0  0  0  0  0  0  0  0  0  0
    2.1412   -1.0320    0.0000 C   0  0  0  0  0  0  0  0  0  0  0  0
    2.8556   -0.6195    0.0000 C   0  0  0  0  0  0  0  0  0  0  0  0
    3.5701   -1.0320    0.0000 C   0  0  0  0  0  0  0  0  0  0  0  0
    4.2846   -0.6195    0.0000 O   0  0  0  0  0  0  0  0  0  0  0  0
    3.5701   -1.8570    0.0000 O   0  0  0  0  0  0  0  0  0  0  0  0
  1  2  1  0  0  0  0
  2  3  1  0  0  0  0
  3  4  1  0  0  0  0
  4  5  1  0  0  0  0
  5  6  1  0  0  0  0
  6  7  2  0  0  0  0
  6  8  1  0  0  0  0
M  END
> <ChemID>
100778

> <CAS>
142-62-1

> <Original_SMILES>
CCCCCC(O)=O

> <preferred_name>
Hexanoic acid

> <dsstox_substance_id>
DTXSID7021607

> <dsstox_compound_id>
DTXCID101607

> <qc_level>
DSSTox_Low

> <Canonical_QSARr>
CCCCCC(O)=O

> <InChI_Code_QSARr>
InChI=1S/C6H12O2/c1-2-3-4-5-6(7)8/h2-5H2,1H3,(H,7,8)

> <InChI Key_QSARr>
FUZZWVXGSFPDMH-UHFFFAOYSA-N

> <Salt_Solvent>


> <Salt_Solvent_ID>
0

> <MPID>
102515

> <HL Reference>
KHAN,I & BRIMBLECOMBE,P (1992)

> <HL Temperature>
25

> <LogHL>
-6.120330794367929

> <Tr_1_Tst_0>
1

$$$$
100779
  Mrv171c012241914302D          

  6  6  0  0  0  0            999 V2000
    1.4289    0.8250    0.0000 C   0  0  0  0  0  0  0  0  0  0  0  0
    0.7145    1.2375    0.0000 C   0  0  0  0  0  0  0  0  0  0  0  0
   -0.0000    0.8250    0.0000 C   0  0  0  0  0  0  0  0  0  0  0  0
   -0.0000    0.0000    0.0000 O   0  0  0  0  0  0  0  0  0  0  0  0
    0.7145   -0.4125    0.0000 C   0  0  0  0  0  0  0  0  0  0  0  0
    1.4289   -0.0000    0.0000 C   0  0  0  0  0  0  0  0  0  0  0  0
  2  1  1  0  0  0  0
  3  2  1  0  0  0  0
  4  3  1  0  0  0  0
  5  4  1  0  0  0  0
  6  5  1  0  0  0  0
  1  6  1  0  0  0  0
M  END
> <ChemID>
100779

> <CAS>
142-68-7

> <Original_SMILES>
C1CCCCO1

> <preferred_name>
Tetrahydropyran

> <dsstox_substance_id>
DTXSID3059719

> <dsstox_compound_id>
DTXCID3034612

> <qc_level>
Public_High

> <Canonical_QSARr>
C1CCCCO1

> <InChI_Code_QSARr>
InChI=1S/C5H10O/c1-2-4-6-5-3-1/h1-5H2

> <InChI Key_QSARr>
DHXVGJBLRPWPCS-UHFFFAOYSA-N

> <Salt_Solvent>


> <Salt_Solvent_ID>
0

> <MPID>
102516

> <HL Reference>
CABANI,S ET AL. (1971A)

> <HL Temperature>
25

> <LogHL>
-3.9030899869919415

> <Tr_1_Tst_0>
1

$$$$
100781
  Mrv171c012241914302D          

  7  6  0  0  0  0            999 V2000
    2.4750    1.4289    0.0000 C   0  0  0  0  0  0  0  0  0  0  0  0
    2.0625    0.7145    0.0000 C   0  0  0  0  0  0  0  0  0  0  0  0
    1.2375    0.7145    0.0000 C   0  0  0  0  0  0  0  0  0  0  0  0
    0.8250    0.0000    0.0000 C   0  0  0  0  0  0  0  0  0  0  0  0
    0.0000    0.0000    0.0000 C   0  0  0  0  0  0  0  0  0  0  0  0
   -0.4125   -0.7145    0.0000 C   0  0  0  0  0  0  0  0  0  0  0  0
    0.0000   -1.4289    0.0000 O   0  0  0  0  0  0  0  0  0  0  0  0
  2  1  1  4  0  0  0
  2  3  2  0  0  0  0
  4  3  1  4  0  0  0
  4  5  2  0  0  0  0
  5  6  1  0  0  0  0
  6  7  2  0  0  0  0
M  END
> <ChemID>
100781

> <CAS>
142-83-6

> <Original_SMILES>
C/C=C/C=C/C=O

> <preferred_name>
(2E,4E)-2,4-Hexadienal

> <dsstox_substance_id>
DTXSID2025391

> <dsstox_compound_id>
DTXCID205391

> <qc_level>
DSSTox_High

> <Canonical_QSARr>
CC=CC=CC=O

> <InChI_Code_QSARr>
InChI=1S/C6H8O/c1-2-3-4-5-6-7/h2-6H,1H3

> <InChI Key_QSARr>
BATOPAZDIZEVQF-UHFFFAOYSA-N

> <Salt_Solvent>


> <Salt_Solvent_ID>
0

> <MPID>
102517

> <HL Reference>
BUTTERY,RG ET AL. (1971)

> <HL Temperature>
25

> <LogHL>
-5.009661145212377

> <Tr_1_Tst_0>
1

$$$$
100782
  Mrv171c012241914302D          

  7  6  0  0  0  0            999 V2000
    2.1415   -0.4707    0.0000 N   0  0  0  0  0  0  0  0  0  0  0  0
    1.4271   -0.0582    0.0000 C   0  0  0  0  0  0  0  0  0  0  0  0
    0.7126   -0.4707    0.0000 C   0  0  0  0  0  0  0  0  0  0  0  0
   -0.0019   -0.0582    0.0000 C   0  0  0  0  0  0  0  0  0  0  0  0
    2.8560   -0.0582    0.0000 C   0  0  0  0  0  0  0  0  0  0  0  0
    3.5705   -0.4707    0.0000 C   0  0  0  0  0  0  0  0  0  0  0  0
    4.2850   -0.0582    0.0000 C   0  0  0  0  0  0  0  0  0  0  0  0
  1  2  1  0  0  0  0
  2  3  1  0  0  0  0
  3  4  1  0  0  0  0
  1  5  1  0  0  0  0
  5  6  1  0  0  0  0
  6  7  1  0  0  0  0
M  END
> <ChemID>
100782

> <CAS>
142-84-7

> <Original_SMILES>
CCCNCCC

> <preferred_name>
Dipropylamine

> <dsstox_substance_id>
DTXSID2025185

> <dsstox_compound_id>
DTXCID105185

> <qc_level>
DSSTox_Low

> <Canonical_QSARr>
CCCNCCC

> <InChI_Code_QSARr>
InChI=1S/C6H15N/c1-3-5-7-6-4-2/h7H,3-6H2,1-2H3

> <InChI Key_QSARr>
WEHWNAOGRSTTBQ-UHFFFAOYSA-N

> <Salt_Solvent>


> <Salt_Solvent_ID>
0

> <MPID>
102518

> <HL Reference>
CHRISTIE,AO & CRISP,DJ (1967)

> <HL Temperature>
25

> <LogHL>
-4.292429823902063

> <Tr_1_Tst_0>
1

$$$$
100783
  Mrv171c012241914302D          

 10  9  0  0  0  0            999 V2000
    0.1449   -0.7449    0.0000 C   0  0  0  0  0  0  0  0  0  0  0  0
    0.8594   -1.1574    0.0000 C   0  0  0  0  0  0  0  0  0  0  0  0
    1.5738   -0.7449    0.0000 O   0  0  0  0  0  0  0  0  0  0  0  0
    2.2883   -1.1574    0.0000 C   0  0  0  0  0  0  0  0  0  0  0  0
    3.0028   -0.7449    0.0000 C   0  0  0  0  0  0  0  0  0  0  0  0
    3.7172   -1.1574    0.0000 C   0  0  0  0  0  0  0  0  0  0  0  0
    4.4317   -0.7449    0.0000 C   0  0  0  0  0  0  0  0  0  0  0  0
    5.1462   -1.1574    0.0000 C   0  0  0  0  0  0  0  0  0  0  0  0
    5.8607   -0.7449    0.0000 C   0  0  0  0  0  0  0  0  0  0  0  0
    0.8594   -1.9824    0.0000 O   0  0  0  0  0  0  0  0  0  0  0  0
  1  2  1  0  0  0  0
  2  3  1  0  0  0  0
  3  4  1  0  0  0  0
  4  5  1  0  0  0  0
  5  6  1  0  0  0  0
  6  7  1  0  0  0  0
  7  8  1  0  0  0  0
  8  9  1  0  0  0  0
  2 10  2  0  0  0  0
M  END
> <ChemID>
100783

> <CAS>
142-92-7

> <Original_SMILES>
CCCCCCOC(C)=O

> <preferred_name>
Hexyl acetate

> <dsstox_substance_id>
DTXSID6022006

> <dsstox_compound_id>
DTXCID602006

> <qc_level>
DSSTox_Low

> <Canonical_QSARr>
CCCCCCOC(C)=O

> <InChI_Code_QSARr>
InChI=1S/C8H16O2/c1-3-4-5-6-7-10-8(2)9/h3-7H2,1-2H3

> <InChI Key_QSARr>
AOGQPLXWSUTHQB-UHFFFAOYSA-N

> <Salt_Solvent>


> <Salt_Solvent_ID>
0

> <MPID>
102519

> <HL Reference>
BETTERTON,EA (1992)

> <HL Temperature>
25

> <LogHL>
-3.275724130399212

> <Tr_1_Tst_0>
1

$$$$
100784
  Mrv171c012241914302D          

  9  8  0  0  0  0            999 V2000
    0.0017   -0.0454    0.0000 C   0  0  0  0  0  0  0  0  0  0  0  0
    0.7161   -0.4579    0.0000 C   0  0  0  0  0  0  0  0  0  0  0  0
    1.4306   -0.0454    0.0000 C   0  0  0  0  0  0  0  0  0  0  0  0
    2.1451   -0.4579    0.0000 C   0  0  0  0  0  0  0  0  0  0  0  0
    2.8595   -0.0454    0.0000 O   0  0  0  0  0  0  0  0  0  0  0  0
    3.5740   -0.4579    0.0000 C   0  0  0  0  0  0  0  0  0  0  0  0
    4.2885   -0.0454    0.0000 C   0  0  0  0  0  0  0  0  0  0  0  0
    5.0030   -0.4579    0.0000 C   0  0  0  0  0  0  0  0  0  0  0  0
    5.7174   -0.0454    0.0000 C   0  0  0  0  0  0  0  0  0  0  0  0
  1  2  1  0  0  0  0
  2  3  1  0  0  0  0
  3  4  1  0  0  0  0
  4  5  1  0  0  0  0
  5  6  1  0  0  0  0
  6  7  1  0  0  0  0
  7  8  1  0  0  0  0
  8  9  1  0  0  0  0
M  END
> <ChemID>
100784

> <CAS>
142-96-1

> <Original_SMILES>
CCCCOCCCC

> <preferred_name>
Butyl ether

> <dsstox_substance_id>
DTXSID1022007

> <dsstox_compound_id>
DTXCID002007

> <qc_level>
DSSTox_Low

> <Canonical_QSARr>
CCCCOCCCC

> <InChI_Code_QSARr>
InChI=1S/C8H18O/c1-3-5-7-9-8-6-4-2/h3-8H2,1-2H3

> <InChI Key_QSARr>
DURPTKYDGMDSBL-UHFFFAOYSA-N

> <Salt_Solvent>


> <Salt_Solvent_ID>
0

> <MPID>
102520

> <HL Reference>
HINE,J & MOOKERJEE,PK (1975)

> <HL Temperature>
25

> <LogHL>
-2.2218487496163553

> <Tr_1_Tst_0>
0

$$$$
100788
  Mrv171c012241914302D          

  5  4  0  0  0  0            999 V2000
    1.1375   -1.1095    0.0000 C   0  0  0  0  0  0  0  0  0  0  0  0
    1.5500   -0.3950    0.0000 C   0  0  0  0  0  0  0  0  0  0  0  0
    1.1375    0.3194    0.0000 F   0  0  0  0  0  0  0  0  0  0  0  0
    1.5500   -1.8240    0.0000 O   0  0  0  0  0  0  0  0  0  0  0  0
    0.3125   -1.1095    0.0000 O   0  0  0  0  0  0  0  0  0  0  0  0
  1  2  1  0  0  0  0
  2  3  1  0  0  0  0
  1  4  1  0  0  0  0
  1  5  2  0  0  0  0
M  END
> <ChemID>
100788

> <CAS>
144-49-0

> <Original_SMILES>
OC(=O)CF

> <preferred_name>
Fluoroacetic acid

> <dsstox_substance_id>
DTXSID0041981

> <dsstox_compound_id>
DTXCID8021981

> <qc_level>
DSSTox_Low

> <Canonical_QSARr>
OC(=O)CF

> <InChI_Code_QSARr>
InChI=1S/C2H3FO2/c3-1-2(4)5/h1H2,(H,4,5)

> <InChI Key_QSARr>
QEWYKACRFQMRMB-UHFFFAOYSA-N

> <Salt_Solvent>


> <Salt_Solvent_ID>
0

> <MPID>
102521

> <HL Reference>
BOWDEN,DJ ET AL. (1998A)

> <HL Temperature>
25

> <LogHL>
-7.9065783148377555

> <Tr_1_Tst_0>
0

$$$$
100789
  Mrv171c012241914302D          

  6  5  0  0  0  0            999 V2000
    0.8241   -1.4283    0.0000 C   0  0  0  0  0  0  0  0  0  0  0  0
    1.2366   -0.7138    0.0000 C   0  0  0  0  0  0  0  0  0  0  0  0
    0.8241    0.0007    0.0000 O   0  0  0  0  0  0  0  0  0  0  0  0
    2.0616   -0.7138    0.0000 O   0  0  0  0  0  0  0  0  0  0  0  0
    1.2366   -2.1427    0.0000 O   0  0  0  0  0  0  0  0  0  0  0  0
   -0.0009   -1.4283    0.0000 O   0  0  0  0  0  0  0  0  0  0  0  0
  1  2  1  0  0  0  0
  2  3  1  0  0  0  0
  2  4  2  0  0  0  0
  1  5  1  0  0  0  0
  1  6  2  0  0  0  0
M  END
> <ChemID>
100789

> <CAS>
144-62-7

> <Original_SMILES>
OC(=O)C(O)=O

> <preferred_name>
Oxalic acid

> <dsstox_substance_id>
DTXSID0025816

> <dsstox_compound_id>
DTXCID805816

> <qc_level>
DSSTox_High

> <Canonical_QSARr>
OC(=O)C(O)=O

> <InChI_Code_QSARr>
InChI=1S/C2H2O4/c3-1(4)2(5)6/h(H,3,4)(H,5,6)

> <InChI Key_QSARr>
MUBZPKHOEPUJKR-UHFFFAOYSA-N

> <Salt_Solvent>


> <Salt_Solvent_ID>
0

> <MPID>
102522

> <HL Reference>
GAFFNEY,JS ET AL. (1987)

> <HL Temperature>
25

> <LogHL>
-9.84466396253492

> <Tr_1_Tst_0>
1

$$$$
100794
  Mrv171c012241914302D          

  9  9  0  0  0  0            999 V2000
    0.7139   -2.2010    0.0000 O   0  0  0  0  0  0  0  0  0  0  0  0
    1.4284   -1.7885    0.0000 C   0  0  0  0  0  0  0  0  0  0  0  0
    2.1429   -2.2010    0.0000 C   0  0  0  0  0  0  0  0  0  0  0  0
    2.8573   -1.7885    0.0000 C   0  0  0  0  0  0  0  0  0  0  0  0
    2.8573   -0.9635    0.0000 C   0  0  0  0  0  0  0  0  0  0  0  0
    2.1429   -0.5510    0.0000 C   0  0  0  0  0  0  0  0  0  0  0  0
    2.1429    0.2740    0.0000 O   0  0  0  0  0  0  0  0  0  0  0  0
    1.4284    0.6865    0.0000 C   0  0  0  0  0  0  0  0  0  0  0  0
    1.4284   -0.9635    0.0000 C   0  0  0  0  0  0  0  0  0  0  0  0
  1  2  1  0  0  0  0
  3  2  1  0  0  0  0
  4  3  2  0  0  0  0
  5  4  1  0  0  0  0
  6  5  2  0  0  0  0
  6  7  1  0  0  0  0
  7  8  1  0  0  0  0
  9  6  1  0  0  0  0
  2  9  2  0  0  0  0
M  END
> <ChemID>
100794

> <CAS>
150-19-6

> <Original_SMILES>
COc1cccc(O)c1

> <preferred_name>
3-Methoxyphenol

> <dsstox_substance_id>
DTXSID0022012

> <dsstox_compound_id>
DTXCID302012

> <qc_level>
DSSTox_Low

> <Canonical_QSARr>
COC1C=C(O)C=CC=1

> <InChI_Code_QSARr>
InChI=1S/C7H8O2/c1-9-7-4-2-3-6(8)5-7/h2-5,8H,1H3

> <InChI Key_QSARr>
ASHGTJPOSUFTGB-UHFFFAOYSA-N

> <Salt_Solvent>


> <Salt_Solvent_ID>
0

> <MPID>
102523

> <HL Reference>
ABRAHAM,MH ET AL. (1994)

> <HL Temperature>
25

> <LogHL>
-7.236572006437065

> <Tr_1_Tst_0>
1

$$$$
100798
  Mrv171c012241914302D          

  4  3  0  0  0  0            999 V2000
    1.2375    0.7145    0.0000 Cl  0  0  0  0  0  0  0  0  0  0  0  0
    0.8250    0.0000    0.0000 C   0  0  0  0  0  0  0  0  0  0  0  0
    0.0000    0.0000    0.0000 C   0  0  0  0  0  0  0  0  0  0  0  0
   -0.4125   -0.7145    0.0000 Cl  0  0  0  0  0  0  0  0  0  0  0  0
  2  1  1  4  0  0  0
  2  3  2  0  0  0  0
  3  4  1  0  0  0  0
M  END
> <ChemID>
100798

> <CAS>
156-59-2|156-60-5|540-59-0

> <Original_SMILES>
Cl/C=C\Cl

> <preferred_name>
(Z)-1,2-Dichloroethylene|(E)-1,2-Dichloroethylene|(Z,E)-1,2-Dichloroethylene

> <dsstox_substance_id>
DTXSID2024030|DTXSID7024031|DTXSID8024991

> <dsstox_compound_id>
DTXCID304030|DTXCID704031|DTXCID304991

> <qc_level>
DSSTox_Low

> <Canonical_QSARr>
ClC=CCl

> <InChI_Code_QSARr>
InChI=1S/C2H2Cl2/c3-1-2-4/h1-2H

> <InChI Key_QSARr>
KFUSEUYYWQURPO-UHFFFAOYSA-N

> <Salt_Solvent>


> <Salt_Solvent_ID>
0

> <MPID>
102525|102526|102570

> <HL Reference>
GOSSETT,JM (1987)

> <HL Temperature>
24|25

> <LogHL>
-2.2444365694873887

> <Tr_1_Tst_0>
1

$$$$
100800
  Mrv171c012241914302D          

 22 27  0  0  0  0            999 V2000
    1.6117   -2.4741    0.0000 C   0  0  0  0  0  0  0  0  0  0  0  0
    0.8972   -2.8866    0.0000 C   0  0  0  0  0  0  0  0  0  0  0  0
    0.8972   -3.7116    0.0000 C   0  0  0  0  0  0  0  0  0  0  0  0
    1.6117   -4.1241    0.0000 C   0  0  0  0  0  0  0  0  0  0  0  0
    2.3262   -3.7116    0.0000 C   0  0  0  0  0  0  0  0  0  0  0  0
    3.0406   -4.1241    0.0000 C   0  0  0  0  0  0  0  0  0  0  0  0
    3.7551   -3.7116    0.0000 C   0  0  0  0  0  0  0  0  0  0  0  0
    3.7551   -2.8866    0.0000 C   0  0  0  0  0  0  0  0  0  0  0  0
    4.4696   -2.4741    0.0000 C   0  0  0  0  0  0  0  0  0  0  0  0
    4.4696   -1.6491    0.0000 C   0  0  0  0  0  0  0  0  0  0  0  0
    3.7551   -1.2366    0.0000 C   0  0  0  0  0  0  0  0  0  0  0  0
    3.0406   -1.6491    0.0000 C   0  0  0  0  0  0  0  0  0  0  0  0
    2.3262   -1.2366    0.0000 C   0  0  0  0  0  0  0  0  0  0  0  0
    2.3262   -0.4116    0.0000 C   0  0  0  0  0  0  0  0  0  0  0  0
    1.6117    0.0009    0.0000 C   0  0  0  0  0  0  0  0  0  0  0  0
    0.8972   -0.4116    0.0000 C   0  0  0  0  0  0  0  0  0  0  0  0
    0.8972   -1.2366    0.0000 C   0  0  0  0  0  0  0  0  0  0  0  0
    0.1828   -1.6491    0.0000 C   0  0  0  0  0  0  0  0  0  0  0  0
    0.1828   -2.4741    0.0000 C   0  0  0  0  0  0  0  0  0  0  0  0
    1.6117   -1.6491    0.0000 C   0  0  0  0  0  0  0  0  0  0  0  0
    3.0406   -2.4741    0.0000 C   0  0  0  0  0  0  0  0  0  0  0  0
    2.3262   -2.8866    0.0000 C   0  0  0  0  0  0  0  0  0  0  0  0
  2  1  2  0  0  0  0
  2  3  1  0  0  0  0
  3  4  2  0  0  0  0
  4  5  1  0  0  0  0
  5  6  1  0  0  0  0
  6  7  2  0  0  0  0
  7  8  1  0  0  0  0
  9  8  1  0  0  0  0
 10  9  2  0  0  0  0
 11 10  1  0  0  0  0
 12 11  2  0  0  0  0
 12 13  1  0  0  0  0
 14 13  1  0  0  0  0
 15 14  2  0  0  0  0
 16 15  1  0  0  0  0
 17 16  2  0  0  0  0
 17 18  1  0  0  0  0
 18 19  2  0  0  0  0
 19  2  1  0  0  0  0
 20 17  1  0  0  0  0
 13 20  2  0  0  0  0
 20  1  1  0  0  0  0
 21 12  1  0  0  0  0
  8 21  2  0  0  0  0
 21 22  1  0  0  0  0
  1 22  1  0  0  0  0
 22  5  2  0  0  0  0
M  END
> <ChemID>
100800

> <CAS>
191-24-2

> <Original_SMILES>
c1cc2ccc3cccc4c3c2c2c3c4cccc3ccc21

> <preferred_name>
Benzo(g,h,i)perylene

> <dsstox_substance_id>
DTXSID5023908

> <dsstox_compound_id>
DTXCID303908

> <qc_level>
DSSTox_Low

> <Canonical_QSARr>
C1=CC=C2C=CC3C=CC4C=CC5C=CC=C6C=5C=4C=3C2=C61

> <InChI_Code_QSARr>
InChI=1S/C22H12/c1-3-13-7-9-15-11-12-16-10-8-14-4-2-6-18-17(5-1)19(13)21(15)22(16)20(14)18/h1-12H

> <InChI Key_QSARr>
GYFAGKUZYNFMBN-UHFFFAOYSA-N

> <Salt_Solvent>


> <Salt_Solvent_ID>
0

> <MPID>
102527

> <HL Reference>
TEN HULSCHER,TEM ET AL. (1992)

> <HL Temperature>
25

> <LogHL>
-6.48017200622426

> <Tr_1_Tst_0>
1

$$$$
100802
  Mrv171c012241914302D          

 22 27  0  0  0  0            999 V2000
    3.3875   -1.5481    0.0000 C   0  0  0  0  0  0  0  0  0  0  0  0
    4.0067   -1.0028    0.0000 C   0  0  0  0  0  0  0  0  0  0  0  0
    3.8441   -0.1940    0.0000 C   0  0  0  0  0  0  0  0  0  0  0  0
    3.0623    0.0696    0.0000 C   0  0  0  0  0  0  0  0  0  0  0  0
    2.4432   -0.4757    0.0000 C   0  0  0  0  0  0  0  0  0  0  0  0
    1.6614   -0.2121    0.0000 C   0  0  0  0  0  0  0  0  0  0  0  0
    1.0423   -0.7573    0.0000 C   0  0  0  0  0  0  0  0  0  0  0  0
    1.2049   -1.5662    0.0000 C   0  0  0  0  0  0  0  0  0  0  0  0
    0.5857   -2.1114    0.0000 C   0  0  0  0  0  0  0  0  0  0  0  0
    0.7484   -2.9202    0.0000 C   0  0  0  0  0  0  0  0  0  0  0  0
    1.5301   -3.1838    0.0000 C   0  0  0  0  0  0  0  0  0  0  0  0
    2.1493   -2.6385    0.0000 C   0  0  0  0  0  0  0  0  0  0  0  0
    2.9310   -2.9021    0.0000 C   0  0  0  0  0  0  0  0  0  0  0  0
    3.5502   -2.3569    0.0000 C   0  0  0  0  0  0  0  0  0  0  0  0
    4.3696   -2.4522    0.0000 C   0  0  0  0  0  0  0  0  0  0  0  0
    4.7135   -1.7022    0.0000 C   0  0  0  0  0  0  0  0  0  0  0  0
    5.5349   -1.6250    0.0000 C   0  0  0  0  0  0  0  0  0  0  0  0
    6.0124   -2.2978    0.0000 C   0  0  0  0  0  0  0  0  0  0  0  0
    5.6686   -3.0477    0.0000 C   0  0  0  0  0  0  0  0  0  0  0  0
    4.8472   -3.1249    0.0000 C   0  0  0  0  0  0  0  0  0  0  0  0
    1.9866   -1.8297    0.0000 C   0  0  0  0  0  0  0  0  0  0  0  0
    2.6058   -1.2845    0.0000 C   0  0  0  0  0  0  0  0  0  0  0  0
  2  1  2  0  0  0  0
  2  3  1  0  0  0  0
  3  4  2  0  0  0  0
  4  5  1  0  0  0  0
  5  6  1  0  0  0  0
  6  7  2  0  0  0  0
  7  8  1  0  0  0  0
  9  8  2  0  0  0  0
 10  9  1  0  0  0  0
 11 10  2  0  0  0  0
 12 11  1  0  0  0  0
 12 13  1  0  0  0  0
 13 14  2  0  0  0  0
 14  1  1  0  0  0  0
 14 15  1  0  0  0  0
 16 15  2  0  0  0  0
 16  2  1  0  0  0  0
 17 16  1  0  0  0  0
 18 17  2  0  0  0  0
 19 18  1  0  0  0  0
 20 19  2  0  0  0  0
 15 20  1  0  0  0  0
 21 12  2  0  0  0  0
  8 21  1  0  0  0  0
 21 22  1  0  0  0  0
  1 22  1  0  0  0  0
 22  5  2  0  0  0  0
M  END
> <ChemID>
100802

> <CAS>
193-39-5

> <Original_SMILES>
c1c2c3c4c5c1cccc5ccc4ccc3-c1ccccc1-2

> <preferred_name>
Indeno(1,2,3-cd)pyrene

> <dsstox_substance_id>
DTXSID8024153

> <dsstox_compound_id>
DTXCID304153

> <qc_level>
DSSTox_Low

> <Canonical_QSARr>
C1=C2C3C4C5C(C=CC=4C=CC=3C3C=CC=CC=32)=CC=CC=51

> <InChI_Code_QSARr>
InChI=1S/C22H12/c1-2-7-17-16(6-1)18-11-10-14-9-8-13-4-3-5-15-12-19(17)22(18)21(14)20(13)15/h1-12H

> <InChI Key_QSARr>
SXQBHARYMNFBPS-UHFFFAOYSA-N

> <Salt_Solvent>


> <Salt_Solvent_ID>
0

> <MPID>
102528

> <HL Reference>
TEN HULSCHER,TEM ET AL. (1992)

> <HL Temperature>
25

> <LogHL>
-6.458420756053402

> <Tr_1_Tst_0>
1

$$$$
100804
  Mrv171c012241914302D          

 20 24  0  0  0  0            999 V2000
    2.8036   -0.7938    0.0000 C   0  0  0  0  0  0  0  0  0  0  0  0
    3.5135   -0.3735    0.0000 C   0  0  0  0  0  0  0  0  0  0  0  0
    3.5044    0.4515    0.0000 C   0  0  0  0  0  0  0  0  0  0  0  0
    2.7855    0.8561    0.0000 C   0  0  0  0  0  0  0  0  0  0  0  0
    2.0756    0.4357    0.0000 C   0  0  0  0  0  0  0  0  0  0  0  0
    2.0847   -0.3892    0.0000 C   0  0  0  0  0  0  0  0  0  0  0  0
    1.4777   -0.9480    0.0000 C   0  0  0  0  0  0  0  0  0  0  0  0
    0.6563   -0.8708    0.0000 C   0  0  0  0  0  0  0  0  0  0  0  0
    0.1788   -1.5435    0.0000 C   0  0  0  0  0  0  0  0  0  0  0  0
    0.5226   -2.2935    0.0000 C   0  0  0  0  0  0  0  0  0  0  0  0
    1.3440   -2.3707    0.0000 C   0  0  0  0  0  0  0  0  0  0  0  0
    1.8215   -1.6979    0.0000 C   0  0  0  0  0  0  0  0  0  0  0  0
    2.6410   -1.6026    0.0000 C   0  0  0  0  0  0  0  0  0  0  0  0
    3.2602   -2.1479    0.0000 C   0  0  0  0  0  0  0  0  0  0  0  0
    4.0419   -1.8843    0.0000 C   0  0  0  0  0  0  0  0  0  0  0  0
    4.6611   -2.4295    0.0000 C   0  0  0  0  0  0  0  0  0  0  0  0
    5.4428   -2.1660    0.0000 C   0  0  0  0  0  0  0  0  0  0  0  0
    5.6055   -1.3572    0.0000 C   0  0  0  0  0  0  0  0  0  0  0  0
    4.9863   -0.8119    0.0000 C   0  0  0  0  0  0  0  0  0  0  0  0
    4.2046   -1.0755    0.0000 C   0  0  0  0  0  0  0  0  0  0  0  0
  2  1  2  0  0  0  0
  2  3  1  0  0  0  0
  3  4  2  0  0  0  0
  4  5  1  0  0  0  0
  5  6  2  0  0  0  0
  6  1  1  0  0  0  0
  6  7  1  0  0  0  0
  8  7  1  0  0  0  0
  9  8  2  0  0  0  0
 10  9  1  0  0  0  0
 11 10  2  0  0  0  0
 12 11  1  0  0  0  0
  7 12  2  0  0  0  0
 12 13  1  0  0  0  0
  1 13  1  0  0  0  0
 13 14  2  0  0  0  0
 14 15  1  0  0  0  0
 16 15  1  0  0  0  0
 17 16  2  0  0  0  0
 18 17  1  0  0  0  0
 19 18  2  0  0  0  0
 20 19  1  0  0  0  0
 15 20  2  0  0  0  0
 20  2  1  0  0  0  0
M  END
> <ChemID>
100804

> <CAS>
205-99-2

> <Original_SMILES>
c1c2c3c(cccc3-c3ccccc3-2)c2ccccc21

> <preferred_name>
Benzo(b)fluoranthene

> <dsstox_substance_id>
DTXSID0023907

> <dsstox_compound_id>
DTXCID903907

> <qc_level>
DSSTox_Low

> <Canonical_QSARr>
C1=C2C3C(=CC=CC=3C3C=CC=CC=31)C1C=CC=CC=12

> <InChI_Code_QSARr>
InChI=1S/C20H12/c1-2-7-14-13(6-1)12-19-16-9-4-3-8-15(16)18-11-5-10-17(14)20(18)19/h1-12H

> <InChI Key_QSARr>
FTOVXSOBNPWTSH-UHFFFAOYSA-N

> <Salt_Solvent>


> <Salt_Solvent_ID>
0

> <MPID>
102529

> <HL Reference>
TEN HULSCHER,TEM ET AL. (1992)

> <HL Temperature>
25

> <LogHL>
-6.182434630440218

> <Tr_1_Tst_0>
1

$$$$
100805
  Mrv171c012241914302D          

 16 19  0  0  0  0            999 V2000
    1.7518   -1.4991    0.0000 C   0  0  0  0  0  0  0  0  0  0  0  0
    2.0068   -2.2837    0.0000 C   0  0  0  0  0  0  0  0  0  0  0  0
    2.8318   -2.2837    0.0000 C   0  0  0  0  0  0  0  0  0  0  0  0
    3.0867   -1.4991    0.0000 C   0  0  0  0  0  0  0  0  0  0  0  0
    2.4193   -1.0142    0.0000 C   0  0  0  0  0  0  0  0  0  0  0  0
    2.3330   -0.1937    0.0000 C   0  0  0  0  0  0  0  0  0  0  0  0
    1.5794    0.1419    0.0000 C   0  0  0  0  0  0  0  0  0  0  0  0
    0.9119   -0.3430    0.0000 C   0  0  0  0  0  0  0  0  0  0  0  0
    0.9449   -1.3276    0.0000 C   0  0  0  0  0  0  0  0  0  0  0  0
    0.3928   -1.9407    0.0000 C   0  0  0  0  0  0  0  0  0  0  0  0
    0.6478   -2.7253    0.0000 C   0  0  0  0  0  0  0  0  0  0  0  0
    1.4547   -2.8968    0.0000 C   0  0  0  0  0  0  0  0  0  0  0  0
    3.8937   -1.3276    0.0000 C   0  0  0  0  0  0  0  0  0  0  0  0
    4.4457   -1.9407    0.0000 C   0  0  0  0  0  0  0  0  0  0  0  0
    4.1908   -2.7253    0.0000 C   0  0  0  0  0  0  0  0  0  0  0  0
    3.3838   -2.8968    0.0000 C   0  0  0  0  0  0  0  0  0  0  0  0
  2  1  1  0  0  0  0
  2  3  1  0  0  0  0
  4  3  2  0  0  0  0
  4  5  1  0  0  0  0
  5  1  2  0  0  0  0
  5  6  1  0  0  0  0
  6  7  2  0  0  0  0
  7  8  1  0  0  0  0
  8  9  2  0  0  0  0
  1  9  1  0  0  0  0
  9 10  1  0  0  0  0
 10 11  2  0  0  0  0
 11 12  1  0  0  0  0
 12  2  2  0  0  0  0
 13  4  1  0  0  0  0
 14 13  2  0  0  0  0
 15 14  1  0  0  0  0
 16 15  2  0  0  0  0
  3 16  1  0  0  0  0
M  END
> <ChemID>
100805

> <CAS>
206-44-0

> <Original_SMILES>
c1ccc2c3c(cccc31)-c1ccccc1-2

> <preferred_name>
Fluoranthene

> <dsstox_substance_id>
DTXSID3024104

> <dsstox_compound_id>
DTXCID204104

> <qc_level>
DSSTox_Low

> <Canonical_QSARr>
C1=CC=C2C3=C(C=CC=C31)C1C=CC=CC=12

> <InChI_Code_QSARr>
InChI=1S/C16H10/c1-2-8-13-12(7-1)14-9-3-5-11-6-4-10-15(13)16(11)14/h1-10H

> <InChI Key_QSARr>
GVEPBJHOBDJJJI-UHFFFAOYSA-N

> <Salt_Solvent>


> <Salt_Solvent_ID>
0

> <MPID>
102530

> <HL Reference>
TEN HULSCHER,TEM ET AL. (1992)

> <HL Temperature>
25

> <LogHL>
-5.0525662781129554

> <Tr_1_Tst_0>
0

$$$$
100806
  Mrv171c012241914302D          

 20 24  0  0  0  0            999 V2000
    2.2055   -1.1779    0.0000 C   0  0  0  0  0  0  0  0  0  0  0  0
    1.3841   -1.1007    0.0000 C   0  0  0  0  0  0  0  0  0  0  0  0
    0.9066   -1.7735    0.0000 C   0  0  0  0  0  0  0  0  0  0  0  0
    1.2504   -2.5234    0.0000 C   0  0  0  0  0  0  0  0  0  0  0  0
    2.0718   -2.6006    0.0000 C   0  0  0  0  0  0  0  0  0  0  0  0
    2.5493   -1.9278    0.0000 C   0  0  0  0  0  0  0  0  0  0  0  0
    3.3688   -1.8326    0.0000 C   0  0  0  0  0  0  0  0  0  0  0  0
    3.9880   -2.3778    0.0000 C   0  0  0  0  0  0  0  0  0  0  0  0
    4.7697   -2.1142    0.0000 C   0  0  0  0  0  0  0  0  0  0  0  0
    5.3889   -2.6595    0.0000 C   0  0  0  0  0  0  0  0  0  0  0  0
    6.1706   -2.3959    0.0000 C   0  0  0  0  0  0  0  0  0  0  0  0
    6.3332   -1.5871    0.0000 C   0  0  0  0  0  0  0  0  0  0  0  0
    5.7141   -1.0418    0.0000 C   0  0  0  0  0  0  0  0  0  0  0  0
    4.9323   -1.3054    0.0000 C   0  0  0  0  0  0  0  0  0  0  0  0
    4.3132   -0.7602    0.0000 C   0  0  0  0  0  0  0  0  0  0  0  0
    3.5314   -1.0237    0.0000 C   0  0  0  0  0  0  0  0  0  0  0  0
    2.8125   -0.6191    0.0000 C   0  0  0  0  0  0  0  0  0  0  0  0
    2.6320    0.1859    0.0000 C   0  0  0  0  0  0  0  0  0  0  0  0
    1.8447    0.4322    0.0000 C   0  0  0  0  0  0  0  0  0  0  0  0
    1.2377   -0.1266    0.0000 C   0  0  0  0  0  0  0  0  0  0  0  0
  2  1  1  0  0  0  0
  2  3  2  0  0  0  0
  3  4  1  0  0  0  0
  4  5  2  0  0  0  0
  5  6  1  0  0  0  0
  6  1  2  0  0  0  0
  6  7  1  0  0  0  0
  8  7  1  0  0  0  0
  9  8  2  0  0  0  0
  9 10  1  0  0  0  0
 10 11  2  0  0  0  0
 11 12  1  0  0  0  0
 12 13  2  0  0  0  0
 13 14  1  0  0  0  0
 14  9  1  0  0  0  0
 15 14  2  0  0  0  0
 16 15  1  0  0  0  0
  7 16  2  0  0  0  0
 16 17  1  0  0  0  0
  1 17  1  0  0  0  0
 17 18  2  0  0  0  0
 18 19  1  0  0  0  0
 19 20  2  0  0  0  0
 20  2  1  0  0  0  0
M  END
> <ChemID>
100806

> <CAS>
207-08-9

> <Original_SMILES>
c1c2-c3cccc4cccc(c43)-c2cc2ccccc21

> <preferred_name>
Benzo(k)fluoranthene

> <dsstox_substance_id>
DTXSID0023909

> <dsstox_compound_id>
DTXCID703909

> <qc_level>
DSSTox_Low

> <Canonical_QSARr>
C1C2C3C=CC=C4C=CC=C(C4=3)C=2C=C2C=CC=CC2=1

> <InChI_Code_QSARr>
InChI=1S/C20H12/c1-2-6-15-12-19-17-10-4-8-13-7-3-9-16(20(13)17)18(19)11-14(15)5-1/h1-12H

> <InChI Key_QSARr>
HAXBIWFMXWRORI-UHFFFAOYSA-N

> <Salt_Solvent>


> <Salt_Solvent_ID>
0

> <MPID>
102531

> <HL Reference>
TEN HULSCHER,TEM ET AL. (1992)

> <HL Temperature>
25

> <LogHL>
-6.233587152887607

> <Tr_1_Tst_0>
1

$$$$
100807
  Mrv171c012241914302D          

 12 14  0  0  0  0            999 V2000
    1.0219   -0.0469    0.0000 C   0  0  0  0  0  0  0  0  0  0  0  0
    0.7670   -0.8315    0.0000 C   0  0  0  0  0  0  0  0  0  0  0  0
    1.4344   -1.3165    0.0000 C   0  0  0  0  0  0  0  0  0  0  0  0
    1.3482   -2.1369    0.0000 C   0  0  0  0  0  0  0  0  0  0  0  0
    0.5945   -2.4725    0.0000 C   0  0  0  0  0  0  0  0  0  0  0  0
   -0.0729   -1.9876    0.0000 C   0  0  0  0  0  0  0  0  0  0  0  0
    0.0133   -1.1671    0.0000 C   0  0  0  0  0  0  0  0  0  0  0  0
    2.2743   -2.4725    0.0000 C   0  0  0  0  0  0  0  0  0  0  0  0
    2.9418   -1.9876    0.0000 C   0  0  0  0  0  0  0  0  0  0  0  0
    2.8555   -1.1671    0.0000 C   0  0  0  0  0  0  0  0  0  0  0  0
    2.1019   -0.8315    0.0000 C   0  0  0  0  0  0  0  0  0  0  0  0
    1.8469   -0.0469    0.0000 C   0  0  0  0  0  0  0  0  0  0  0  0
  2  1  1  0  0  0  0
  2  3  2  0  0  0  0
  3  4  1  0  0  0  0
  4  5  2  0  0  0  0
  5  6  1  0  0  0  0
  6  7  2  0  0  0  0
  7  2  1  0  0  0  0
  4  8  1  0  0  0  0
  8  9  2  0  0  0  0
  9 10  1  0  0  0  0
 10 11  2  0  0  0  0
 11  3  1  0  0  0  0
 12 11  1  0  0  0  0
  1 12  2  0  0  0  0
M  END
> <ChemID>
100807

> <CAS>
208-96-8

> <Original_SMILES>
c1ccc2C=Cc3cccc1c32

> <preferred_name>
Acenaphthylene

> <dsstox_substance_id>
DTXSID3023845

> <dsstox_compound_id>
DTXCID103845

> <qc_level>
DSSTox_Low

> <Canonical_QSARr>
C1=CC=C2C=CC=C3C=CC1=C32

> <InChI_Code_QSARr>
InChI=1S/C12H8/c1-3-9-4-2-6-11-8-7-10(5-1)12(9)11/h1-8H

> <InChI Key_QSARr>
HXGDTGSAIMULJN-UHFFFAOYSA-N

> <Salt_Solvent>


> <Salt_Solvent_ID>
0

> <MPID>
102532

> <HL Reference>
WARNER,HP ET AL. (1987)

> <HL Temperature>
25

> <LogHL>
-3.9430951486635277

> <Tr_1_Tst_0>
1

$$$$
100809
  Mrv171c012241914302D          

 18 21  0  0  0  0            999 V2000
    2.9488   -1.3848    0.0000 C   0  0  0  0  0  0  0  0  0  0  0  0
    3.7589   -1.2289    0.0000 C   0  0  0  0  0  0  0  0  0  0  0  0
    4.2990   -1.8525    0.0000 C   0  0  0  0  0  0  0  0  0  0  0  0
    5.1091   -1.6966    0.0000 C   0  0  0  0  0  0  0  0  0  0  0  0
    5.3792   -0.9171    0.0000 C   0  0  0  0  0  0  0  0  0  0  0  0
    4.8391   -0.2934    0.0000 C   0  0  0  0  0  0  0  0  0  0  0  0
    4.0290   -0.4493    0.0000 C   0  0  0  0  0  0  0  0  0  0  0  0
    3.4889    0.1743    0.0000 C   0  0  0  0  0  0  0  0  0  0  0  0
    2.6787    0.0184    0.0000 C   0  0  0  0  0  0  0  0  0  0  0  0
    2.4087   -0.7612    0.0000 C   0  0  0  0  0  0  0  0  0  0  0  0
    1.5985   -0.9171    0.0000 C   0  0  0  0  0  0  0  0  0  0  0  0
    1.3285   -1.6966    0.0000 C   0  0  0  0  0  0  0  0  0  0  0  0
    0.5184   -1.8525    0.0000 C   0  0  0  0  0  0  0  0  0  0  0  0
   -0.0217   -1.2289    0.0000 C   0  0  0  0  0  0  0  0  0  0  0  0
    0.2483   -0.4493    0.0000 C   0  0  0  0  0  0  0  0  0  0  0  0
    1.0585   -0.2934    0.0000 C   0  0  0  0  0  0  0  0  0  0  0  0
    1.8686   -2.3203    0.0000 C   0  0  0  0  0  0  0  0  0  0  0  0
    2.6787   -2.1643    0.0000 C   0  0  0  0  0  0  0  0  0  0  0  0
  2  1  1  0  0  0  0
  2  3  1  0  0  0  0
  3  4  2  0  0  0  0
  4  5  1  0  0  0  0
  5  6  2  0  0  0  0
  6  7  1  0  0  0  0
  7  2  2  0  0  0  0
  8  7  1  0  0  0  0
  9  8  2  0  0  0  0
 10  9  1  0  0  0  0
 10  1  2  0  0  0  0
 11 10  1  0  0  0  0
 11 12  2  0  0  0  0
 12 13  1  0  0  0  0
 13 14  2  0  0  0  0
 14 15  1  0  0  0  0
 15 16  2  0  0  0  0
 16 11  1  0  0  0  0
 17 12  1  0  0  0  0
 18 17  2  0  0  0  0
  1 18  1  0  0  0  0
M  END
> <ChemID>
100809

> <CAS>
218-01-9

> <Original_SMILES>
c1cc2c3ccccc3ccc2c2ccccc21

> <preferred_name>
Chrysene

> <dsstox_substance_id>
DTXSID0022432

> <dsstox_compound_id>
DTXCID702432

> <qc_level>
DSSTox_Low

> <Canonical_QSARr>
C1=CC2C3C=CC=CC=3C=CC=2C2C=CC=CC=21

> <InChI_Code_QSARr>
InChI=1S/C18H12/c1-3-7-15-13(5-1)9-11-18-16-8-4-2-6-14(16)10-12-17(15)18/h1-12H

> <InChI Key_QSARr>
WDECIBYCCFPHNR-UHFFFAOYSA-N

> <Salt_Solvent>


> <Salt_Solvent_ID>
0

> <MPID>
102533

> <HL Reference>
BAMFORD,HA ET AL. (1999)

> <HL Temperature>
25

> <LogHL>
-5.281498311132707

> <Tr_1_Tst_0>
0

$$$$
100811
  Mrv171c012241914302D          

 17 20  0  0  0  0            999 V2000
    2.6342    0.3182    0.0000 C   0  0  0  0  0  0  0  0  0  0  0  0
    3.4578    0.3654    0.0000 C   0  0  0  0  0  0  0  0  0  0  0  0
    3.9105   -0.3244    0.0000 C   0  0  0  0  0  0  0  0  0  0  0  0
    4.7342   -0.2772    0.0000 C   0  0  0  0  0  0  0  0  0  0  0  0
    5.1052    0.4597    0.0000 C   0  0  0  0  0  0  0  0  0  0  0  0
    4.6525    1.1494    0.0000 C   0  0  0  0  0  0  0  0  0  0  0  0
    3.8288    1.1022    0.0000 C   0  0  0  0  0  0  0  0  0  0  0  0
    3.3762    1.7920    0.0000 C   0  0  0  0  0  0  0  0  0  0  0  0
    2.5525    1.7448    0.0000 C   0  0  0  0  0  0  0  0  0  0  0  0
    2.1815    1.0080    0.0000 C   0  0  0  0  0  0  0  0  0  0  0  0
    1.3857    0.7906    0.0000 C   0  0  0  0  0  0  0  0  0  0  0  0
    1.3465   -0.0335    0.0000 C   0  0  0  0  0  0  0  0  0  0  0  0
    0.6132   -0.4116    0.0000 C   0  0  0  0  0  0  0  0  0  0  0  0
   -0.0808    0.0344    0.0000 C   0  0  0  0  0  0  0  0  0  0  0  0
   -0.0416    0.8585    0.0000 C   0  0  0  0  0  0  0  0  0  0  0  0
    0.6916    1.2366    0.0000 C   0  0  0  0  0  0  0  0  0  0  0  0
    2.1181   -0.3254    0.0000 C   0  0  0  0  0  0  0  0  0  0  0  0
  2  1  2  0  0  0  0
  2  3  1  0  0  0  0
  3  4  2  0  0  0  0
  4  5  1  0  0  0  0
  5  6  2  0  0  0  0
  6  7  1  0  0  0  0
  7  2  1  0  0  0  0
  8  7  2  0  0  0  0
  9  8  1  0  0  0  0
 10  9  2  0  0  0  0
 10  1  1  0  0  0  0
 11 10  1  0  0  0  0
 11 12  1  0  0  0  0
 12 13  2  0  0  0  0
 13 14  1  0  0  0  0
 14 15  2  0  0  0  0
 15 16  1  0  0  0  0
 16 11  2  0  0  0  0
 17 12  1  0  0  0  0
  1 17  1  0  0  0  0
M  END
> <ChemID>
100811

> <CAS>
238-84-6

> <Original_SMILES>
C1c2c3ccccc3ccc2-c2ccccc21

> <preferred_name>
11H-Benzo[a]fluorene

> <dsstox_substance_id>
DTXSID3075204

> <dsstox_compound_id>
DTXCID3036943

> <qc_level>
Public_High

> <Canonical_QSARr>
C1C2C(=CC=C3C=CC=CC3=2)C2=CC=CC=C21

> <InChI_Code_QSARr>
InChI=1S/C17H12/c1-3-7-14-12(5-1)9-10-16-15-8-4-2-6-13(15)11-17(14)16/h1-10H,11H2

> <InChI Key_QSARr>
HKMTVMBEALTRRR-UHFFFAOYSA-N

> <Salt_Solvent>


> <Salt_Solvent_ID>
0

> <MPID>
102534

> <HL Reference>
BAMFORD,HA ET AL. (1998)

> <HL Temperature>
25

> <LogHL>
-4.575118363368923

> <Tr_1_Tst_0>
1

$$$$
100814
  Mrv171c012241914302D          

  5  5  0  0  0  0            999 V2000
    1.3349   -0.3510    0.0000 C   0  0  0  0  0  0  0  0  0  0  0  0
    0.6675    0.1339    0.0000 C   0  0  0  0  0  0  0  0  0  0  0  0
    0.0000   -0.3510    0.0000 C   0  0  0  0  0  0  0  0  0  0  0  0
    0.2550   -1.1356    0.0000 C   0  0  0  0  0  0  0  0  0  0  0  0
    1.0800   -1.1356    0.0000 C   0  0  0  0  0  0  0  0  0  0  0  0
  2  1  1  0  0  0  0
  3  2  1  0  0  0  0
  4  3  1  0  0  0  0
  5  4  1  0  0  0  0
  1  5  1  0  0  0  0
M  END
> <ChemID>
100814

> <CAS>
287-92-3

> <Original_SMILES>
C1CCCC1

> <preferred_name>
Cyclopentane

> <dsstox_substance_id>
DTXSID6024886

> <dsstox_compound_id>
DTXCID804886

> <qc_level>
DSSTox_Low

> <Canonical_QSARr>
C1CCCC1

> <InChI_Code_QSARr>
InChI=1S/C5H10/c1-2-4-5-3-1/h1-5H2

> <InChI Key_QSARr>
RGSFGYAAUTVSQA-UHFFFAOYSA-N

> <Salt_Solvent>


> <Salt_Solvent_ID>
0

> <MPID>
102535

> <HL Reference>
SANDER,R (1999)

> <HL Temperature>
25

> <LogHL>
-0.818156412055227

> <Tr_1_Tst_0>
1

$$$$
100819
  Mrv171c012241914302D          

 16 16  0  0  0  0            999 V2000
    1.9978   -1.7106    0.0000 S   0  0  0  0  0  0  0  0  0  0  0  0
    2.4103   -2.4251    0.0000 P   0  0  0  0  0  0  0  0  0  0  0  0
    1.6958   -2.8376    0.0000 O   0  0  0  0  0  0  0  0  0  0  0  0
    1.6958   -3.6626    0.0000 C   0  0  0  0  0  0  0  0  0  0  0  0
    2.8228   -3.1396    0.0000 O   0  0  0  0  0  0  0  0  0  0  0  0
    2.4103   -3.8540    0.0000 C   0  0  0  0  0  0  0  0  0  0  0  0
    3.1247   -2.0126    0.0000 O   0  0  0  0  0  0  0  0  0  0  0  0
    3.1247   -1.1876    0.0000 C   0  0  0  0  0  0  0  0  0  0  0  0
    3.8392   -0.7751    0.0000 C   0  0  0  0  0  0  0  0  0  0  0  0
    3.8392    0.0499    0.0000 C   0  0  0  0  0  0  0  0  0  0  0  0
    3.1247    0.4624    0.0000 C   0  0  0  0  0  0  0  0  0  0  0  0
    3.1247    1.2874    0.0000 N   0  3  0  0  0  0  0  0  0  0  0  0
    2.4103    1.6999    0.0000 O   0  5  0  0  0  0  0  0  0  0  0  0
    3.8392    1.6999    0.0000 O   0  0  0  0  0  0  0  0  0  0  0  0
    2.4103    0.0499    0.0000 C   0  0  0  0  0  0  0  0  0  0  0  0
    2.4103   -0.7751    0.0000 C   0  0  0  0  0  0  0  0  0  0  0  0
  1  2  2  0  0  0  0
  2  3  1  0  0  0  0
  3  4  1  0  0  0  0
  2  5  1  0  0  0  0
  5  6  1  0  0  0  0
  2  7  1  0  0  0  0
  7  8  1  0  0  0  0
  9  8  1  0  0  0  0
 10  9  2  0  0  0  0
 11 10  1  0  0  0  0
 11 12  1  0  0  0  0
 12 13  1  0  0  0  0
 12 14  2  0  0  0  0
 15 11  2  0  0  0  0
 16 15  1  0  0  0  0
  8 16  2  0  0  0  0
M  CHG  2  12   1  13  -1
M  END
> <ChemID>
100819

> <CAS>
298-00-0

> <Original_SMILES>
COP(=S)(Oc1ccc(cc1)[N+]([O-])=O)OC

> <preferred_name>
Methyl parathion

> <dsstox_substance_id>
DTXSID1020855

> <dsstox_compound_id>
DTXCID30855

> <qc_level>
DSSTox_Low

> <Canonical_QSARr>
COP(=S)(OC1C=CC(=CC=1)[N+]([O-])=O)OC

> <InChI_Code_QSARr>
InChI=1S/C8H10NO5PS/c1-12-15(16,13-2)14-8-5-3-7(4-6-8)9(10)11/h3-6H,1-2H3

> <InChI Key_QSARr>
RLBIQVVOMOPOHC-UHFFFAOYSA-N

> <Salt_Solvent>


> <Salt_Solvent_ID>
0

> <MPID>
102536

> <HL Reference>
METCALFE,CD ET AL. (1980)

> <HL Temperature>
25

> <LogHL>
-6.99999999999999

> <Tr_1_Tst_0>
1

$$$$
100825
  Mrv171c012241914302D          

 18 21  0  0  0  0            999 V2000
   -0.3589    0.4477    0.0000 C   0  0  0  0  0  0  0  0  0  0  0  0
    0.4683    0.8300    0.0000 C   0  0  0  0  0  0  0  0  0  0  0  0
    0.6746    0.0050    0.0000 C   0  0  0  0  0  0  0  0  0  0  0  0
    0.0262    0.8109    0.0000 Cl  0  0  0  0  0  0  0  0  0  0  0  0
    0.0153   -0.8830    0.0000 Cl  0  0  0  0  0  0  0  0  0  0  0  0
    0.4683   -0.8200    0.0000 C   0  0  0  0  0  0  0  0  0  0  0  0
    0.6568   -1.6979    0.0000 Cl  0  0  0  0  0  0  0  0  0  0  0  0
    1.1828   -0.4075    0.0000 C   0  0  0  0  0  0  0  0  0  0  0  0
    1.1828    0.4175    0.0000 C   0  0  0  0  0  0  0  0  0  0  0  0
    1.9390    0.8445    0.0000 Cl  0  0  0  0  0  0  0  0  0  0  0  0
    1.9455   -0.8253    0.0000 Cl  0  0  0  0  0  0  0  0  0  0  0  0
   -0.2462   -0.4075    0.0000 C   0  0  0  0  0  0  0  0  0  0  0  0
   -0.9606   -0.8200    0.0000 C   0  0  0  0  0  0  0  0  0  0  0  0
   -1.1669    0.0050    0.0000 C   0  0  0  0  0  0  0  0  0  0  0  0
   -0.9606    0.8300    0.0000 C   0  0  0  0  0  0  0  0  0  0  0  0
   -1.6751    0.4175    0.0000 C   0  0  0  0  0  0  0  0  0  0  0  0
   -1.6751   -0.4075    0.0000 C   0  0  0  0  0  0  0  0  0  0  0  0
    0.5213    1.7138    0.0000 Cl  0  0  0  0  0  0  0  0  0  0  0  0
  2  1  1  0  0  0  0
  2  3  1  0  0  0  0
  3  4  1  0  0  0  0
  3  5  1  0  0  0  0
  3  6  1  0  0  0  0
  6  7  1  0  0  0  0
  6  8  1  0  0  0  0
  8  9  2  0  0  0  0
  9  2  1  0  0  0  0
  9 10  1  0  0  0  0
  8 11  1  0  0  0  0
 12  6  1  0  0  0  0
 12  1  1  0  0  0  0
 13 12  1  0  0  0  0
 13 14  1  0  0  0  0
 14 15  1  0  0  0  0
  1 15  1  0  0  0  0
 15 16  1  0  0  0  0
 16 17  2  0  0  0  0
 17 13  1  0  0  0  0
  2 18  1  0  0  0  0
M  END
> <ChemID>
100825

> <CAS>
309-00-2

> <Original_SMILES>
ClC1(Cl)[C@@]2(Cl)[C@@H]3[C@@H]4C[C@@H](C=C4)[C@@H]3[C@]1(Cl)C(Cl)=C2Cl

> <preferred_name>
Aldrin

> <dsstox_substance_id>
DTXSID8020040

> <dsstox_compound_id>
DTXCID10819882

> <qc_level>
DSSTox_High

> <Canonical_QSARr>
ClC1(Cl)C2(Cl)C3C4CC(C=C4)C3C1(Cl)C(Cl)=C2Cl

> <InChI_Code_QSARr>
InChI=1S/C12H8Cl6/c13-8-9(14)11(16)7-5-2-1-4(3-5)6(7)10(8,15)12(11,17)18/h1-2,4-7H,3H2

> <InChI Key_QSARr>
QBYJBZPUGVGKQQ-UHFFFAOYSA-N

> <Salt_Solvent>


> <Salt_Solvent_ID>
0

> <MPID>
102538

> <HL Reference>
ALTSCHUH,J ET AL. (1999)

> <HL Temperature>
25

> <LogHL>
-4.356547323513807

> <Tr_1_Tst_0>
0

$$$$
100837
  Mrv171c012241914302D          

 19 19  0  0  0  0            999 V2000
    4.2721   -2.8811    0.0000 S   0  0  0  0  0  0  0  0  0  0  0  0
    3.8596   -2.1666    0.0000 P   0  0  0  0  0  0  0  0  0  0  0  0
    4.5741   -1.7541    0.0000 O   0  0  0  0  0  0  0  0  0  0  0  0
    5.2885   -2.1666    0.0000 C   0  0  0  0  0  0  0  0  0  0  0  0
    6.0030   -1.7541    0.0000 C   0  0  0  0  0  0  0  0  0  0  0  0
    3.4471   -1.4522    0.0000 O   0  0  0  0  0  0  0  0  0  0  0  0
    3.8596   -0.7377    0.0000 C   0  0  0  0  0  0  0  0  0  0  0  0
    4.6846   -0.7377    0.0000 C   0  0  0  0  0  0  0  0  0  0  0  0
    3.1451   -2.5791    0.0000 O   0  0  0  0  0  0  0  0  0  0  0  0
    2.4307   -2.1666    0.0000 C   0  0  0  0  0  0  0  0  0  0  0  0
    2.4307   -1.3416    0.0000 C   0  0  0  0  0  0  0  0  0  0  0  0
    1.7162   -0.9291    0.0000 C   0  0  0  0  0  0  0  0  0  0  0  0
    1.7162   -0.1041    0.0000 C   0  0  0  0  0  0  0  0  0  0  0  0
    1.0017   -1.3416    0.0000 N   0  0  0  0  0  0  0  0  0  0  0  0
    1.0017   -2.1666    0.0000 C   0  0  0  0  0  0  0  0  0  0  0  0
    0.2872   -2.5791    0.0000 C   0  0  0  0  0  0  0  0  0  0  0  0
    0.2872   -3.4041    0.0000 C   0  0  0  0  0  0  0  0  0  0  0  0
   -0.4272   -2.1666    0.0000 C   0  0  0  0  0  0  0  0  0  0  0  0
    1.7162   -2.5791    0.0000 N   0  0  0  0  0  0  0  0  0  0  0  0
  1  2  2  0  0  0  0
  2  3  1  0  0  0  0
  3  4  1  0  0  0  0
  4  5  1  0  0  0  0
  2  6  1  0  0  0  0
  6  7  1  0  0  0  0
  7  8  1  0  0  0  0
  2  9  1  0  0  0  0
  9 10  1  0  0  0  0
 11 10  1  0  0  0  0
 12 11  2  0  0  0  0
 12 13  1  0  0  0  0
 14 12  1  0  0  0  0
 15 14  2  0  0  0  0
 15 16  1  0  0  0  0
 16 17  1  0  0  0  0
 16 18  1  0  0  0  0
 19 15  1  0  0  0  0
 10 19  2  0  0  0  0
M  END
> <ChemID>
100837

> <CAS>
333-41-5

> <Original_SMILES>
Cc1cc([n]c([n]1)C(C)C)OP(=S)(OCC)OCC

> <preferred_name>
Diazinon

> <dsstox_substance_id>
DTXSID9020407

> <dsstox_compound_id>
DTXCID50407

> <qc_level>
DSSTox_Low

> <Canonical_QSARr>
CC1=CC(=NC(=N1)C(C)C)OP(=S)(OCC)OCC

> <InChI_Code_QSARr>
InChI=1S/C12H21N2O3PS/c1-6-15-18(19,16-7-2)17-11-8-10(5)13-12(14-11)9(3)4/h8-9H,6-7H2,1-5H3

> <InChI Key_QSARr>
FHIVAFMUCKRCQO-UHFFFAOYSA-N

> <Salt_Solvent>


> <Salt_Solvent_ID>
0

> <MPID>
102542

> <HL Reference>
FENDINGER,NJ & GLOTFELTY,DE (1988)

> <HL Temperature>
23

> <LogHL>
-6.9469215565165925

> <Tr_1_Tst_0>
1

$$$$
100839
  Mrv171c012241914302D          

  9  9  0  0  0  0            999 V2000
    1.2728   -0.3305    0.0000 C   0  0  0  0  0  0  0  0  0  0  0  0
    1.2728   -1.1555    0.0000 C   0  0  0  0  0  0  0  0  0  0  0  0
    0.5583   -1.5680    0.0000 C   0  0  0  0  0  0  0  0  0  0  0  0
    0.5583   -2.3930    0.0000 C   0  0  0  0  0  0  0  0  0  0  0  0
    1.2728   -2.8055    0.0000 C   0  0  0  0  0  0  0  0  0  0  0  0
    1.9872   -2.3930    0.0000 N   0  0  0  0  0  0  0  0  0  0  0  0
    1.9872   -1.5680    0.0000 C   0  0  0  0  0  0  0  0  0  0  0  0
    0.5583    0.0820    0.0000 O   0  0  0  0  0  0  0  0  0  0  0  0
    1.9872    0.0820    0.0000 C   0  0  0  0  0  0  0  0  0  0  0  0
  1  2  1  0  0  0  0
  3  2  1  0  0  0  0
  4  3  2  0  0  0  0
  5  4  1  0  0  0  0
  6  5  2  0  0  0  0
  7  6  1  0  0  0  0
  2  7  2  0  0  0  0
  1  8  2  0  0  0  0
  1  9  1  0  0  0  0
M  END
> <ChemID>
100839

> <CAS>
350-03-8

> <Original_SMILES>
CC(=O)c1ccc[n]c1

> <preferred_name>
3-Acetylpyridine

> <dsstox_substance_id>
DTXSID7044421

> <dsstox_compound_id>
DTXCID5024421

> <qc_level>
DSSTox_Low

> <Canonical_QSARr>
CC(=O)C1C=CC=NC=1

> <InChI_Code_QSARr>
InChI=1S/C7H7NO/c1-6(9)7-3-2-4-8-5-7/h2-5H,1H3

> <InChI Key_QSARr>
WEGYGNROSJDEIW-UHFFFAOYSA-N

> <Salt_Solvent>


> <Salt_Solvent_ID>
0

> <MPID>
102543

> <HL Reference>
ABRAHAM,MH ET AL. (1994)

> <HL Temperature>
25

> <LogHL>
-7.671620396561248

> <Tr_1_Tst_0>
1

$$$$
100840
  Mrv171c012241914302D          

  5  4  0  0  0  0            999 V2000
    0.9403    0.3553    0.0000 C   0  0  0  0  0  0  0  0  0  0  0  0
    1.3528   -0.3592    0.0000 S   0  0  0  0  0  0  0  0  0  0  0  0
    2.1778   -0.3592    0.0000 C   0  0  0  0  0  0  0  0  0  0  0  0
    2.5903   -1.0737    0.0000 C   0  0  0  0  0  0  0  0  0  0  0  0
    0.1153    0.3553    0.0000 C   0  0  0  0  0  0  0  0  0  0  0  0
  1  2  1  0  0  0  0
  2  3  1  0  0  0  0
  3  4  1  0  0  0  0
  1  5  1  0  0  0  0
M  END
> <ChemID>
100840

> <CAS>
352-93-2

> <Original_SMILES>
CCSCC

> <preferred_name>
Diethyl sulfide

> <dsstox_substance_id>
DTXSID5027146

> <dsstox_compound_id>
DTXCID507146

> <qc_level>
DSSTox_Low

> <Canonical_QSARr>
CCSCC

> <InChI_Code_QSARr>
InChI=1S/C4H10S/c1-3-5-4-2/h3-4H2,1-2H3

> <InChI Key_QSARr>
LJSQFQKUNVCTIA-UHFFFAOYSA-N

> <Salt_Solvent>


> <Salt_Solvent_ID>
0

> <MPID>
102544

> <HL Reference>
PRZYJAZNY,A ET AL. (1983)

> <HL Temperature>
25

> <LogHL>
-2.774690718274137

> <Tr_1_Tst_0>
0

$$$$
100845
  Mrv171c012241914302D          

  8  8  0  0  0  0            999 V2000
    0.3507   -1.2386    0.0000 C   0  0  0  0  0  0  0  0  0  0  0  0
    0.3507   -2.0636    0.0000 C   0  0  0  0  0  0  0  0  0  0  0  0
    1.0652   -2.4761    0.0000 C   0  0  0  0  0  0  0  0  0  0  0  0
    1.7796   -2.0636    0.0000 C   0  0  0  0  0  0  0  0  0  0  0  0
    1.7796   -1.2386    0.0000 C   0  0  0  0  0  0  0  0  0  0  0  0
    1.0652   -0.8261    0.0000 C   0  0  0  0  0  0  0  0  0  0  0  0
    1.0652   -0.0011    0.0000 F   0  0  0  0  0  0  0  0  0  0  0  0
   -0.3638   -0.8261    0.0000 O   0  0  0  0  0  0  0  0  0  0  0  0
  2  1  1  0  0  0  0
  3  2  2  0  0  0  0
  4  3  1  0  0  0  0
  5  4  2  0  0  0  0
  6  5  1  0  0  0  0
  1  6  2  0  0  0  0
  6  7  1  0  0  0  0
  1  8  1  0  0  0  0
M  END
> <ChemID>
100845

> <CAS>
367-12-4

> <Original_SMILES>
Oc1ccccc1F

> <preferred_name>
2-Fluorophenol

> <dsstox_substance_id>
DTXSID0047745

> <dsstox_compound_id>
DTXCID0027729

> <qc_level>
DSSTox_Low

> <Canonical_QSARr>
OC1C=CC=CC=1F

> <InChI_Code_QSARr>
InChI=1S/C6H5FO/c7-5-3-1-2-4-6(5)8/h1-4,8H

> <InChI Key_QSARr>
HFHFGHLXUCOHLN-UHFFFAOYSA-N

> <Salt_Solvent>


> <Salt_Solvent_ID>
0

> <MPID>
102547

> <HL Reference>
ABRAHAM,MH ET AL. (1994)

> <HL Temperature>
25

> <LogHL>
-5.492144128304187

> <Tr_1_Tst_0>
1

$$$$
100846
  Mrv171c012241914302D          

  8  8  0  0  0  0            999 V2000
    1.4274   -1.6493    0.0000 C   0  0  0  0  0  0  0  0  0  0  0  0
    1.4274   -2.4743    0.0000 O   0  0  0  0  0  0  0  0  0  0  0  0
    2.1419   -1.2368    0.0000 C   0  0  0  0  0  0  0  0  0  0  0  0
    2.1419   -0.4118    0.0000 C   0  0  0  0  0  0  0  0  0  0  0  0
    1.4274    0.0007    0.0000 C   0  0  0  0  0  0  0  0  0  0  0  0
    1.4274    0.8257    0.0000 F   0  0  0  0  0  0  0  0  0  0  0  0
    0.7129   -0.4118    0.0000 C   0  0  0  0  0  0  0  0  0  0  0  0
    0.7129   -1.2368    0.0000 C   0  0  0  0  0  0  0  0  0  0  0  0
  1  2  1  0  0  0  0
  3  1  2  0  0  0  0
  4  3  1  0  0  0  0
  5  4  2  0  0  0  0
  5  6  1  0  0  0  0
  7  5  1  0  0  0  0
  8  7  2  0  0  0  0
  1  8  1  0  0  0  0
M  END
> <ChemID>
100846

> <CAS>
371-41-5

> <Original_SMILES>
Oc1ccc(F)cc1

> <preferred_name>
4-Fluorophenol

> <dsstox_substance_id>
DTXSID0052047

> <dsstox_compound_id>
DTXCID5030614

> <qc_level>
DSSTox_High

> <Canonical_QSARr>
OC1=CC=C(F)C=C1

> <InChI_Code_QSARr>
InChI=1S/C6H5FO/c7-5-1-3-6(8)4-2-5/h1-4,8H

> <InChI Key_QSARr>
RHMPLDJJXGPMEX-UHFFFAOYSA-N

> <Salt_Solvent>


> <Salt_Solvent_ID>
0

> <MPID>
102548

> <HL Reference>
ABRAHAM,MH ET AL. (1994)

> <HL Temperature>
25

> <LogHL>
-6.151810883008582

> <Tr_1_Tst_0>
1

$$$$
100849
  Mrv171c012241914302D          

  7  6  0  0  0  0            999 V2000
    2.6707   -1.2633    0.0000 F   0  0  0  0  0  0  0  0  0  0  0  0
    2.6707   -0.4383    0.0000 C   0  0  0  0  0  0  0  0  0  0  0  0
    2.6707    0.3867    0.0000 C   0  0  0  0  0  0  0  0  0  0  0  0
    1.9562    0.7992    0.0000 C   0  0  0  0  0  0  0  0  0  0  0  0
    3.3852    0.7992    0.0000 O   0  0  0  0  0  0  0  0  0  0  0  0
    3.4957   -0.4383    0.0000 F   0  0  0  0  0  0  0  0  0  0  0  0
    1.8457   -0.4383    0.0000 F   0  0  0  0  0  0  0  0  0  0  0  0
  1  2  1  0  0  0  0
  2  3  1  0  0  0  0
  3  4  1  0  0  0  0
  3  5  1  0  0  0  0
  2  6  1  0  0  0  0
  2  7  1  0  0  0  0
M  END
> <ChemID>
100849

> <CAS>
374-01-6

> <Original_SMILES>
C[C@H](O)C(F)(F)F

> <preferred_name>
3539-97-7

> <dsstox_substance_id>
DTXSID20870520

> <dsstox_compound_id>
DTXCID90818237

> <qc_level>
Public_Low

> <Canonical_QSARr>
CC(O)C(F)(F)F

> <InChI_Code_QSARr>
InChI=1S/C3H5F3O/c1-2(7)3(4,5)6/h2,7H,1H3

> <InChI Key_QSARr>
GILIYJDBJZWGBG-UHFFFAOYSA-N

> <Salt_Solvent>


> <Salt_Solvent_ID>
0

> <MPID>
102549

> <HL Reference>
ROCHESTER,CH & SYMONDS,JR (1973)

> <HL Temperature>
25

> <LogHL>
-4.661543506395382

> <Tr_1_Tst_0>
1

$$$$
100851
  Mrv171c012241914302D          

  6  5  0  0  0  0            999 V2000
    1.2375    0.7145    0.0000 C   0  0  0  0  0  0  0  0  0  0  0  0
    0.8250    1.4289    0.0000 O   0  0  0  0  0  0  0  0  0  0  0  0
    2.0625    0.7145    0.0000 O   0  0  0  0  0  0  0  0  0  0  0  0
    0.8250   -0.0000    0.0000 C   0  0  0  0  0  0  0  0  0  0  0  0
    1.2375   -0.7145    0.0000 F   0  0  0  0  0  0  0  0  0  0  0  0
   -0.0000   -0.0000    0.0000 F   0  0  0  0  0  0  0  0  0  0  0  0
  1  2  2  0  0  0  0
  1  3  1  0  0  0  0
  1  4  1  0  0  0  0
  4  5  1  0  0  0  0
  4  6  1  0  0  0  0
M  END
> <ChemID>
100851

> <CAS>
381-73-7

> <Original_SMILES>
OC(=O)C(F)F

> <preferred_name>
Acetic acid, difluoro-

> <dsstox_substance_id>
DTXSID2059932

> <dsstox_compound_id>
DTXCID5039430

> <qc_level>
Public_High

> <Canonical_QSARr>
OC(=O)C(F)F

> <InChI_Code_QSARr>
InChI=1S/C2H2F2O2/c3-1(4)2(5)6/h1H,(H,5,6)

> <InChI Key_QSARr>
PBWZKZYHONABLN-UHFFFAOYSA-N

> <Salt_Solvent>


> <Salt_Solvent_ID>
0

> <MPID>
102550

> <HL Reference>
BOWDEN,DJ ET AL. (1998A)

> <HL Temperature>
25

> <LogHL>
-7.481486060122098

> <Tr_1_Tst_0>
1

$$$$
100853
  Mrv171c012241914302D          

  7  6  0  0  0  0            999 V2000
    1.0018   -0.0474    0.0000 C   0  0  0  0  0  0  0  0  0  0  0  0
    1.4143    0.6671    0.0000 F   0  0  0  0  0  0  0  0  0  0  0  0
    0.2873    0.3651    0.0000 F   0  0  0  0  0  0  0  0  0  0  0  0
    1.7163   -0.4599    0.0000 F   0  0  0  0  0  0  0  0  0  0  0  0
    0.5893   -0.7618    0.0000 C   0  0  0  0  0  0  0  0  0  0  0  0
    1.0018   -1.4763    0.0000 O   0  0  0  0  0  0  0  0  0  0  0  0
   -0.2357   -0.7618    0.0000 C   0  0  0  0  0  0  0  0  0  0  0  0
  1  2  1  0  0  0  0
  1  3  1  0  0  0  0
  1  4  1  0  0  0  0
  1  5  1  0  0  0  0
  5  6  2  0  0  0  0
  5  7  1  0  0  0  0
M  END
> <ChemID>
100853

> <CAS>
421-50-1

> <Original_SMILES>
CC(=O)C(F)(F)F

> <preferred_name>
2-Propanone, 1,1,1-trifluoro-

> <dsstox_substance_id>
DTXSID9059963

> <dsstox_compound_id>
DTXCID6040032

> <qc_level>
Public_High

> <Canonical_QSARr>
CC(=O)C(F)(F)F

> <InChI_Code_QSARr>
InChI=1S/C3H3F3O/c1-2(7)3(4,5)6/h1H3

> <InChI Key_QSARr>
FHUDAMLDXFJHJE-UHFFFAOYSA-N

> <Salt_Solvent>


> <Salt_Solvent_ID>
0

> <MPID>
102551

> <HL Reference>
BETTERTON,EA (1991)

> <HL Temperature>
25

> <LogHL>
-5.107348966122708

> <Tr_1_Tst_0>
1

$$$$
100856
  Mrv171c012241914302D          

  6  5  0  0  0  0            999 V2000
    0.8260   -0.0013    0.0000 C   0  0  0  0  0  0  0  0  0  0  0  0
    1.2385   -0.7158    0.0000 C   0  0  0  0  0  0  0  0  0  0  0  0
    2.0635   -0.7158    0.0000 O   0  0  0  0  0  0  0  0  0  0  0  0
    0.8260   -1.4303    0.0000 C   0  0  0  0  0  0  0  0  0  0  0  0
    1.2385   -2.1448    0.0000 O   0  0  0  0  0  0  0  0  0  0  0  0
    0.0010   -1.4303    0.0000 C   0  0  0  0  0  0  0  0  0  0  0  0
  1  2  1  0  0  0  0
  2  3  2  0  0  0  0
  2  4  1  0  0  0  0
  4  5  2  0  0  0  0
  4  6  1  0  0  0  0
M  END
> <ChemID>
100856

> <CAS>
431-03-8

> <Original_SMILES>
CC(=O)C(C)=O

> <preferred_name>
2,3-Butanedione

> <dsstox_substance_id>
DTXSID6021583

> <dsstox_compound_id>
DTXCID701583

> <qc_level>
DSSTox_Low

> <Canonical_QSARr>
CC(=O)C(C)=O

> <InChI_Code_QSARr>
InChI=1S/C4H6O2/c1-3(5)4(2)6/h1-2H3

> <InChI Key_QSARr>
QSJXEFYPDANLFS-UHFFFAOYSA-N

> <Salt_Solvent>


> <Salt_Solvent_ID>
0

> <MPID>
102554

> <HL Reference>
BETTERTON,EA (1991)

> <HL Temperature>
25

> <LogHL>
-4.876148359032928

> <Tr_1_Tst_0>
0

$$$$
100857
  Mrv171c012241914302D          

 11 11  0  0  0  0            999 V2000
    3.5220   -1.8562    0.0000 F   0  0  0  0  0  0  0  0  0  0  0  0
    3.5220   -1.0312    0.0000 C   0  0  0  0  0  0  0  0  0  0  0  0
    4.2364   -0.6187    0.0000 C   0  0  0  0  0  0  0  0  0  0  0  0
    4.2364    0.2063    0.0000 C   0  0  0  0  0  0  0  0  0  0  0  0
    3.5220    0.6188    0.0000 C   0  0  0  0  0  0  0  0  0  0  0  0
    3.5220    1.4438    0.0000 N   0  3  0  0  0  0  0  0  0  0  0  0
    2.8075    1.8563    0.0000 O   0  0  0  0  0  0  0  0  0  0  0  0
    4.2364    1.8563    0.0000 O   0  5  0  0  0  0  0  0  0  0  0  0
    2.8075    0.2063    0.0000 C   0  0  0  0  0  0  0  0  0  0  0  0
    2.0930    0.6188    0.0000 O   0  0  0  0  0  0  0  0  0  0  0  0
    2.8075   -0.6187    0.0000 C   0  0  0  0  0  0  0  0  0  0  0  0
  1  2  1  0  0  0  0
  3  2  1  0  0  0  0
  4  3  2  0  0  0  0
  5  4  1  0  0  0  0
  5  6  1  0  0  0  0
  6  7  2  0  0  0  0
  6  8  1  0  0  0  0
  9  5  2  0  0  0  0
  9 10  1  0  0  0  0
 11  9  1  0  0  0  0
  2 11  2  0  0  0  0
M  CHG  2   6   1   8  -1
M  END
> <ChemID>
100857

> <CAS>
446-36-6

> <Original_SMILES>
[O-][N+](=O)c1ccc(F)cc1O

> <preferred_name>
5-Fluoro-2-nitrophenol

> <dsstox_substance_id>
DTXSID40196239

> <dsstox_compound_id>
DTXCID00118730

> <qc_level>
Public_Medium

> <Canonical_QSARr>
[O-][N+](=O)C1C=CC(F)=CC=1O

> <InChI_Code_QSARr>
InChI=1S/C6H4FNO3/c7-4-1-2-5(8(10)11)6(9)3-4/h1-3,9H

> <InChI Key_QSARr>
QQURWFRNETXFTN-UHFFFAOYSA-N

> <Salt_Solvent>


> <Salt_Solvent_ID>
0

> <MPID>
102555

> <HL Reference>
TREMPT,J ET AL. (1993)

> <HL Temperature>
20

> <LogHL>
-4.705533773838393

> <Tr_1_Tst_0>
1

$$$$
100860
  Mrv171c012241914302D          

  7  7  0  0  0  0            999 V2000
    1.4153    0.7000    0.0000 F   0  0  0  0  0  0  0  0  0  0  0  0
    1.4153   -0.1250    0.0000 C   0  0  0  0  0  0  0  0  0  0  0  0
    0.7009   -0.5375    0.0000 C   0  0  0  0  0  0  0  0  0  0  0  0
    0.7009   -1.3625    0.0000 C   0  0  0  0  0  0  0  0  0  0  0  0
    1.4153   -1.7750    0.0000 C   0  0  0  0  0  0  0  0  0  0  0  0
    2.1298   -1.3625    0.0000 C   0  0  0  0  0  0  0  0  0  0  0  0
    2.1298   -0.5375    0.0000 C   0  0  0  0  0  0  0  0  0  0  0  0
  1  2  1  0  0  0  0
  3  2  1  0  0  0  0
  4  3  2  0  0  0  0
  5  4  1  0  0  0  0
  6  5  2  0  0  0  0
  7  6  1  0  0  0  0
  2  7  2  0  0  0  0
M  END
> <ChemID>
100860

> <CAS>
462-06-6

> <Original_SMILES>
Fc1ccccc1

> <preferred_name>
Fluorobenzene

> <dsstox_substance_id>
DTXSID4025329

> <dsstox_compound_id>
DTXCID305329

> <qc_level>
DSSTox_Low

> <Canonical_QSARr>
FC1C=CC=CC=1

> <InChI_Code_QSARr>
InChI=1S/C6H5F/c7-6-4-2-1-3-5-6/h1-5H

> <InChI Key_QSARr>
PYLWMHQQBFSUBP-UHFFFAOYSA-N

> <Salt_Solvent>


> <Salt_Solvent_ID>
0

> <MPID>
102556

> <HL Reference>
SANDER,R (1999)

> <HL Temperature>
25

> <LogHL>
-2.204119982655926

> <Tr_1_Tst_0>
0

$$$$
100868
  Mrv171c012241914302D          

  9 10  0  0  0  0            999 V2000
    1.1098   -0.4143    0.0000 C   0  0  0  0  0  0  0  0  0  0  0  0
    0.3252   -0.1594    0.0000 C   0  0  0  0  0  0  0  0  0  0  0  0
   -0.1597   -0.8268    0.0000 C   0  0  0  0  0  0  0  0  0  0  0  0
    0.3252   -1.4943    0.0000 C   0  0  0  0  0  0  0  0  0  0  0  0
    1.1098   -1.2393    0.0000 C   0  0  0  0  0  0  0  0  0  0  0  0
    1.8243   -1.6518    0.0000 C   0  0  0  0  0  0  0  0  0  0  0  0
    2.5388   -1.2393    0.0000 C   0  0  0  0  0  0  0  0  0  0  0  0
    2.5388   -0.4143    0.0000 C   0  0  0  0  0  0  0  0  0  0  0  0
    1.8243   -0.0018    0.0000 C   0  0  0  0  0  0  0  0  0  0  0  0
  2  1  1  0  0  0  0
  3  2  1  0  0  0  0
  4  3  1  0  0  0  0
  5  4  1  0  0  0  0
  5  1  1  0  0  0  0
  6  5  2  0  0  0  0
  7  6  1  0  0  0  0
  8  7  2  0  0  0  0
  9  8  1  0  0  0  0
  1  9  2  0  0  0  0
M  END
> <ChemID>
100868

> <CAS>
496-11-7

> <Original_SMILES>
C1CCc2ccccc21

> <preferred_name>
Indan

> <dsstox_substance_id>
DTXSID4052132

> <dsstox_compound_id>
DTXCID9030701

> <qc_level>
DSSTox_High

> <Canonical_QSARr>
C1CCC2=CC=CC=C21

> <InChI_Code_QSARr>
InChI=1S/C9H10/c1-2-5-9-7-3-6-8(9)4-1/h1-2,4-5H,3,6-7H2

> <InChI Key_QSARr>
PQNFLJBBNBOBRQ-UHFFFAOYSA-N

> <Salt_Solvent>


> <Salt_Solvent_ID>
0

> <MPID>
102557

> <HL Reference>
LION,LW & GARBARINI,D (1983)

> <HL Temperature>
25

> <LogHL>
-3.6968039425795114

> <Tr_1_Tst_0>
0

$$$$
100869
  Mrv171c012241914302D          

  8  8  0  0  0  0            999 V2000
    0.9715   -1.5018    0.0000 N   0  0  0  0  0  0  0  0  0  0  0  0
    1.6859   -1.9143    0.0000 C   0  0  0  0  0  0  0  0  0  0  0  0
    2.4004   -1.5018    0.0000 C   0  0  0  0  0  0  0  0  0  0  0  0
    2.4004   -0.6768    0.0000 C   0  0  0  0  0  0  0  0  0  0  0  0
    1.6859   -0.2643    0.0000 C   0  0  0  0  0  0  0  0  0  0  0  0
    1.6859    0.5607    0.0000 C   0  0  0  0  0  0  0  0  0  0  0  0
    0.9715    0.9732    0.0000 O   0  0  0  0  0  0  0  0  0  0  0  0
    0.9715   -0.6768    0.0000 C   0  0  0  0  0  0  0  0  0  0  0  0
  2  1  1  0  0  0  0
  3  2  2  0  0  0  0
  4  3  1  0  0  0  0
  5  4  2  0  0  0  0
  5  6  1  0  0  0  0
  6  7  2  0  0  0  0
  8  5  1  0  0  0  0
  1  8  2  0  0  0  0
M  END
> <ChemID>
100869

> <CAS>
500-22-1

> <Original_SMILES>
O=Cc1c[n]ccc1

> <preferred_name>
3-Pyridinecarboxaldehyde

> <dsstox_substance_id>
DTXSID2022044

> <dsstox_compound_id>
DTXCID002044

> <qc_level>
DSSTox_Low

> <Canonical_QSARr>
O=CC1C=NC=CC=1

> <InChI_Code_QSARr>
InChI=1S/C6H5NO/c8-5-6-2-1-3-7-4-6/h1-5H

> <InChI Key_QSARr>
QJZUKDFHGGYHMC-UHFFFAOYSA-N

> <Salt_Solvent>


> <Salt_Solvent_ID>
0

> <MPID>
102558

> <HL Reference>
ABRAHAM,MH ET AL. (1994)

> <HL Temperature>
25

> <LogHL>
-6.823908740944337

> <Tr_1_Tst_0>
1

$$$$
100874
  Mrv171c012241914302D          

  7  6  0  0  0  0            999 V2000
    1.4937   -0.0525    0.0000 C   0  0  0  0  0  0  0  0  0  0  0  0
    1.9062    0.6620    0.0000 O   0  0  0  0  0  0  0  0  0  0  0  0
    0.6687   -0.0525    0.0000 O   0  0  0  0  0  0  0  0  0  0  0  0
    1.9062   -0.7670    0.0000 C   0  0  0  0  0  0  0  0  0  0  0  0
    1.4937   -1.4814    0.0000 C   0  0  0  0  0  0  0  0  0  0  0  0
    1.9062   -2.1959    0.0000 C   0  0  0  0  0  0  0  0  0  0  0  0
    0.6687   -1.4814    0.0000 C   0  0  0  0  0  0  0  0  0  0  0  0
  1  2  2  0  0  0  0
  1  3  1  0  0  0  0
  1  4  1  0  0  0  0
  4  5  1  0  0  0  0
  5  6  1  0  0  0  0
  5  7  1  0  0  0  0
M  END
> <ChemID>
100874

> <CAS>
503-74-2

> <Original_SMILES>
CC(C)CC(O)=O

> <preferred_name>
Isovaleric acid

> <dsstox_substance_id>
DTXSID5029182

> <dsstox_compound_id>
DTXCID309182

> <qc_level>
DSSTox_Low

> <Canonical_QSARr>
CC(C)CC(O)=O

> <InChI_Code_QSARr>
InChI=1S/C5H10O2/c1-4(2)3-5(6)7/h4H,3H2,1-2H3,(H,6,7)

> <InChI Key_QSARr>
GWYFCOCPABKNJV-UHFFFAOYSA-N

> <Salt_Solvent>


> <Salt_Solvent_ID>
0

> <MPID>
102559

> <HL Reference>
KHAN,I & BRIMBLECOMBE,P (1992)

> <HL Temperature>
25

> <LogHL>
-6.079354998593225

> <Tr_1_Tst_0>
1

$$$$
100877
  Mrv171c012241914302D          

  7  6  0  0  0  0            999 V2000
    2.4750    1.4289    0.0000 C   0  0  0  0  0  0  0  0  0  0  0  0
    2.0625    0.7145    0.0000 C   0  0  0  0  0  0  0  0  0  0  0  0
    1.2375    0.7145    0.0000 C   0  0  0  0  0  0  0  0  0  0  0  0
    0.8250    0.0000    0.0000 C   0  0  0  0  0  0  0  0  0  0  0  0
    0.0000    0.0000    0.0000 C   0  0  0  0  0  0  0  0  0  0  0  0
   -0.4125   -0.7145    0.0000 C   0  0  0  0  0  0  0  0  0  0  0  0
    0.0000   -1.4289    0.0000 O   0  0  0  0  0  0  0  0  0  0  0  0
  1  2  1  0  0  0  0
  2  3  1  0  0  0  0
  4  3  1  4  0  0  0
  4  5  2  0  0  0  0
  5  6  1  0  0  0  0
  6  7  2  0  0  0  0
M  END
> <ChemID>
100877

> <CAS>
505-57-7

> <Original_SMILES>
CCCC=CC=O

> <preferred_name>
2-Hexenal

> <dsstox_substance_id>
DTXSID7021609

> <dsstox_compound_id>
DTXCID901609

> <qc_level>
DSSTox_High

> <Canonical_QSARr>
CCCC=CC=O

> <InChI_Code_QSARr>
InChI=1S/C6H10O/c1-2-3-4-5-6-7/h4-6H,2-3H2,1H3

> <InChI Key_QSARr>
MBDOYVRWFFCFHM-UHFFFAOYSA-N

> <Salt_Solvent>


> <Salt_Solvent_ID>
0

> <MPID>
102560

> <HL Reference>
BUTTERY,RG ET AL. (1971)

> <HL Temperature>
25

> <LogHL>
-4.31069114087638

> <Tr_1_Tst_0>
0

$$$$
100878
  Mrv171c012241914302D          

  7  6  0  0  0  0            999 V2000
    0.0065   -0.0741    0.0000 Cl  0  0  0  0  0  0  0  0  0  0  0  0
    0.7210   -0.4866    0.0000 C   0  0  0  0  0  0  0  0  0  0  0  0
    1.4355   -0.0741    0.0000 C   0  0  0  0  0  0  0  0  0  0  0  0
    2.1499   -0.4866    0.0000 S   0  0  0  0  0  0  0  0  0  0  0  0
    2.8644   -0.0741    0.0000 C   0  0  0  0  0  0  0  0  0  0  0  0
    3.5789   -0.4866    0.0000 C   0  0  0  0  0  0  0  0  0  0  0  0
    4.2934   -0.0741    0.0000 Cl  0  0  0  0  0  0  0  0  0  0  0  0
  1  2  1  0  0  0  0
  2  3  1  0  0  0  0
  3  4  1  0  0  0  0
  4  5  1  0  0  0  0
  5  6  1  0  0  0  0
  6  7  1  0  0  0  0
M  END
> <ChemID>
100878

> <CAS>
505-60-2

> <Original_SMILES>
ClCCSCCCl

> <preferred_name>
Bis-(2-chloroethyl)sulfide

> <dsstox_substance_id>
DTXSID0037100

> <dsstox_compound_id>
DTXCID8017100

> <qc_level>
DSSTox_Low

> <Canonical_QSARr>
ClCCSCCCl

> <InChI_Code_QSARr>
InChI=1S/C4H8Cl2S/c5-1-3-7-4-2-6/h1-4H2

> <InChI Key_QSARr>
QKSKPIVNLNLAAV-UHFFFAOYSA-N

> <Salt_Solvent>


> <Salt_Solvent_ID>
0

> <MPID>
102561

> <HL Reference>
OPRESKO,DM ET AL. (1998)

> <HL Temperature>
25

> <LogHL>
-4.61083391563547

> <Tr_1_Tst_0>
1

$$$$
100884
  Mrv171c012241914302D          

  8  7  0  0  0  0            999 V2000
    1.8301   -0.5244    0.0000 O   0  0  0  0  0  0  0  0  0  0  0  0
    1.4176   -1.2389    0.0000 P   0  0  0  0  0  0  0  0  0  0  0  0
    0.7031   -0.8264    0.0000 O   0  0  0  0  0  0  0  0  0  0  0  0
   -0.0114   -1.2389    0.0000 C   0  0  0  0  0  0  0  0  0  0  0  0
    2.1320   -1.6514    0.0000 O   0  0  0  0  0  0  0  0  0  0  0  0
    2.8465   -1.2389    0.0000 C   0  0  0  0  0  0  0  0  0  0  0  0
    1.0051   -1.9534    0.0000 O   0  0  0  0  0  0  0  0  0  0  0  0
    0.1801   -1.9534    0.0000 C   0  0  0  0  0  0  0  0  0  0  0  0
  1  2  2  0  0  0  0
  2  3  1  0  0  0  0
  3  4  1  0  0  0  0
  2  5  1  0  0  0  0
  5  6  1  0  0  0  0
  2  7  1  0  0  0  0
  7  8  1  0  0  0  0
M  END
> <ChemID>
100884

> <CAS>
512-56-1

> <Original_SMILES>
COP(=O)(OC)OC

> <preferred_name>
Trimethyl phosphate

> <dsstox_substance_id>
DTXSID1021403

> <dsstox_compound_id>
DTXCID101403

> <qc_level>
DSSTox_Low

> <Canonical_QSARr>
COP(=O)(OC)OC

> <InChI_Code_QSARr>
InChI=1S/C3H9O4P/c1-5-8(4,6-2)7-3/h1-3H3

> <InChI Key_QSARr>
WVLBCYQITXONBZ-UHFFFAOYSA-N

> <Salt_Solvent>


> <Salt_Solvent_ID>
0

> <MPID>
102562

> <HL Reference>
WOLFENDEN,R & WILLIAMS,R (1983)

> <HL Temperature>
20

> <LogHL>
-8.142667503568731

> <Tr_1_Tst_0>
1

$$$$
100885
  Mrv171c012241914302D          

 14 13  0  0  0  0            999 V2000
    2.6614   -4.8434    0.0000 C   0  0  0  0  0  0  0  0  0  0  0  0
    1.9469   -4.4309    0.0000 C   0  0  0  0  0  0  0  0  0  0  0  0
    1.9469   -3.6059    0.0000 C   0  0  0  0  0  0  0  0  0  0  0  0
    1.2325   -3.1934    0.0000 O   0  0  0  0  0  0  0  0  0  0  0  0
    1.2325   -2.3684    0.0000 P   0  0  0  0  0  0  0  0  0  0  0  0
    1.2325   -1.5434    0.0000 O   0  0  0  0  0  0  0  0  0  0  0  0
    0.5180   -1.1309    0.0000 C   0  0  0  0  0  0  0  0  0  0  0  0
    0.5180   -0.3059    0.0000 C   0  0  0  0  0  0  0  0  0  0  0  0
   -0.1965    0.1066    0.0000 C   0  0  0  0  0  0  0  0  0  0  0  0
    2.0575   -2.3684    0.0000 O   0  0  0  0  0  0  0  0  0  0  0  0
    2.4700   -1.6539    0.0000 C   0  0  0  0  0  0  0  0  0  0  0  0
    3.2950   -1.6539    0.0000 C   0  0  0  0  0  0  0  0  0  0  0  0
    3.7075   -2.3684    0.0000 C   0  0  0  0  0  0  0  0  0  0  0  0
    0.4075   -2.3684    0.0000 O   0  0  0  0  0  0  0  0  0  0  0  0
  1  2  1  0  0  0  0
  2  3  1  0  0  0  0
  3  4  1  0  0  0  0
  4  5  1  0  0  0  0
  5  6  1  0  0  0  0
  6  7  1  0  0  0  0
  7  8  1  0  0  0  0
  8  9  1  0  0  0  0
  5 10  1  0  0  0  0
 10 11  1  0  0  0  0
 11 12  1  0  0  0  0
 12 13  1  0  0  0  0
  5 14  2  0  0  0  0
M  END
> <ChemID>
100885

> <CAS>
513-08-6

> <Original_SMILES>
CCCOP(=O)(OCCC)OCCC

> <preferred_name>
Tripropyl phosphate

> <dsstox_substance_id>
DTXSID4052712

> <dsstox_compound_id>
DTXCID9031305

> <qc_level>
DSSTox_Low

> <Canonical_QSARr>
CCCOP(=O)(OCCC)OCCC

> <InChI_Code_QSARr>
InChI=1S/C9H21O4P/c1-4-7-11-14(10,12-8-5-2)13-9-6-3/h4-9H2,1-3H3

> <InChI Key_QSARr>
RXPQRKFMDQNODS-UHFFFAOYSA-N

> <Salt_Solvent>


> <Salt_Solvent_ID>
0

> <MPID>
102563

> <HL Reference>
WOLFENDEN,R & WILLIAMS,R (1983)

> <HL Temperature>
20

> <LogHL>
-6.167491087293781

> <Tr_1_Tst_0>
0

$$$$
100892
  Mrv171c012241914302D          

  9  9  0  0  0  0            999 V2000
    2.1436   -1.2419    0.0000 C   0  0  0  0  0  0  0  0  0  0  0  0
    2.8581   -0.8294    0.0000 C   0  0  0  0  0  0  0  0  0  0  0  0
    1.4292   -0.8294    0.0000 C   0  0  0  0  0  0  0  0  0  0  0  0
    1.4292   -0.0044    0.0000 C   0  0  0  0  0  0  0  0  0  0  0  0
    0.7147   -1.2419    0.0000 C   0  0  0  0  0  0  0  0  0  0  0  0
    0.0002   -0.8294    0.0000 C   0  0  0  0  0  0  0  0  0  0  0  0
    0.7147   -2.0669    0.0000 C   0  0  0  0  0  0  0  0  0  0  0  0
    1.4292   -2.4794    0.0000 C   0  0  0  0  0  0  0  0  0  0  0  0
    2.1436   -2.0669    0.0000 C   0  0  0  0  0  0  0  0  0  0  0  0
  1  2  1  0  0  0  0
  3  1  1  0  0  0  0
  3  4  1  0  0  0  0
  5  3  2  0  0  0  0
  5  6  1  0  0  0  0
  7  5  1  0  0  0  0
  8  7  2  0  0  0  0
  9  8  1  0  0  0  0
  1  9  2  0  0  0  0
M  END
> <ChemID>
100892

> <CAS>
526-73-8

> <Original_SMILES>
Cc1c(C)cccc1C

> <preferred_name>
1,2,3-Trimethylbenzene

> <dsstox_substance_id>
DTXSID8047769

> <dsstox_compound_id>
DTXCID7027750

> <qc_level>
DSSTox_Low

> <Canonical_QSARr>
CC1C=CC=C(C)C=1C

> <InChI_Code_QSARr>
InChI=1S/C9H12/c1-7-5-4-6-8(2)9(7)3/h4-6H,1-3H3

> <InChI Key_QSARr>
FYGHSUNMUKGBRK-UHFFFAOYSA-N

> <Salt_Solvent>


> <Salt_Solvent_ID>
0

> <MPID>
102564

> <HL Reference>
SANEMASA,I ET AL. (1982)

> <HL Temperature>
25

> <LogHL>
-2.360513510731412

> <Tr_1_Tst_0>
1

$$$$
100893
  Mrv171c012241914302D          

  9  9  0  0  0  0            999 V2000
    2.3959   -0.7881    0.0000 C   0  0  0  0  0  0  0  0  0  0  0  0
    1.6815   -1.2006    0.0000 C   0  0  0  0  0  0  0  0  0  0  0  0
    0.9670   -0.7881    0.0000 C   0  0  0  0  0  0  0  0  0  0  0  0
    0.9670    0.0369    0.0000 O   0  0  0  0  0  0  0  0  0  0  0  0
    0.2525   -1.2006    0.0000 C   0  0  0  0  0  0  0  0  0  0  0  0
    0.2525   -2.0256    0.0000 C   0  0  0  0  0  0  0  0  0  0  0  0
    0.9670   -2.4381    0.0000 C   0  0  0  0  0  0  0  0  0  0  0  0
    1.6815   -2.0256    0.0000 C   0  0  0  0  0  0  0  0  0  0  0  0
    2.3959   -2.4381    0.0000 C   0  0  0  0  0  0  0  0  0  0  0  0
  1  2  1  0  0  0  0
  3  2  1  0  0  0  0
  3  4  1  0  0  0  0
  5  3  2  0  0  0  0
  6  5  1  0  0  0  0
  7  6  2  0  0  0  0
  8  7  1  0  0  0  0
  2  8  2  0  0  0  0
  8  9  1  0  0  0  0
M  END
> <ChemID>
100893

> <CAS>
526-75-0

> <Original_SMILES>
Cc1cccc(O)c1C

> <preferred_name>
2,3-Dimethylphenol

> <dsstox_substance_id>
DTXSID6025143

> <dsstox_compound_id>
DTXCID105143

> <qc_level>
DSSTox_Low

> <Canonical_QSARr>
CC1C(O)=CC=CC=1C

> <InChI_Code_QSARr>
InChI=1S/C8H10O/c1-6-4-3-5-8(9)7(6)2/h3-5,9H,1-2H3

> <InChI Key_QSARr>
QWBBPBRQALCEIZ-UHFFFAOYSA-N

> <Salt_Solvent>


> <Salt_Solvent_ID>
0

> <MPID>
102565

> <HL Reference>
ABRAHAM,MH ET AL. (1994)

> <HL Temperature>
25

> <LogHL>
-6.131943638176941

> <Tr_1_Tst_0>
1

$$$$
100898
  Mrv171c012241914302D          

  9  9  0  0  0  0            999 V2000
    2.8588   -0.1833    0.0000 C   0  0  0  0  0  0  0  0  0  0  0  0
    2.1443   -0.5958    0.0000 N   0  0  0  0  0  0  0  0  0  0  0  0
    1.4298   -0.1833    0.0000 C   0  0  0  0  0  0  0  0  0  0  0  0
    1.4298    0.6417    0.0000 S   0  0  0  0  0  0  0  0  0  0  0  0
    0.7153   -0.5958    0.0000 S   0  0  0  0  0  0  0  0  0  0  0  0
    0.7153   -1.4208    0.0000 C   0  0  0  0  0  0  0  0  0  0  0  0
    1.4298   -1.8333    0.0000 N   0  0  0  0  0  0  0  0  0  0  0  0
    1.4298   -2.6583    0.0000 C   0  0  0  0  0  0  0  0  0  0  0  0
    2.1443   -1.4208    0.0000 C   0  0  0  0  0  0  0  0  0  0  0  0
  1  2  1  0  0  0  0
  3  2  1  0  0  0  0
  3  4  2  0  0  0  0
  5  3  1  0  0  0  0
  6  5  1  0  0  0  0
  7  6  1  0  0  0  0
  7  8  1  0  0  0  0
  9  7  1  0  0  0  0
  2  9  1  0  0  0  0
M  END
> <ChemID>
100898

> <CAS>
533-74-4

> <Original_SMILES>
CN1CSC(=S)N(C)C1

> <preferred_name>
Dazomet

> <dsstox_substance_id>
DTXSID7024902

> <dsstox_compound_id>
DTXCID004902

> <qc_level>
DSSTox_Low

> <Canonical_QSARr>
CN1CSC(=S)N(C)C1

> <InChI_Code_QSARr>
InChI=1S/C5H10N2S2/c1-6-3-7(2)5(8)9-4-6/h3-4H2,1-2H3

> <InChI Key_QSARr>
QAYICIQNSGETAS-UHFFFAOYSA-N

> <Salt_Solvent>


> <Salt_Solvent_ID>
0

> <MPID>
102566

> <HL Reference>
TOMLIN,C (2003)

> <HL Temperature>
25

> <LogHL>
-9.575118363368954

> <Tr_1_Tst_0>
1

$$$$
100899
  Mrv171c012241914302D          

 14 14  0  0  0  0            999 V2000
    3.4348   -1.3674    0.0000 O   0  0  0  0  0  0  0  0  0  0  0  0
    2.7203   -1.7799    0.0000 C   0  0  0  0  0  0  0  0  0  0  0  0
    2.0059   -1.3674    0.0000 C   0  0  0  0  0  0  0  0  0  0  0  0
    2.0059   -0.5424    0.0000 N   0  3  0  0  0  0  0  0  0  0  0  0
    1.2914   -0.1299    0.0000 O   0  0  0  0  0  0  0  0  0  0  0  0
    2.7203   -0.1299    0.0000 O   0  5  0  0  0  0  0  0  0  0  0  0
    1.2914   -1.7799    0.0000 C   0  0  0  0  0  0  0  0  0  0  0  0
    1.2914   -2.6049    0.0000 C   0  0  0  0  0  0  0  0  0  0  0  0
    0.5769   -3.0174    0.0000 N   0  3  0  0  0  0  0  0  0  0  0  0
    0.5769   -3.8424    0.0000 O   0  0  0  0  0  0  0  0  0  0  0  0
   -0.1376   -2.6049    0.0000 O   0  5  0  0  0  0  0  0  0  0  0  0
    2.0059   -3.0174    0.0000 C   0  0  0  0  0  0  0  0  0  0  0  0
    2.7203   -2.6049    0.0000 C   0  0  0  0  0  0  0  0  0  0  0  0
    3.4348   -3.0174    0.0000 C   0  0  0  0  0  0  0  0  0  0  0  0
  1  2  1  0  0  0  0
  3  2  1  0  0  0  0
  3  4  1  0  0  0  0
  4  5  2  0  0  0  0
  4  6  1  0  0  0  0
  7  3  2  0  0  0  0
  8  7  1  0  0  0  0
  8  9  1  0  0  0  0
  9 10  2  0  0  0  0
  9 11  1  0  0  0  0
 12  8  2  0  0  0  0
 13 12  1  0  0  0  0
  2 13  2  0  0  0  0
 13 14  1  0  0  0  0
M  CHG  4   4   1   6  -1   9   1  11  -1
M  END
> <ChemID>
100899

> <CAS>
534-52-1

> <Original_SMILES>
Cc1cc(cc(c1O)[N+]([O-])=O)[N+]([O-])=O

> <preferred_name>
2-Methyl-4,6-dinitrophenol

> <dsstox_substance_id>
DTXSID1022053

> <dsstox_compound_id>
DTXCID902053

> <qc_level>
DSSTox_Low

> <Canonical_QSARr>
CC1C=C(C=C(C=1O)[N+]([O-])=O)[N+]([O-])=O

> <InChI_Code_QSARr>
InChI=1S/C7H6N2O5/c1-4-2-5(8(11)12)3-6(7(4)10)9(13)14/h2-3,10H,1H3

> <InChI Key_QSARr>
ZXVONLUNISGICL-UHFFFAOYSA-N

> <Salt_Solvent>


> <Salt_Solvent_ID>
0

> <MPID>
102567

> <HL Reference>
WARNER,HP ET AL. (1987)

> <HL Temperature>
25

> <LogHL>
-5.853871964321779

> <Tr_1_Tst_0>
0

$$$$
100902
  Mrv171c012241914302D          

  8  8  0  0  0  0            999 V2000
    1.6064   -1.6474    0.0000 C   0  0  0  0  0  0  0  0  0  0  0  0
    0.8920   -1.2349    0.0000 C   0  0  0  0  0  0  0  0  0  0  0  0
    0.8920   -0.4099    0.0000 C   0  0  0  0  0  0  0  0  0  0  0  0
    0.1775    0.0026    0.0000 C   0  0  0  0  0  0  0  0  0  0  0  0
    0.1775   -1.6474    0.0000 C   0  0  0  0  0  0  0  0  0  0  0  0
    0.1775   -2.4724    0.0000 C   0  0  0  0  0  0  0  0  0  0  0  0
    0.8920   -2.8849    0.0000 N   0  0  0  0  0  0  0  0  0  0  0  0
    1.6064   -2.4724    0.0000 C   0  0  0  0  0  0  0  0  0  0  0  0
  2  1  2  0  0  0  0
  2  3  1  0  0  0  0
  3  4  1  0  0  0  0
  5  2  1  0  0  0  0
  6  5  2  0  0  0  0
  7  6  1  0  0  0  0
  8  7  2  0  0  0  0
  1  8  1  0  0  0  0
M  END
> <ChemID>
100902

> <CAS>
536-75-4

> <Original_SMILES>
CCc1cc[n]cc1

> <preferred_name>
Pyridine, C1-3-alkyl derivs.

> <dsstox_substance_id>
DTXSID60873555

> <dsstox_compound_id>
DTXCID509009

> <qc_level>
DSSTox_Low

> <Canonical_QSARr>
CCC1C=CN=CC=1

> <InChI_Code_QSARr>
InChI=1S/C7H9N/c1-2-7-3-5-8-6-4-7/h3-6H,2H2,1H3

> <InChI Key_QSARr>
VJXRKZJMGVSXPX-UHFFFAOYSA-N

> <Salt_Solvent>


> <Salt_Solvent_ID>
0

> <MPID>
102568

> <HL Reference>
ANDON,RJL ET AL. (1954)

> <HL Temperature>
25

> <LogHL>
-5.071604147743302

> <Tr_1_Tst_0>
1

$$$$
100903
  Mrv171c012241914302D          

  8  8  0  0  0  0            999 V2000
    0.5358    1.2375    0.0000 C   0  0  0  0  0  0  0  0  0  0  0  0
    0.5358    2.0625    0.0000 C   0  0  0  0  0  0  0  0  0  0  0  0
    1.2503    2.4750    0.0000 C   0  0  0  0  0  0  0  0  0  0  0  0
   -0.1786    0.8250    0.0000 C   0  0  0  0  0  0  0  0  0  0  0  0
   -0.1786   -0.0000    0.0000 N   0  0  0  0  0  0  0  0  0  0  0  0
    0.5358   -0.4125    0.0000 C   0  0  0  0  0  0  0  0  0  0  0  0
    1.2503    0.0000    0.0000 C   0  0  0  0  0  0  0  0  0  0  0  0
    1.2503    0.8250    0.0000 C   0  0  0  0  0  0  0  0  0  0  0  0
  1  2  1  0  0  0  0
  2  3  1  0  0  0  0
  4  1  1  0  0  0  0
  5  4  2  0  0  0  0
  6  5  1  0  0  0  0
  7  6  2  0  0  0  0
  8  7  1  0  0  0  0
  1  8  2  0  0  0  0
M  END
> <ChemID>
100903

> <CAS>
536-78-7

> <Original_SMILES>
CCc1c[n]ccc1

> <preferred_name>
3-Ethylpyridine

> <dsstox_substance_id>
DTXSID6060212

> <dsstox_compound_id>
DTXCID6041478

> <qc_level>
Public_High

> <Canonical_QSARr>
CCC1C=NC=CC=1

> <InChI_Code_QSARr>
InChI=1S/C7H9N/c1-2-7-4-3-5-8-6-7/h3-6H,2H2,1H3

> <InChI Key_QSARr>
MFEIKQPHQINPRI-UHFFFAOYSA-N

> <Salt_Solvent>


> <Salt_Solvent_ID>
0

> <MPID>
102569

> <HL Reference>
ANDON,RJL ET AL. (1954)

> <HL Temperature>
25

> <LogHL>
-4.982966660701199

> <Tr_1_Tst_0>
0

$$$$
100917
  Mrv171c012241914302D          

 20 20  0  0  0  0            999 V2000
    2.8631   -0.8489    0.0000 O   0  0  0  0  0  0  0  0  0  0  0  0
    2.0530   -1.0048    0.0000 Si  0  0  0  0  0  0  0  0  0  0  0  0
    2.0401   -0.1799    0.0000 C   0  0  0  0  0  0  0  0  0  0  0  0
    1.2384   -0.8743    0.0000 C   0  0  0  0  0  0  0  0  0  0  0  0
    1.7829   -1.7844    0.0000 O   0  0  0  0  0  0  0  0  0  0  0  0
    0.9728   -1.9403    0.0000 Si  0  0  0  0  0  0  0  0  0  0  0  0
    0.9599   -1.1154    0.0000 C   0  0  0  0  0  0  0  0  0  0  0  0
    0.1582   -1.8097    0.0000 C   0  0  0  0  0  0  0  0  0  0  0  0
    0.7028   -2.7199    0.0000 O   0  0  0  0  0  0  0  0  0  0  0  0
    1.2428   -3.3435    0.0000 Si  0  0  0  0  0  0  0  0  0  0  0  0
    0.5349   -3.7671    0.0000 C   0  0  0  0  0  0  0  0  0  0  0  0
    1.5371   -4.1142    0.0000 C   0  0  0  0  0  0  0  0  0  0  0  0
    2.0530   -3.1876    0.0000 O   0  0  0  0  0  0  0  0  0  0  0  0
    2.3230   -2.4080    0.0000 Si  0  0  0  0  0  0  0  0  0  0  0  0
    2.6172   -3.1788    0.0000 C   0  0  0  0  0  0  0  0  0  0  0  0
    3.0438   -2.8093    0.0000 C   0  0  0  0  0  0  0  0  0  0  0  0
    3.1332   -2.2521    0.0000 O   0  0  0  0  0  0  0  0  0  0  0  0
    3.4032   -1.4726    0.0000 Si  0  0  0  0  0  0  0  0  0  0  0  0
    4.1917   -1.7152    0.0000 C   0  0  0  0  0  0  0  0  0  0  0  0
    4.0453   -0.9546    0.0000 C   0  0  0  0  0  0  0  0  0  0  0  0
  2  1  1  0  0  0  0
  2  3  1  0  0  0  0
  2  4  1  0  0  0  0
  5  2  1  0  0  0  0
  6  5  1  0  0  0  0
  6  7  1  0  0  0  0
  6  8  1  0  0  0  0
  9  6  1  0  0  0  0
 10  9  1  0  0  0  0
 10 11  1  0  0  0  0
 10 12  1  0  0  0  0
 13 10  1  0  0  0  0
 14 13  1  0  0  0  0
 14 15  1  0  0  0  0
 14 16  1  0  0  0  0
 17 14  1  0  0  0  0
 18 17  1  0  0  0  0
  1 18  1  0  0  0  0
 18 19  1  0  0  0  0
 18 20  1  0  0  0  0
M  END
> <ChemID>
100917

> <CAS>
541-02-6

> <Original_SMILES>
C[Si]1(C)O[Si](C)(C)O[Si](C)(C)O[Si](C)(C)O[Si](C)(C)O1

> <preferred_name>
Decamethylcyclopentasiloxane

> <dsstox_substance_id>
DTXSID1027184

> <dsstox_compound_id>
DTXCID907184

> <qc_level>
DSSTox_Low

> <Canonical_QSARr>
C[Si]1(C)O[Si](C)(C)O[Si](C)(C)O[Si](C)(C)O[Si](C)(C)O1

> <InChI_Code_QSARr>
InChI=1S/C10H30O5Si5/c1-16(2)11-17(3,4)13-19(7,8)15-20(9,10)14-18(5,6)12-16/h1-10H3

> <InChI Key_QSARr>
XMSXQFUHVRWGNA-UHFFFAOYSA-N

> <Salt_Solvent>


> <Salt_Solvent_ID>
0

> <MPID>
102571

> <HL Reference>
SEHSC (2009)

> <HL Temperature>
25

> <LogHL>
1.518513939877887

> <Tr_1_Tst_0>
0

$$$$
100920
  Mrv171c012241914302D          

  8  8  0  0  0  0            999 V2000
    0.1795   -1.9594    0.0000 Cl  0  0  0  0  0  0  0  0  0  0  0  0
    0.8940   -1.5469    0.0000 C   0  0  0  0  0  0  0  0  0  0  0  0
    1.6084   -1.9594    0.0000 C   0  0  0  0  0  0  0  0  0  0  0  0
    2.3229   -1.5469    0.0000 C   0  0  0  0  0  0  0  0  0  0  0  0
    2.3229   -0.7219    0.0000 C   0  0  0  0  0  0  0  0  0  0  0  0
    1.6084   -0.3094    0.0000 C   0  0  0  0  0  0  0  0  0  0  0  0
    1.6084    0.5156    0.0000 Cl  0  0  0  0  0  0  0  0  0  0  0  0
    0.8940   -0.7219    0.0000 C   0  0  0  0  0  0  0  0  0  0  0  0
  1  2  1  0  0  0  0
  3  2  1  0  0  0  0
  4  3  2  0  0  0  0
  5  4  1  0  0  0  0
  6  5  2  0  0  0  0
  6  7  1  0  0  0  0
  8  6  1  0  0  0  0
  2  8  2  0  0  0  0
M  END
> <ChemID>
100920

> <CAS>
541-73-1

> <Original_SMILES>
Clc1cc(Cl)ccc1

> <preferred_name>
1,3-Dichlorobenzene

> <dsstox_substance_id>
DTXSID6022056

> <dsstox_compound_id>
DTXCID102056

> <qc_level>
DSSTox_Low

> <Canonical_QSARr>
ClC1=CC(Cl)=CC=C1

> <InChI_Code_QSARr>
InChI=1S/C6H4Cl2/c7-5-2-1-3-6(8)4-5/h1-4H

> <InChI Key_QSARr>
ZPQOPVIELGIULI-UHFFFAOYSA-N

> <Salt_Solvent>


> <Salt_Solvent_ID>
0

> <MPID>
102572

> <HL Reference>
WARNER,HP ET AL. (1987)

> <HL Temperature>
25

> <LogHL>
-2.58004425151024

> <Tr_1_Tst_0>
1

$$$$
100923
  Mrv171c012241914302D          

  5  4  0  0  0  0            999 V2000
    1.2375    0.7145    0.0000 Cl  0  0  0  0  0  0  0  0  0  0  0  0
    0.8250    0.0000    0.0000 C   0  0  0  0  0  0  0  0  0  0  0  0
    0.0000    0.0000    0.0000 C   0  0  0  0  0  0  0  0  0  0  0  0
   -0.4125   -0.7145    0.0000 C   0  0  0  0  0  0  0  0  0  0  0  0
    0.0000   -1.4289    0.0000 Cl  0  0  0  0  0  0  0  0  0  0  0  0
  2  1  1  4  0  0  0
  2  3  2  0  0  0  0
  3  4  1  0  0  0  0
  4  5  1  0  0  0  0
M  END
> <ChemID>
100923

> <CAS>
542-75-6|10061-01-5|10061-02-6

> <Original_SMILES>
ClC=CCCl

> <preferred_name>
1,3-Dichloropropene|(Z)-Dichloropropene|trans-1,3-Dichloropropene

> <dsstox_substance_id>
DTXSID1022057|DTXSID1032305|DTXSID2042480

> <dsstox_compound_id>
DTXCID501307|DTXCID9012305|DTXCID8028131

> <qc_level>
DSSTox_Low

> <Canonical_QSARr>
ClC=CCCl

> <InChI_Code_QSARr>
InChI=1S/C3H4Cl2/c4-2-1-3-5/h1-2H,3H2

> <InChI Key_QSARr>
UOORRWUZONOOLO-UHFFFAOYSA-N

> <Salt_Solvent>


> <Salt_Solvent_ID>
0

> <MPID>
102573|102671|102672

> <HL Reference>
WARNER,HP ET AL. (1987)|LEISTRA,M (1970)

> <HL Temperature>
20

> <LogHL>
-2.6239708182718195

> <Tr_1_Tst_0>
1

$$$$
100926
  Mrv171c012241914302D          

  8  7  0  0  0  0            999 V2000
    3.7934    0.2063    0.0000 O   0  0  0  0  0  0  0  0  0  0  0  0
    3.0789   -0.2063    0.0000 C   0  0  0  0  0  0  0  0  0  0  0  0
    2.3645    0.2063    0.0000 C   0  0  0  0  0  0  0  0  0  0  0  0
    1.6500   -0.2062    0.0000 C   0  0  0  0  0  0  0  0  0  0  0  0
    2.3645    1.0313    0.0000 C   0  0  0  0  0  0  0  0  0  0  0  0
    4.5079   -0.2063    0.0000 N   0  3  0  0  0  0  0  0  0  0  0  0
    5.2223    0.2062    0.0000 O   0  0  0  0  0  0  0  0  0  0  0  0
    4.5079   -1.0313    0.0000 O   0  5  0  0  0  0  0  0  0  0  0  0
  1  2  1  0  0  0  0
  2  3  1  0  0  0  0
  3  4  1  0  0  0  0
  3  5  1  0  0  0  0
  1  6  1  0  0  0  0
  6  7  2  0  0  0  0
  6  8  1  0  0  0  0
M  CHG  2   6   1   8  -1
M  END
> <ChemID>
100926

> <CAS>
543-29-3

> <Original_SMILES>
CC(C)CO[N+]([O-])=O

> <preferred_name>
Isobutyl nitrate

> <dsstox_substance_id>
DTXSID70202655

> <dsstox_compound_id>
DTXCID00125146

> <qc_level>
Public_Medium

> <Canonical_QSARr>
CC(C)CO[N+]([O-])=O

> <InChI_Code_QSARr>
InChI=1S/C4H9NO3/c1-4(2)3-8-5(6)7/h4H,3H2,1-2H3

> <InChI Key_QSARr>
LNNXFUZKZLXPOF-UHFFFAOYSA-N

> <Salt_Solvent>


> <Salt_Solvent_ID>
0

> <MPID>
102574

> <HL Reference>
HAUFF,K ET AL. (1998)

> <HL Temperature>
25

> <LogHL>
-2.647817481888638

> <Tr_1_Tst_0>
1

$$$$
100928
  Mrv171c012241914302D          

  6  5  0  0  0  0            999 V2000
    0.7168    0.0029    0.0000 C   0  0  0  0  0  0  0  0  0  0  0  0
    0.0023   -0.4096    0.0000 Cl  0  0  0  0  0  0  0  0  0  0  0  0
    1.4312   -0.4096    0.0000 C   0  0  0  0  0  0  0  0  0  0  0  0
    2.1457    0.0029    0.0000 C   0  0  0  0  0  0  0  0  0  0  0  0
    2.8602   -0.4096    0.0000 C   0  0  0  0  0  0  0  0  0  0  0  0
    3.5746    0.0029    0.0000 C   0  0  0  0  0  0  0  0  0  0  0  0
  1  2  1  0  0  0  0
  1  3  1  0  0  0  0
  3  4  1  0  0  0  0
  4  5  1  0  0  0  0
  5  6  1  0  0  0  0
M  END
> <ChemID>
100928

> <CAS>
543-59-9

> <Original_SMILES>
CCCCCCl

> <preferred_name>


> <dsstox_substance_id>
DTXSID40870603

> <dsstox_compound_id>
DTXCID10818310

> <qc_level>


> <Canonical_QSARr>
CCCCCCl

> <InChI_Code_QSARr>
InChI=1S/C5H11Cl/c1-2-3-4-5-6/h2-5H2,1H3

> <InChI Key_QSARr>
SQCZQTSHSZLZIQ-UHFFFAOYSA-N

> <Salt_Solvent>


> <Salt_Solvent_ID>
0

> <MPID>
102575

> <HL Reference>
LEIGHTON,DTJR & CALO,JM (1981)

> <HL Temperature>
25

> <LogHL>
-1.6234230429434886

> <Tr_1_Tst_0>
1

$$$$
100929
  Mrv171c012241914302D          

  9  8  0  0  0  0            999 V2000
   -1.4289    0.2062    0.0000 N   0  3  0  0  0  0  0  0  0  0  0  0
   -0.7145   -0.2063    0.0000 O   0  0  0  0  0  0  0  0  0  0  0  0
    0.0000    0.2062    0.0000 C   0  0  0  0  0  0  0  0  0  0  0  0
    0.7145   -0.2063    0.0000 C   0  0  0  0  0  0  0  0  0  0  0  0
    1.4289    0.2062    0.0000 C   0  0  0  0  0  0  0  0  0  0  0  0
    2.1434   -0.2063    0.0000 C   0  0  0  0  0  0  0  0  0  0  0  0
    1.4289    1.0312    0.0000 C   0  0  0  0  0  0  0  0  0  0  0  0
   -2.1434   -0.2063    0.0000 O   0  0  0  0  0  0  0  0  0  0  0  0
   -1.4289    1.0312    0.0000 O   0  5  0  0  0  0  0  0  0  0  0  0
  1  2  1  0  0  0  0
  2  3  1  0  0  0  0
  3  4  1  0  0  0  0
  4  5  1  0  0  0  0
  5  6  1  0  0  0  0
  5  7  1  0  0  0  0
  1  8  2  0  0  0  0
  1  9  1  0  0  0  0
M  CHG  2   1   1   9  -1
M  END
> <ChemID>
100929

> <CAS>
543-87-3

> <Original_SMILES>
CC(C)CCO[N+]([O-])=O

> <preferred_name>
Isoamyl nitrate

> <dsstox_substance_id>
DTXSID70110029

> <dsstox_compound_id>
DTXCID4065284

> <qc_level>
DSSTox_High

> <Canonical_QSARr>
CC(C)CCO[N+]([O-])=O

> <InChI_Code_QSARr>
InChI=1S/C5H11NO3/c1-5(2)3-4-9-6(7)8/h5H,3-4H2,1-2H3

> <InChI Key_QSARr>
NTHGIYFSMNNHSC-UHFFFAOYSA-N

> <Salt_Solvent>


> <Salt_Solvent_ID>
0

> <MPID>
102576|102687

> <HL Reference>
HAUFF,K ET AL. (1998)

> <HL Temperature>
25

> <LogHL>
-2.5867002359187476

> <Tr_1_Tst_0>
0

$$$$
100931
  Mrv171c012241914302D          

  7  6  0  0  0  0            999 V2000
    3.9039    1.4289    0.0000 C   0  0  0  0  0  0  0  0  0  0  0  0
    3.1894    1.8414    0.0000 C   0  0  0  0  0  0  0  0  0  0  0  0
    2.4749    1.4289    0.0000 C   0  0  0  0  0  0  0  0  0  0  0  0
    1.7605    1.8414    0.0000 Cl  0  0  0  0  0  0  0  0  0  0  0  0
    4.6184    1.8414    0.0000 C   0  0  0  0  0  0  0  0  0  0  0  0
    5.3328    1.4289    0.0000 C   0  0  0  0  0  0  0  0  0  0  0  0
    6.0473    1.8414    0.0000 C   0  0  0  0  0  0  0  0  0  0  0  0
  1  2  1  0  0  0  0
  2  3  1  0  0  0  0
  3  4  1  0  0  0  0
  1  5  1  0  0  0  0
  5  6  1  0  0  0  0
  6  7  1  0  0  0  0
M  END
> <ChemID>
100931

> <CAS>
544-10-5

> <Original_SMILES>
CCCCCCCl

> <preferred_name>
1-Chlorohexane

> <dsstox_substance_id>
DTXSID1060265

> <dsstox_compound_id>
DTXCID7041704

> <qc_level>
Public_High

> <Canonical_QSARr>
CCCCCCCl

> <InChI_Code_QSARr>
InChI=1S/C6H13Cl/c1-2-3-4-5-6-7/h2-6H2,1H3

> <InChI Key_QSARr>
MLRVZFYXUZQSRU-UHFFFAOYSA-N

> <Salt_Solvent>


> <Salt_Solvent_ID>
0

> <MPID>
102577

> <HL Reference>
LEIGHTON,DTJR & CALO,JM (1981)

> <HL Temperature>
25

> <LogHL>
-1.6161846340195702

> <Tr_1_Tst_0>
1

$$$$
100937
  Mrv171c012241914302D          

  6  5  0  0  0  0            999 V2000
    1.4346   -0.8268    0.0000 C   0  0  0  0  0  0  0  0  0  0  0  0
    1.0221   -1.5413    0.0000 O   0  0  0  0  0  0  0  0  0  0  0  0
    2.2596   -0.8268    0.0000 O   0  0  0  0  0  0  0  0  0  0  0  0
    2.6721   -1.5413    0.0000 C   0  0  0  0  0  0  0  0  0  0  0  0
    1.0221   -0.1124    0.0000 C   0  0  0  0  0  0  0  0  0  0  0  0
    0.1971   -0.1124    0.0000 C   0  0  0  0  0  0  0  0  0  0  0  0
  1  2  2  0  0  0  0
  1  3  1  0  0  0  0
  3  4  1  0  0  0  0
  1  5  1  0  0  0  0
  5  6  1  0  0  0  0
M  END
> <ChemID>
100937

> <CAS>
554-12-1

> <Original_SMILES>
CCC(=O)OC

> <preferred_name>
Methyl propanoate

> <dsstox_substance_id>
DTXSID7027201

> <dsstox_compound_id>
DTXCID507201

> <qc_level>
DSSTox_Low

> <Canonical_QSARr>
CCC(=O)OC

> <InChI_Code_QSARr>
InChI=1S/C4H8O2/c1-3-4(5)6-2/h3H2,1-2H3

> <InChI Key_QSARr>
RJUFJBKOKNCXHH-UHFFFAOYSA-N

> <Salt_Solvent>


> <Salt_Solvent_ID>
0

> <MPID>
102578

> <HL Reference>
BUTTERY,RG ET AL. (1969)

> <HL Temperature>
25

> <LogHL>
-3.759450751717402

> <Tr_1_Tst_0>
0

$$$$
100938
  Mrv171c012241914302D          

  6  6  0  0  0  0            999 V2000
    0.5678    1.1143    0.0000 C   0  0  0  0  0  0  0  0  0  0  0  0
    0.5678    1.9393    0.0000 C   0  0  0  0  0  0  0  0  0  0  0  0
   -0.0997    0.6294    0.0000 S   0  0  0  0  0  0  0  0  0  0  0  0
    0.1553   -0.1553    0.0000 C   0  0  0  0  0  0  0  0  0  0  0  0
    0.9803   -0.1553    0.0000 C   0  0  0  0  0  0  0  0  0  0  0  0
    1.2352    0.6294    0.0000 C   0  0  0  0  0  0  0  0  0  0  0  0
  1  2  1  0  0  0  0
  3  1  1  0  0  0  0
  4  3  1  0  0  0  0
  5  4  2  0  0  0  0
  6  5  1  0  0  0  0
  1  6  2  0  0  0  0
M  END
> <ChemID>
100938

> <CAS>
554-14-3

> <Original_SMILES>
Cc1ccc[s]1

> <preferred_name>
Thiophene, 2-methyl-

> <dsstox_substance_id>
DTXSID3060291

> <dsstox_compound_id>
DTXCID7041883

> <qc_level>
Public_High

> <Canonical_QSARr>
CC1=CC=CS1

> <InChI_Code_QSARr>
InChI=1S/C5H6S/c1-5-3-2-4-6-5/h2-4H,1H3

> <InChI Key_QSARr>
XQQBUAPQHNYYRS-UHFFFAOYSA-N

> <Salt_Solvent>


> <Salt_Solvent_ID>
0

> <MPID>
102579

> <HL Reference>
PRZYJAZNY,A ET AL. (1983)

> <HL Temperature>
25

> <LogHL>
-2.61798295742513

> <Tr_1_Tst_0>
1

$$$$
100939
  Mrv171c012241914302D          

 10 10  0  0  0  0            999 V2000
    2.8524   -2.6048    0.0000 O   0  0  0  0  0  0  0  0  0  0  0  0
    2.1380   -2.1923    0.0000 C   0  0  0  0  0  0  0  0  0  0  0  0
    2.1380   -1.3673    0.0000 C   0  0  0  0  0  0  0  0  0  0  0  0
    1.4235   -0.9548    0.0000 C   0  0  0  0  0  0  0  0  0  0  0  0
    1.4235   -0.1298    0.0000 N   0  3  0  0  0  0  0  0  0  0  0  0
    0.7090    0.2827    0.0000 O   0  0  0  0  0  0  0  0  0  0  0  0
    2.1380    0.2827    0.0000 O   0  5  0  0  0  0  0  0  0  0  0  0
    0.7090   -1.3673    0.0000 C   0  0  0  0  0  0  0  0  0  0  0  0
    0.7090   -2.1923    0.0000 C   0  0  0  0  0  0  0  0  0  0  0  0
    1.4235   -2.6048    0.0000 C   0  0  0  0  0  0  0  0  0  0  0  0
  1  2  1  0  0  0  0
  3  2  1  0  0  0  0
  4  3  2  0  0  0  0
  4  5  1  0  0  0  0
  5  6  2  0  0  0  0
  5  7  1  0  0  0  0
  8  4  1  0  0  0  0
  9  8  2  0  0  0  0
 10  9  1  0  0  0  0
  2 10  2  0  0  0  0
M  CHG  2   5   1   7  -1
M  END
> <ChemID>
100939

> <CAS>
554-84-7

> <Original_SMILES>
[O-][N+](=O)c1cccc(O)c1

> <preferred_name>
3-Nitrophenol

> <dsstox_substance_id>
DTXSID2025765

> <dsstox_compound_id>
DTXCID705765

> <qc_level>
DSSTox_Low

> <Canonical_QSARr>
[O-][N+](=O)C1C=CC=C(O)C=1

> <InChI_Code_QSARr>
InChI=1S/C6H5NO3/c8-6-3-1-2-5(4-6)7(9)10/h1-4,8H

> <InChI Key_QSARr>
RTZZCYNQPHTPPL-UHFFFAOYSA-N

> <Salt_Solvent>


> <Salt_Solvent_ID>
0

> <MPID>
102580

> <HL Reference>
GAFFNEY,JS ET AL. (1987)

> <HL Temperature>
25

> <LogHL>
-8.698970004336033

> <Tr_1_Tst_0>
1

$$$$
100942
  Mrv171c012241914302D          

 16 16  0  0  0  0            999 V2000
    2.5687   -1.0490    0.0000 O   0  0  0  0  0  0  0  0  0  0  0  0
    1.8065   -0.7333    0.0000 Si  0  0  0  0  0  0  0  0  0  0  0  0
    2.3087   -0.0788    0.0000 C   0  0  0  0  0  0  0  0  0  0  0  0
    1.3042   -0.0788    0.0000 C   0  0  0  0  0  0  0  0  0  0  0  0
    1.0443   -1.0490    0.0000 O   0  0  0  0  0  0  0  0  0  0  0  0
    0.7285   -1.8112    0.0000 Si  0  0  0  0  0  0  0  0  0  0  0  0
    0.0740   -1.3090    0.0000 C   0  0  0  0  0  0  0  0  0  0  0  0
    0.0740   -2.3135    0.0000 C   0  0  0  0  0  0  0  0  0  0  0  0
    1.0443   -2.5734    0.0000 O   0  0  0  0  0  0  0  0  0  0  0  0
    1.8065   -2.8892    0.0000 Si  0  0  0  0  0  0  0  0  0  0  0  0
    1.3042   -3.5437    0.0000 C   0  0  0  0  0  0  0  0  0  0  0  0
    2.3087   -3.5437    0.0000 C   0  0  0  0  0  0  0  0  0  0  0  0
    2.5687   -2.5734    0.0000 O   0  0  0  0  0  0  0  0  0  0  0  0
    2.8844   -1.8112    0.0000 Si  0  0  0  0  0  0  0  0  0  0  0  0
    3.6243   -2.1761    0.0000 C   0  0  0  0  0  0  0  0  0  0  0  0
    3.6243   -1.4464    0.0000 C   0  0  0  0  0  0  0  0  0  0  0  0
  2  1  1  0  0  0  0
  2  3  1  0  0  0  0
  2  4  1  0  0  0  0
  5  2  1  0  0  0  0
  6  5  1  0  0  0  0
  6  7  1  0  0  0  0
  6  8  1  0  0  0  0
  9  6  1  0  0  0  0
 10  9  1  0  0  0  0
 10 11  1  0  0  0  0
 10 12  1  0  0  0  0
 13 10  1  0  0  0  0
 14 13  1  0  0  0  0
  1 14  1  0  0  0  0
 14 15  1  0  0  0  0
 14 16  1  0  0  0  0
M  END
> <ChemID>
100942

> <CAS>
556-67-2

> <Original_SMILES>
C[Si]1(C)O[Si](C)(C)O[Si](C)(C)O[Si](C)(C)O1

> <preferred_name>
Octamethylcyclotetrasiloxane

> <dsstox_substance_id>
DTXSID7027205

> <dsstox_compound_id>
DTXCID107205

> <qc_level>
DSSTox_Low

> <Canonical_QSARr>
C[Si]1(C)O[Si](C)(C)O[Si](C)(C)O[Si](C)(C)O1

> <InChI_Code_QSARr>
InChI=1S/C8H24O4Si4/c1-13(2)9-14(3,4)11-16(7,8)12-15(5,6)10-13/h1-8H3

> <InChI Key_QSARr>
HMMGMWAXVFQUOA-UHFFFAOYSA-N

> <Salt_Solvent>


> <Salt_Solvent_ID>
0

> <MPID>
102581

> <HL Reference>
SEHSC (2009)

> <HL Temperature>
22

> <LogHL>
1.0791812460476244

> <Tr_1_Tst_0>
1

$$$$
100948
  Mrv171c012241914302D          

 26 28  0  0  0  0            999 V2000
    5.0293   -7.0191    0.0000 C   0  0  0  0  0  0  0  0  0  0  0  0
    4.3148   -6.6066    0.0000 C   0  0  0  0  0  0  0  0  0  0  0  0
    4.3148   -5.7816    0.0000 C   0  0  0  0  0  0  0  0  0  0  0  0
    3.6004   -5.3691    0.0000 C   0  0  0  0  0  0  0  0  0  0  0  0
    3.6004   -4.5441    0.0000 O   0  0  0  0  0  0  0  0  0  0  0  0
    4.3148   -4.1316    0.0000 P   0  0  0  0  0  0  0  0  0  0  0  0
    5.0293   -3.7191    0.0000 O   0  0  0  0  0  0  0  0  0  0  0  0
    5.0293   -2.8941    0.0000 C   0  0  0  0  0  0  0  0  0  0  0  0
    5.7438   -2.4816    0.0000 C   0  0  0  0  0  0  0  0  0  0  0  0
    5.7438   -1.6566    0.0000 C   0  0  0  0  0  0  0  0  0  0  0  0
    5.0293   -1.2441    0.0000 C   0  0  0  0  0  0  0  0  0  0  0  0
    4.3148   -1.6566    0.0000 C   0  0  0  0  0  0  0  0  0  0  0  0
    3.6004   -1.2441    0.0000 C   0  0  0  0  0  0  0  0  0  0  0  0
    4.3148   -2.4816    0.0000 C   0  0  0  0  0  0  0  0  0  0  0  0
    4.7273   -4.8461    0.0000 O   0  0  0  0  0  0  0  0  0  0  0  0
    5.5523   -4.8461    0.0000 C   0  0  0  0  0  0  0  0  0  0  0  0
    5.9648   -5.5605    0.0000 C   0  0  0  0  0  0  0  0  0  0  0  0
    6.7898   -5.5605    0.0000 C   0  0  0  0  0  0  0  0  0  0  0  0
    7.2023   -4.8461    0.0000 C   0  0  0  0  0  0  0  0  0  0  0  0
    6.7898   -4.1316    0.0000 C   0  0  0  0  0  0  0  0  0  0  0  0
    7.2023   -3.4171    0.0000 C   0  0  0  0  0  0  0  0  0  0  0  0
    5.9648   -4.1316    0.0000 C   0  0  0  0  0  0  0  0  0  0  0  0
    3.9023   -3.4171    0.0000 O   0  0  0  0  0  0  0  0  0  0  0  0
    2.8859   -5.7816    0.0000 C   0  0  0  0  0  0  0  0  0  0  0  0
    2.8859   -6.6066    0.0000 C   0  0  0  0  0  0  0  0  0  0  0  0
    3.6004   -7.0191    0.0000 C   0  0  0  0  0  0  0  0  0  0  0  0
  1  2  1  0  0  0  0
  3  2  1  0  0  0  0
  4  3  2  0  0  0  0
  4  5  1  0  0  0  0
  5  6  1  0  0  0  0
  6  7  1  0  0  0  0
  7  8  1  0  0  0  0
  9  8  1  0  0  0  0
 10  9  2  0  0  0  0
 11 10  1  0  0  0  0
 12 11  2  0  0  0  0
 12 13  1  0  0  0  0
 14 12  1  0  0  0  0
  8 14  2  0  0  0  0
  6 15  1  0  0  0  0
 15 16  1  0  0  0  0
 17 16  1  0  0  0  0
 18 17  2  0  0  0  0
 19 18  1  0  0  0  0
 20 19  2  0  0  0  0
 20 21  1  0  0  0  0
 22 20  1  0  0  0  0
 16 22  2  0  0  0  0
  6 23  2  0  0  0  0
 24  4  1  0  0  0  0
 25 24  2  0  0  0  0
 26 25  1  0  0  0  0
  2 26  2  0  0  0  0
M  END
> <ChemID>
100948

> <CAS>
563-04-2

> <Original_SMILES>
Cc1cc(ccc1)OP(=O)(Oc1cc(C)ccc1)Oc1cc(C)ccc1

> <preferred_name>
Tri-m-tolyl phosphate

> <dsstox_substance_id>
DTXSID4026216

> <dsstox_compound_id>
DTXCID706216

> <qc_level>
DSSTox_Low

> <Canonical_QSARr>
CC1C=C(C=CC=1)OP(=O)(OC1=CC(C)=CC=C1)OC1=CC(C)=CC=C1

> <InChI_Code_QSARr>
InChI=1S/C21H21O4P/c1-16-7-4-10-19(13-16)23-26(22,24-20-11-5-8-17(2)14-20)25-21-12-6-9-18(3)15-21/h4-15H,1-3H3

> <InChI Key_QSARr>
RMLPZKRPSQVRAB-UHFFFAOYSA-N

> <Salt_Solvent>


> <Salt_Solvent_ID>
0

> <MPID>
102582

> <HL Reference>
MUIR,DCG ET AL. (1985)

> <HL Temperature>
25

> <LogHL>
-4.080921907623928

> <Tr_1_Tst_0>
1

$$$$
100962
  Mrv171c012241914302D          

 12 13  0  0  0  0            999 V2000
    0.7145   -0.4125    0.0000 C   0  0  0  0  0  0  0  0  0  0  0  0
   -0.0000    0.0000    0.0000 C   0  0  0  0  0  0  0  0  0  0  0  0
   -0.0000    0.8250    0.0000 C   0  0  0  0  0  0  0  0  0  0  0  0
   -0.7145   -0.4125    0.0000 C   0  0  0  0  0  0  0  0  0  0  0  0
   -0.7145   -1.2375    0.0000 C   0  0  0  0  0  0  0  0  0  0  0  0
   -0.0000   -1.6500    0.0000 C   0  0  0  0  0  0  0  0  0  0  0  0
    0.7145   -1.2375    0.0000 C   0  0  0  0  0  0  0  0  0  0  0  0
    1.4289   -1.6500    0.0000 C   0  0  0  0  0  0  0  0  0  0  0  0
    1.4289   -2.4750    0.0000 C   0  0  0  0  0  0  0  0  0  0  0  0
    2.1434   -1.2375    0.0000 C   0  0  0  0  0  0  0  0  0  0  0  0
    2.1434   -0.4125    0.0000 C   0  0  0  0  0  0  0  0  0  0  0  0
    1.4289    0.0000    0.0000 C   0  0  0  0  0  0  0  0  0  0  0  0
  2  1  1  0  0  0  0
  2  3  1  0  0  0  0
  4  2  2  0  0  0  0
  5  4  1  0  0  0  0
  6  5  2  0  0  0  0
  7  6  1  0  0  0  0
  7  1  1  0  0  0  0
  8  7  2  0  0  0  0
  8  9  1  0  0  0  0
 10  8  1  0  0  0  0
 11 10  2  0  0  0  0
 12 11  1  0  0  0  0
  1 12  2  0  0  0  0
M  END
> <ChemID>
100962

> <CAS>
571-61-9

> <Original_SMILES>
Cc1cccc2c1cccc2C

> <preferred_name>
1,5-Dimethylnaphthalene

> <dsstox_substance_id>
DTXSID0060351

> <dsstox_compound_id>
DTXCID5042166

> <qc_level>
Public_High

> <Canonical_QSARr>
CC1C=CC=C2C=1C=CC=C2C

> <InChI_Code_QSARr>
InChI=1S/C12H12/c1-9-5-3-8-12-10(2)6-4-7-11(9)12/h3-8H,1-2H3

> <InChI Key_QSARr>
SDDBCEWUYXVGCQ-UHFFFAOYSA-N

> <Salt_Solvent>


> <Salt_Solvent_ID>
0

> <MPID>
102583

> <HL Reference>
MACKAY,D ET AL. (1982A)

> <HL Temperature>
25

> <LogHL>
-3.455931955649726

> <Tr_1_Tst_0>
1

$$$$
100964
  Mrv171c012241914302D          

  9  9  0  0  0  0            999 V2000
    2.1401   -1.2328    0.0000 C   0  0  0  0  0  0  0  0  0  0  0  0
    2.8545   -0.8203    0.0000 C   0  0  0  0  0  0  0  0  0  0  0  0
    1.4256   -0.8203    0.0000 C   0  0  0  0  0  0  0  0  0  0  0  0
    1.4256    0.0047    0.0000 O   0  0  0  0  0  0  0  0  0  0  0  0
    0.7111   -1.2328    0.0000 C   0  0  0  0  0  0  0  0  0  0  0  0
   -0.0034   -0.8203    0.0000 C   0  0  0  0  0  0  0  0  0  0  0  0
    0.7111   -2.0578    0.0000 C   0  0  0  0  0  0  0  0  0  0  0  0
    1.4256   -2.4703    0.0000 C   0  0  0  0  0  0  0  0  0  0  0  0
    2.1401   -2.0578    0.0000 C   0  0  0  0  0  0  0  0  0  0  0  0
  1  2  1  0  0  0  0
  3  1  2  0  0  0  0
  3  4  1  0  0  0  0
  5  3  1  0  0  0  0
  5  6  1  0  0  0  0
  7  5  2  0  0  0  0
  8  7  1  0  0  0  0
  9  8  2  0  0  0  0
  1  9  1  0  0  0  0
M  END
> <ChemID>
100964

> <CAS>
576-26-1

> <Original_SMILES>
Cc1cccc(C)c1O

> <preferred_name>
2,6-Dimethylphenol

> <dsstox_substance_id>
DTXSID9024063

> <dsstox_compound_id>
DTXCID404063

> <qc_level>
DSSTox_Low

> <Canonical_QSARr>
CC1C=CC=C(C)C=1O

> <InChI_Code_QSARr>
InChI=1S/C8H10O/c1-6-4-3-5-7(2)8(6)9/h3-5,9H,1-2H3

> <InChI Key_QSARr>
NXXYKOUNUYWIHA-UHFFFAOYSA-N

> <Salt_Solvent>


> <Salt_Solvent_ID>
0

> <MPID>
102584

> <HL Reference>
HAWTHORNE,SB ET AL. (1985)

> <HL Temperature>
25

> <LogHL>
-5.17717835469689

> <Tr_1_Tst_0>
1

$$$$
100966
  Mrv171c012241914302D          

 12 13  0  0  0  0            999 V2000
   -0.0000   -0.4125    0.0000 C   0  0  0  0  0  0  0  0  0  0  0  0
   -0.7145    0.0000    0.0000 C   0  0  0  0  0  0  0  0  0  0  0  0
   -1.4289   -0.4125    0.0000 C   0  0  0  0  0  0  0  0  0  0  0  0
   -1.4289   -1.2375    0.0000 C   0  0  0  0  0  0  0  0  0  0  0  0
   -0.7145   -1.6500    0.0000 C   0  0  0  0  0  0  0  0  0  0  0  0
   -0.0000   -1.2375    0.0000 C   0  0  0  0  0  0  0  0  0  0  0  0
    0.7145   -1.6500    0.0000 C   0  0  0  0  0  0  0  0  0  0  0  0
    1.4289   -1.2375    0.0000 C   0  0  0  0  0  0  0  0  0  0  0  0
    2.1434   -1.6500    0.0000 C   0  0  0  0  0  0  0  0  0  0  0  0
    1.4289   -0.4125    0.0000 C   0  0  0  0  0  0  0  0  0  0  0  0
    2.1434    0.0000    0.0000 C   0  0  0  0  0  0  0  0  0  0  0  0
    0.7145    0.0000    0.0000 C   0  0  0  0  0  0  0  0  0  0  0  0
  2  1  1  0  0  0  0
  3  2  2  0  0  0  0
  4  3  1  0  0  0  0
  5  4  2  0  0  0  0
  6  5  1  0  0  0  0
  6  1  1  0  0  0  0
  7  6  2  0  0  0  0
  8  7  1  0  0  0  0
  8  9  1  0  0  0  0
 10  8  2  0  0  0  0
 10 11  1  0  0  0  0
 12 10  1  0  0  0  0
  1 12  2  0  0  0  0
M  END
> <ChemID>
100966

> <CAS>
581-40-8

> <Original_SMILES>
Cc1cc2ccccc2cc1C

> <preferred_name>
2,3-Dimethylnaphthalene

> <dsstox_substance_id>
DTXSID2060383

> <dsstox_compound_id>
DTXCID6042317

> <qc_level>
Public_High

> <Canonical_QSARr>
CC1C=C2C=CC=CC2=CC=1C

> <InChI_Code_QSARr>
InChI=1S/C12H12/c1-9-7-11-5-3-4-6-12(11)8-10(9)2/h3-8H,1-2H3

> <InChI Key_QSARr>
WWGUMAYGTYQSGA-UHFFFAOYSA-N

> <Salt_Solvent>


> <Salt_Solvent_ID>
0

> <MPID>
102585

> <HL Reference>
LION,LW & GARBARINI,D (1983)

> <HL Temperature>
25

> <LogHL>
-3.0362121726544453

> <Tr_1_Tst_0>
1

$$$$
100968
  Mrv171c012241914302D          

  8  8  0  0  0  0            999 V2000
    1.4309   -1.2410    0.0000 C   0  0  0  0  0  0  0  0  0  0  0  0
    2.1453   -0.8285    0.0000 C   0  0  0  0  0  0  0  0  0  0  0  0
    0.7164   -0.8285    0.0000 C   0  0  0  0  0  0  0  0  0  0  0  0
    0.7164   -0.0035    0.0000 C   0  0  0  0  0  0  0  0  0  0  0  0
    0.0019   -1.2410    0.0000 C   0  0  0  0  0  0  0  0  0  0  0  0
    0.0019   -2.0660    0.0000 C   0  0  0  0  0  0  0  0  0  0  0  0
    0.7164   -2.4785    0.0000 N   0  0  0  0  0  0  0  0  0  0  0  0
    1.4309   -2.0660    0.0000 C   0  0  0  0  0  0  0  0  0  0  0  0
  1  2  1  0  0  0  0
  3  1  2  0  0  0  0
  3  4  1  0  0  0  0
  5  3  1  0  0  0  0
  6  5  2  0  0  0  0
  7  6  1  0  0  0  0
  8  7  2  0  0  0  0
  1  8  1  0  0  0  0
M  END
> <ChemID>
100968

> <CAS>
583-58-4

> <Original_SMILES>
Cc1c[n]ccc1C

> <preferred_name>
3,4-Dimethylpyridine

> <dsstox_substance_id>
DTXSID1052244

> <dsstox_compound_id>
DTXCID6030815

> <qc_level>
DSSTox_Low

> <Canonical_QSARr>
CC1C=NC=CC=1C

> <InChI_Code_QSARr>
InChI=1S/C7H9N/c1-6-3-4-8-5-7(6)2/h3-5H,1-2H3

> <InChI Key_QSARr>
NURQLCJSMXZBPC-UHFFFAOYSA-N

> <Salt_Solvent>


> <Salt_Solvent_ID>
0

> <MPID>
102586

> <HL Reference>
ANDON,RJL ET AL. (1954)

> <HL Temperature>
25

> <LogHL>
-5.431798275933007

> <Tr_1_Tst_0>
1

$$$$
100969
  Mrv171c012241914302D          

  8  8  0  0  0  0            999 V2000
    0.6109   -1.1418    0.0000 C   0  0  0  0  0  0  0  0  0  0  0  0
   -0.1036   -0.7293    0.0000 O   0  0  0  0  0  0  0  0  0  0  0  0
    0.6109   -1.9668    0.0000 C   0  0  0  0  0  0  0  0  0  0  0  0
    1.3254   -2.3793    0.0000 C   0  0  0  0  0  0  0  0  0  0  0  0
    2.0398   -1.9668    0.0000 C   0  0  0  0  0  0  0  0  0  0  0  0
    2.0398   -1.1418    0.0000 C   0  0  0  0  0  0  0  0  0  0  0  0
    1.3254   -0.7293    0.0000 C   0  0  0  0  0  0  0  0  0  0  0  0
    1.3254    0.0957    0.0000 C   0  0  0  0  0  0  0  0  0  0  0  0
  1  2  1  0  0  0  0
  3  1  1  0  0  0  0
  4  3  1  0  0  0  0
  5  4  1  0  0  0  0
  6  5  1  0  0  0  0
  7  6  1  0  0  0  0
  1  7  1  0  0  0  0
  7  8  1  0  0  0  0
M  END
> <ChemID>
100969

> <CAS>
583-59-5

> <Original_SMILES>
CC1CCCCC1O

> <preferred_name>


> <dsstox_substance_id>
DTXSID90862235

> <dsstox_compound_id>
DTXCID40811031

> <qc_level>


> <Canonical_QSARr>
CC1CCCCC1O

> <InChI_Code_QSARr>
InChI=1S/C7H14O/c1-6-4-2-3-5-7(6)8/h6-8H,2-5H2,1H3

> <InChI Key_QSARr>
NDVWOBYBJYUSMF-UHFFFAOYSA-N

> <Salt_Solvent>


> <Salt_Solvent_ID>
0

> <MPID>
102587

> <HL Reference>
ALTSCHUH,J ET AL. (1999)

> <HL Temperature>
25

> <LogHL>
-5.120330794367948

> <Tr_1_Tst_0>
0

$$$$
100970
  Mrv171c012241914302D          

  8  8  0  0  0  0            999 V2000
    0.3572    0.8250    0.0000 C   0  0  0  0  0  0  0  0  0  0  0  0
   -0.3572    1.2375    0.0000 C   0  0  0  0  0  0  0  0  0  0  0  0
    0.3572   -0.0000    0.0000 C   0  0  0  0  0  0  0  0  0  0  0  0
    1.0717   -0.4125    0.0000 C   0  0  0  0  0  0  0  0  0  0  0  0
    1.7862   -0.0000    0.0000 C   0  0  0  0  0  0  0  0  0  0  0  0
    1.7862    0.8250    0.0000 N   0  0  0  0  0  0  0  0  0  0  0  0
    1.0717    1.2375    0.0000 C   0  0  0  0  0  0  0  0  0  0  0  0
    1.0717    2.0625    0.0000 C   0  0  0  0  0  0  0  0  0  0  0  0
  1  2  1  0  0  0  0
  3  1  1  0  0  0  0
  4  3  2  0  0  0  0
  5  4  1  0  0  0  0
  6  5  2  0  0  0  0
  7  6  1  0  0  0  0
  1  7  2  0  0  0  0
  7  8  1  0  0  0  0
M  END
> <ChemID>
100970

> <CAS>
583-61-9

> <Original_SMILES>
Cc1ccc[n]c1C

> <preferred_name>
2,3-Dimethylpyridine

> <dsstox_substance_id>
DTXSID6060395

> <dsstox_compound_id>
DTXCID1042360

> <qc_level>
Public_High

> <Canonical_QSARr>
CC1N=CC=CC=1C

> <InChI_Code_QSARr>
InChI=1S/C7H9N/c1-6-4-3-5-8-7(6)2/h3-5H,1-2H3

> <InChI Key_QSARr>
HPYNZHMRTTWQTB-UHFFFAOYSA-N

> <Salt_Solvent>


> <Salt_Solvent_ID>
0

> <MPID>
102588

> <HL Reference>
ANDON,RJL ET AL. (1954)

> <HL Temperature>
25

> <LogHL>
-5.141462802430343

> <Tr_1_Tst_0>
1

$$$$
100976
  Mrv171c012241914302D          

 10 10  0  0  0  0            999 V2000
    0.7093   -3.3013    0.0000 C   0  0  0  0  0  0  0  0  0  0  0  0
    0.7093   -4.1263    0.0000 C   0  0  0  0  0  0  0  0  0  0  0  0
    1.4237   -2.8888    0.0000 C   0  0  0  0  0  0  0  0  0  0  0  0
    1.4237   -2.0638    0.0000 C   0  0  0  0  0  0  0  0  0  0  0  0
    0.7093   -1.6513    0.0000 C   0  0  0  0  0  0  0  0  0  0  0  0
    0.7093   -0.8263    0.0000 C   0  0  0  0  0  0  0  0  0  0  0  0
    1.4237   -0.4138    0.0000 C   0  0  0  0  0  0  0  0  0  0  0  0
   -0.0052   -0.4138    0.0000 C   0  0  0  0  0  0  0  0  0  0  0  0
   -0.0052   -2.0638    0.0000 C   0  0  0  0  0  0  0  0  0  0  0  0
   -0.0052   -2.8888    0.0000 C   0  0  0  0  0  0  0  0  0  0  0  0
  1  2  1  0  0  0  0
  3  1  1  0  0  0  0
  4  3  1  0  0  0  0
  5  4  1  0  0  0  0
  5  6  2  0  0  0  0
  6  7  1  0  0  0  0
  6  8  1  0  0  0  0
  9  5  1  0  0  0  0
 10  9  1  0  0  0  0
  1 10  2  0  0  0  0
M  END
> <ChemID>
100976

> <CAS>
586-62-9

> <Original_SMILES>
CC(C)=C1CC=C(C)CC1

> <preferred_name>
Terpinolene

> <dsstox_substance_id>
DTXSID0027222

> <dsstox_compound_id>
DTXCID507222

> <qc_level>
DSSTox_Low

> <Canonical_QSARr>
CC(C)=C1CC=C(C)CC1

> <InChI_Code_QSARr>
InChI=1S/C10H16/c1-8(2)10-6-4-9(3)5-7-10/h4H,5-7H2,1-3H3

> <InChI Key_QSARr>
MOYAFQVGZZPNRA-UHFFFAOYSA-N

> <Salt_Solvent>


> <Salt_Solvent_ID>
0

> <MPID>
102589

> <HL Reference>
COPOLOVICI,LO & NIINEMETS,U (2005)

> <HL Temperature>
25

> <LogHL>
-1.5816987086802563

> <Tr_1_Tst_0>
1

$$$$
100981
  Mrv171c012241914302D          

  8  8  0  0  0  0            999 V2000
    0.7145   -0.4125    0.0000 C   0  0  0  0  0  0  0  0  0  0  0  0
    0.7145   -1.2375    0.0000 C   0  0  0  0  0  0  0  0  0  0  0  0
    1.4289    0.0000    0.0000 C   0  0  0  0  0  0  0  0  0  0  0  0
    1.4289    0.8250    0.0000 N   0  0  0  0  0  0  0  0  0  0  0  0
    0.7145    1.2375    0.0000 C   0  0  0  0  0  0  0  0  0  0  0  0
    0.7145    2.0625    0.0000 C   0  0  0  0  0  0  0  0  0  0  0  0
   -0.0000    0.8250    0.0000 C   0  0  0  0  0  0  0  0  0  0  0  0
   -0.0000    0.0000    0.0000 C   0  0  0  0  0  0  0  0  0  0  0  0
  1  2  1  0  0  0  0
  3  1  1  0  0  0  0
  4  3  2  0  0  0  0
  5  4  1  0  0  0  0
  5  6  1  0  0  0  0
  7  5  2  0  0  0  0
  8  7  1  0  0  0  0
  1  8  2  0  0  0  0
M  END
> <ChemID>
100981

> <CAS>
589-93-5

> <Original_SMILES>
Cc1c[n]c(C)cc1

> <preferred_name>
2,5-Dimethylpyridine

> <dsstox_substance_id>
DTXSID0060436

> <dsstox_compound_id>
DTXCID3042500

> <qc_level>
Public_High

> <Canonical_QSARr>
CC1C=NC(C)=CC=1

> <InChI_Code_QSARr>
InChI=1S/C7H9N/c1-6-3-4-7(2)8-5-6/h3-5H,1-2H3

> <InChI Key_QSARr>
XWKFPIODWVPXLX-UHFFFAOYSA-N

> <Salt_Solvent>


> <Salt_Solvent_ID>
0

> <MPID>
102590

> <HL Reference>
ANDON,RJL ET AL. (1954)

> <HL Temperature>
25

> <LogHL>
-5.061480274823501

> <Tr_1_Tst_0>
0

$$$$
100983
  Mrv171c012241914302D          

  4  3  0  0  0  0            999 V2000
    1.2375    0.7145    0.0000 C   0  0  0  0  0  0  0  0  0  0  0  0
    0.8250    0.0000    0.0000 C   0  0  0  0  0  0  0  0  0  0  0  0
    0.0000    0.0000    0.0000 C   0  0  0  0  0  0  0  0  0  0  0  0
   -0.4125   -0.7145    0.0000 C   0  0  0  0  0  0  0  0  0  0  0  0
  2  1  1  4  0  0  0
  2  3  2  0  0  0  0
  3  4  1  0  0  0  0
M  END
> <ChemID>
100983

> <CAS>
590-18-1|624-64-6

> <Original_SMILES>
C/C=C\C

> <preferred_name>
2-Butene, (2Z)-|(2E)-2-Butene

> <dsstox_substance_id>
DTXSID0027224|DTXSID7027255

> <dsstox_compound_id>
DTXCID307224|DTXCID406748

> <qc_level>
DSSTox_Low

> <Canonical_QSARr>
CC=CC

> <InChI_Code_QSARr>
InChI=1S/C4H8/c1-3-4-2/h3-4H,1-2H3

> <InChI Key_QSARr>
IAQRGUVFOMOMEM-UHFFFAOYSA-N

> <Salt_Solvent>


> <Salt_Solvent_ID>
0

> <MPID>
102591|102602

> <HL Reference>
WASIK,SP & TSANG,W (1970)

> <HL Temperature>
25

> <LogHL>
-0.6430185990068679

> <Tr_1_Tst_0>
1

$$$$
100990
  Mrv171c012241914302D          

  8  8  0  0  0  0            999 V2000
    1.9632   -1.1344    0.0000 C   0  0  0  0  0  0  0  0  0  0  0  0
    2.6777   -1.5469    0.0000 C   0  0  0  0  0  0  0  0  0  0  0  0
    1.9632   -0.3094    0.0000 C   0  0  0  0  0  0  0  0  0  0  0  0
    1.2487    0.1031    0.0000 C   0  0  0  0  0  0  0  0  0  0  0  0
    1.2487    0.9281    0.0000 C   0  0  0  0  0  0  0  0  0  0  0  0
    0.5343   -0.3094    0.0000 C   0  0  0  0  0  0  0  0  0  0  0  0
    0.5343   -1.1344    0.0000 N   0  0  0  0  0  0  0  0  0  0  0  0
    1.2487   -1.5469    0.0000 C   0  0  0  0  0  0  0  0  0  0  0  0
  1  2  1  0  0  0  0
  3  1  2  0  0  0  0
  4  3  1  0  0  0  0
  4  5  1  0  0  0  0
  6  4  2  0  0  0  0
  7  6  1  0  0  0  0
  8  7  2  0  0  0  0
  1  8  1  0  0  0  0
M  END
> <ChemID>
100990

> <CAS>
591-22-0

> <Original_SMILES>
Cc1c[n]cc(C)c1

> <preferred_name>
3,5-Dimethylpyridine

> <dsstox_substance_id>
DTXSID5052254

> <dsstox_compound_id>
DTXCID0030825

> <qc_level>
DSSTox_High

> <Canonical_QSARr>
CC1=CN=CC(C)=C1

> <InChI_Code_QSARr>
InChI=1S/C7H9N/c1-6-3-7(2)5-8-4-6/h3-5H,1-2H3

> <InChI Key_QSARr>
HWWYDZCSSYKIAD-UHFFFAOYSA-N

> <Salt_Solvent>


> <Salt_Solvent_ID>
0

> <MPID>
102592

> <HL Reference>
ANDON,RJL ET AL. (1954)

> <HL Temperature>
25

> <LogHL>
-5.16178077809237

> <Tr_1_Tst_0>
0

$$$$
100991
  Mrv171c012241914302D          

  8  8  0  0  0  0            999 V2000
    0.4935   -1.9305    0.0000 C   0  0  0  0  0  0  0  0  0  0  0  0
   -0.2210   -2.3430    0.0000 O   0  0  0  0  0  0  0  0  0  0  0  0
    1.2079   -2.3430    0.0000 C   0  0  0  0  0  0  0  0  0  0  0  0
    1.9224   -1.9305    0.0000 C   0  0  0  0  0  0  0  0  0  0  0  0
    1.9224   -1.1055    0.0000 C   0  0  0  0  0  0  0  0  0  0  0  0
    1.2079   -0.6930    0.0000 C   0  0  0  0  0  0  0  0  0  0  0  0
    1.2079    0.1320    0.0000 C   0  0  0  0  0  0  0  0  0  0  0  0
    0.4935   -1.1055    0.0000 C   0  0  0  0  0  0  0  0  0  0  0  0
  1  2  1  0  0  0  0
  3  1  1  0  0  0  0
  4  3  1  0  0  0  0
  5  4  1  0  0  0  0
  6  5  1  0  0  0  0
  6  7  1  0  0  0  0
  8  6  1  0  0  0  0
  1  8  1  0  0  0  0
M  END
> <ChemID>
100991

> <CAS>
591-23-1

> <Original_SMILES>
CC1CC(O)CCC1

> <preferred_name>


> <dsstox_substance_id>
DTXSID80870642

> <dsstox_compound_id>
DTXCID60818345

> <qc_level>


> <Canonical_QSARr>
CC1CC(O)CCC1

> <InChI_Code_QSARr>
InChI=1S/C7H14O/c1-6-3-2-4-7(8)5-6/h6-8H,2-5H2,1H3

> <InChI Key_QSARr>
HTSABYAWKQAHBT-UHFFFAOYSA-N

> <Salt_Solvent>


> <Salt_Solvent_ID>
0

> <MPID>
102593

> <HL Reference>
ALTSCHUH,J ET AL. (1999)

> <HL Temperature>
25

> <LogHL>
-5.435333935747912

> <Tr_1_Tst_0>
1

$$$$
101010
  Mrv171c012241914302D          

  3  2  0  0  0  0            999 V2000
    1.6501    0.2063    0.0000 I   0  0  0  0  0  0  0  0  0  0  0  0
    2.3646   -0.2062    0.0000 C   0  0  0  0  0  0  0  0  0  0  0  0
    3.0791    0.2063    0.0000 Cl  0  0  0  0  0  0  0  0  0  0  0  0
  1  2  1  0  0  0  0
  2  3  1  0  0  0  0
M  END
> <ChemID>
101010

> <CAS>
593-71-5

> <Original_SMILES>
ClCI

> <preferred_name>
Chloroiodomethane

> <dsstox_substance_id>
DTXSID50208034

> <dsstox_compound_id>
DTXCID70130525

> <qc_level>
Public_Medium

> <Canonical_QSARr>
ClCI

> <InChI_Code_QSARr>
InChI=1S/CH2ClI/c2-1-3/h1H2

> <InChI Key_QSARr>
PJGJQVRXEUVAFT-UHFFFAOYSA-N

> <Salt_Solvent>


> <Salt_Solvent_ID>
0

> <MPID>
102594

> <HL Reference>
MOORE,RM ET AL. (1995)

> <HL Temperature>
20

> <LogHL>
-3.0599818449923357

> <Tr_1_Tst_0>
0

$$$$
101011
  Mrv171c012241914302D          

  3  2  0  0  0  0            999 V2000
    2.4750   -0.0000    0.0000 Se  0  0  0  0  0  0  0  0  0  0  0  0
    1.6500   -0.0000    0.0000 C   0  0  0  0  0  0  0  0  0  0  0  0
    3.3000    0.0000    0.0000 C   0  0  0  0  0  0  0  0  0  0  0  0
  1  2  1  0  0  0  0
  1  3  1  0  0  0  0
M  END
> <ChemID>
101011

> <CAS>
593-79-3

> <Original_SMILES>
C[Se]C

> <preferred_name>
Methane, selenobis-

> <dsstox_substance_id>
DTXSID6074752

> <dsstox_compound_id>
DTXCID4042599

> <qc_level>
Public_High

> <Canonical_QSARr>
C[Se]C

> <InChI_Code_QSARr>
InChI=1S/C2H6Se/c1-3-2/h1-2H3

> <InChI Key_QSARr>
RVIXKDRPFPUUOO-UHFFFAOYSA-N

> <Salt_Solvent>


> <Salt_Solvent_ID>
0

> <MPID>
102595

> <HL Reference>
GUO,L ET AL. (2000)

> <HL Temperature>
25

> <LogHL>
-2.764471553092453

> <Tr_1_Tst_0>
1

$$$$
101017
  Mrv171c012241914302D          

  8  7  0  0  0  0            999 V2000
    1.5828   -1.1701    0.0000 C   0  0  0  0  0  0  0  0  0  0  0  0
    2.2973   -1.5826    0.0000 O   0  0  0  0  0  0  0  0  0  0  0  0
    0.8684   -1.5826    0.0000 O   0  0  0  0  0  0  0  0  0  0  0  0
    0.8684   -2.4076    0.0000 C   0  0  0  0  0  0  0  0  0  0  0  0
    1.5828   -0.3451    0.0000 C   0  0  0  0  0  0  0  0  0  0  0  0
    1.5828    0.4799    0.0000 C   0  0  0  0  0  0  0  0  0  0  0  0
    2.4078   -0.3451    0.0000 C   0  0  0  0  0  0  0  0  0  0  0  0
    0.7578   -0.3451    0.0000 C   0  0  0  0  0  0  0  0  0  0  0  0
  1  2  2  0  0  0  0
  1  3  1  0  0  0  0
  3  4  1  0  0  0  0
  1  5  1  0  0  0  0
  5  6  1  0  0  0  0
  5  7  1  0  0  0  0
  5  8  1  0  0  0  0
M  END
> <ChemID>
101017

> <CAS>
598-98-1

> <Original_SMILES>
COC(=O)C(C)(C)C

> <preferred_name>
Methyl pivalate

> <dsstox_substance_id>
DTXSID4027234

> <dsstox_compound_id>
DTXCID607234

> <qc_level>
DSSTox_Low

> <Canonical_QSARr>
COC(=O)C(C)(C)C

> <InChI_Code_QSARr>
InChI=1S/C6H12O2/c1-6(2,3)5(7)8-4/h1-4H3

> <InChI Key_QSARr>
CNMFHDIDIMZHKY-UHFFFAOYSA-N

> <Salt_Solvent>


> <Salt_Solvent_ID>
0

> <MPID>
102596

> <HL Reference>
ABRAHAM,MH ET AL. (1994)

> <HL Temperature>
25

> <LogHL>
-3.3716110699496893

> <Tr_1_Tst_0>
1

$$$$
101021
  Mrv171c012241914302D          

 11 11  0  0  0  0            999 V2000
    2.2661   -1.3099    0.0000 C   0  0  0  0  0  0  0  0  0  0  0  0
    2.9805   -1.7224    0.0000 Cl  0  0  0  0  0  0  0  0  0  0  0  0
    2.2661   -0.4849    0.0000 C   0  0  0  0  0  0  0  0  0  0  0  0
    1.5516   -0.0724    0.0000 C   0  0  0  0  0  0  0  0  0  0  0  0
    1.5516    0.7526    0.0000 Cl  0  0  0  0  0  0  0  0  0  0  0  0
    0.8371   -0.4849    0.0000 C   0  0  0  0  0  0  0  0  0  0  0  0
    0.1226   -0.0724    0.0000 Cl  0  0  0  0  0  0  0  0  0  0  0  0
    0.8371   -1.3099    0.0000 C   0  0  0  0  0  0  0  0  0  0  0  0
    0.1226   -1.7224    0.0000 Cl  0  0  0  0  0  0  0  0  0  0  0  0
    1.5516   -1.7224    0.0000 C   0  0  0  0  0  0  0  0  0  0  0  0
    1.5516   -2.5474    0.0000 Cl  0  0  0  0  0  0  0  0  0  0  0  0
  1  2  1  0  0  0  0
  3  1  2  0  0  0  0
  4  3  1  0  0  0  0
  4  5  1  0  0  0  0
  6  4  2  0  0  0  0
  6  7  1  0  0  0  0
  8  6  1  0  0  0  0
  8  9  1  0  0  0  0
 10  8  2  0  0  0  0
  1 10  1  0  0  0  0
 10 11  1  0  0  0  0
M  END
> <ChemID>
101021

> <CAS>
608-93-5

> <Original_SMILES>
Clc1c(Cl)c(Cl)cc(Cl)c1Cl

> <preferred_name>
Pentachlorobenzene

> <dsstox_substance_id>
DTXSID7024247

> <dsstox_compound_id>
DTXCID804247

> <qc_level>
DSSTox_Low

> <Canonical_QSARr>
ClC1=CC(Cl)=C(Cl)C(Cl)=C1Cl

> <InChI_Code_QSARr>
InChI=1S/C6HCl5/c7-2-1-3(8)5(10)6(11)4(2)9/h1H

> <InChI Key_QSARr>
CEOCDNVZRAIOQZ-UHFFFAOYSA-N

> <Salt_Solvent>


> <Salt_Solvent_ID>
0

> <MPID>
102597

> <HL Reference>
TEN HULSCHER,TEM ET AL. (1992)

> <HL Temperature>
25

> <LogHL>
-3.153044674980176

> <Tr_1_Tst_0>
1

$$$$
101022
  Mrv171c012241914302D          

 14 14  0  0  0  0            999 V2000
    2.5068   -1.0358    0.0000 C   0  0  0  0  0  0  0  0  0  0  0  0
    1.7923   -0.6233    0.0000 C   0  0  0  0  0  0  0  0  0  0  0  0
    1.7923    0.2017    0.0000 N   0  3  0  0  0  0  0  0  0  0  0  0
    1.0779    0.6142    0.0000 O   0  0  0  0  0  0  0  0  0  0  0  0
    2.5068    0.6142    0.0000 O   0  5  0  0  0  0  0  0  0  0  0  0
    1.0779   -1.0358    0.0000 C   0  0  0  0  0  0  0  0  0  0  0  0
    1.0779   -1.8608    0.0000 C   0  0  0  0  0  0  0  0  0  0  0  0
    0.3634   -2.2733    0.0000 C   0  0  0  0  0  0  0  0  0  0  0  0
    1.7923   -2.2733    0.0000 C   0  0  0  0  0  0  0  0  0  0  0  0
    2.5068   -1.8608    0.0000 C   0  0  0  0  0  0  0  0  0  0  0  0
    3.2213   -2.2733    0.0000 N   0  3  0  0  0  0  0  0  0  0  0  0
    3.9358   -1.8608    0.0000 O   0  0  0  0  0  0  0  0  0  0  0  0
    3.2213   -3.0983    0.0000 O   0  5  0  0  0  0  0  0  0  0  0  0
    3.2213   -0.6233    0.0000 O   0  0  0  0  0  0  0  0  0  0  0  0
  2  1  1  0  0  0  0
  2  3  1  0  0  0  0
  3  4  2  0  0  0  0
  3  5  1  0  0  0  0
  6  2  2  0  0  0  0
  7  6  1  0  0  0  0
  7  8  1  0  0  0  0
  9  7  2  0  0  0  0
 10  9  1  0  0  0  0
  1 10  2  0  0  0  0
 10 11  1  0  0  0  0
 11 12  2  0  0  0  0
 11 13  1  0  0  0  0
  1 14  1  0  0  0  0
M  CHG  4   3   1   5  -1  11   1  13  -1
M  END
> <ChemID>
101022

> <CAS>
609-93-8

> <Original_SMILES>
Cc1cc(c(O)c(c1)[N+]([O-])=O)[N+]([O-])=O

> <preferred_name>
4-Methyl-2,6-dinitrophenol

> <dsstox_substance_id>
DTXSID9027239

> <dsstox_compound_id>
DTXCID607239

> <qc_level>
DSSTox_Low

> <Canonical_QSARr>
CC1=CC(=C(O)C(=C1)[N+]([O-])=O)[N+]([O-])=O

> <InChI_Code_QSARr>
InChI=1S/C7H6N2O5/c1-4-2-5(8(11)12)7(10)6(3-4)9(13)14/h2-3,10H,1H3

> <InChI Key_QSARr>
HOYRZHJJAHRMLL-UHFFFAOYSA-N

> <Salt_Solvent>


> <Salt_Solvent_ID>
0

> <MPID>
102598

> <HL Reference>
TREMP,J ET AL. (1993)

> <HL Temperature>
20

> <LogHL>
-7.275724130399215

> <Tr_1_Tst_0>
0

$$$$
101030
  Mrv171c012241914302D          

  9  9  0  0  0  0            999 V2000
    2.3038   -0.9648    0.0000 C   0  0  0  0  0  0  0  0  0  0  0  0
    1.5893   -0.5523    0.0000 C   0  0  0  0  0  0  0  0  0  0  0  0
    1.5893    0.2727    0.0000 C   0  0  0  0  0  0  0  0  0  0  0  0
    0.8749    0.6852    0.0000 C   0  0  0  0  0  0  0  0  0  0  0  0
    0.8749   -0.9648    0.0000 C   0  0  0  0  0  0  0  0  0  0  0  0
    0.8749   -1.7898    0.0000 C   0  0  0  0  0  0  0  0  0  0  0  0
    1.5893   -2.2023    0.0000 C   0  0  0  0  0  0  0  0  0  0  0  0
    2.3038   -1.7898    0.0000 C   0  0  0  0  0  0  0  0  0  0  0  0
    3.0183   -2.2023    0.0000 O   0  0  0  0  0  0  0  0  0  0  0  0
  2  1  1  0  0  0  0
  2  3  1  0  0  0  0
  3  4  1  0  0  0  0
  5  2  2  0  0  0  0
  6  5  1  0  0  0  0
  7  6  2  0  0  0  0
  8  7  1  0  0  0  0
  1  8  2  0  0  0  0
  8  9  1  0  0  0  0
M  END
> <ChemID>
101030

> <CAS>
620-17-7

> <Original_SMILES>
CCc1cccc(O)c1

> <preferred_name>
3-Ethylphenol

> <dsstox_substance_id>
DTXSID0022480

> <dsstox_compound_id>
DTXCID402480

> <qc_level>
DSSTox_Low

> <Canonical_QSARr>
CCC1C=C(O)C=CC=1

> <InChI_Code_QSARr>
InChI=1S/C8H10O/c1-2-7-4-3-5-8(9)6-7/h3-6,9H,2H2,1H3

> <InChI Key_QSARr>
HMNKTRSOROOSPP-UHFFFAOYSA-N

> <Salt_Solvent>


> <Salt_Solvent_ID>
0

> <MPID>
102599

> <HL Reference>
ABRAHAM,MH ET AL. (1994)

> <HL Temperature>
25

> <LogHL>
-6.202040356262797

> <Tr_1_Tst_0>
0

$$$$
101037
  Mrv171c012241914302D          

  7  6  0  0  0  0            999 V2000
    2.1336   -0.8193    0.0000 C   0  0  0  0  0  0  0  0  0  0  0  0
    1.4192   -1.2318    0.0000 C   0  0  0  0  0  0  0  0  0  0  0  0
    0.7047   -0.8193    0.0000 C   0  0  0  0  0  0  0  0  0  0  0  0
   -0.0098   -1.2318    0.0000 C   0  0  0  0  0  0  0  0  0  0  0  0
    2.8481   -1.2318    0.0000 O   0  0  0  0  0  0  0  0  0  0  0  0
    3.5626   -0.8193    0.0000 C   0  0  0  0  0  0  0  0  0  0  0  0
    2.1336    0.0057    0.0000 O   0  0  0  0  0  0  0  0  0  0  0  0
  1  2  1  0  0  0  0
  2  3  1  0  0  0  0
  3  4  1  0  0  0  0
  1  5  1  0  0  0  0
  5  6  1  0  0  0  0
  1  7  2  0  0  0  0
M  END
> <ChemID>
101037

> <CAS>
623-42-7

> <Original_SMILES>
CCCC(=O)OC

> <preferred_name>
Methyl butyrate

> <dsstox_substance_id>
DTXSID5047083

> <dsstox_compound_id>
DTXCID3027083

> <qc_level>
DSSTox_Low

> <Canonical_QSARr>
CCCC(=O)OC

> <InChI_Code_QSARr>
InChI=1S/C5H10O2/c1-3-4-5(6)7-2/h3-4H2,1-2H3

> <InChI Key_QSARr>
UUIQMZJEGPQKFD-UHFFFAOYSA-N

> <Salt_Solvent>


> <Salt_Solvent_ID>
0

> <MPID>
102600

> <HL Reference>
BUTTERY,RG ET AL. (1969)

> <HL Temperature>
25

> <LogHL>
-3.688246138944247

> <Tr_1_Tst_0>
1

$$$$
101038
  Mrv171c012241914302D          

  8  7  0  0  0  0            999 V2000
    3.3680    1.8414    0.0000 C   0  0  0  0  0  0  0  0  0  0  0  0
    3.3680    2.6664    0.0000 O   0  0  0  0  0  0  0  0  0  0  0  0
    2.6536    1.4289    0.0000 O   0  0  0  0  0  0  0  0  0  0  0  0
    1.9391    1.8414    0.0000 C   0  0  0  0  0  0  0  0  0  0  0  0
    4.0825    1.4289    0.0000 C   0  0  0  0  0  0  0  0  0  0  0  0
    4.7970    1.8414    0.0000 C   0  0  0  0  0  0  0  0  0  0  0  0
    5.5114    1.4289    0.0000 C   0  0  0  0  0  0  0  0  0  0  0  0
    6.2259    1.8414    0.0000 C   0  0  0  0  0  0  0  0  0  0  0  0
  1  2  2  0  0  0  0
  1  3  1  0  0  0  0
  3  4  1  0  0  0  0
  1  5  1  0  0  0  0
  5  6  1  0  0  0  0
  6  7  1  0  0  0  0
  7  8  1  0  0  0  0
M  END
> <ChemID>
101038

> <CAS>
624-24-8

> <Original_SMILES>
CCCCC(=O)OC

> <preferred_name>
Methyl valerate

> <dsstox_substance_id>
DTXSID9060784

> <dsstox_compound_id>
DTXCID1043332

> <qc_level>
Public_High

> <Canonical_QSARr>
CCCCC(=O)OC

> <InChI_Code_QSARr>
InChI=1S/C6H12O2/c1-3-4-5-6(7)8-2/h3-5H2,1-2H3

> <InChI Key_QSARr>
HNBDRPTVWVGKBR-UHFFFAOYSA-N

> <Salt_Solvent>


> <Salt_Solvent_ID>
0

> <MPID>
102601

> <HL Reference>
BUTTERY,RG ET AL. (1969)

> <HL Temperature>
25

> <LogHL>
-3.4975728800155683

> <Tr_1_Tst_0>
1

$$$$
101042
  Mrv171c012241914302D          

  4  3  0  0  0  0            999 V2000
    0.8668    0.1512    0.0000 S   0  0  0  0  0  0  0  0  0  0  0  0
    1.2793   -0.5633    0.0000 S   0  0  0  0  0  0  0  0  0  0  0  0
    2.1043   -0.5633    0.0000 C   0  0  0  0  0  0  0  0  0  0  0  0
    0.0418    0.1512    0.0000 C   0  0  0  0  0  0  0  0  0  0  0  0
  1  2  1  0  0  0  0
  2  3  1  0  0  0  0
  1  4  1  0  0  0  0
M  END
> <ChemID>
101042

> <CAS>
624-92-0

> <Original_SMILES>
CSSC

> <preferred_name>
Methyl disulfide

> <dsstox_substance_id>
DTXSID4025117

> <dsstox_compound_id>
DTXCID805117

> <qc_level>
DSSTox_High

> <Canonical_QSARr>
CSSC

> <InChI_Code_QSARr>
InChI=1S/C2H6S2/c1-3-4-2/h1-2H3

> <InChI Key_QSARr>
WQOXQRCZOLPYPM-UHFFFAOYSA-N

> <Salt_Solvent>


> <Salt_Solvent_ID>
0

> <MPID>
102603

> <HL Reference>
VITENBERG,AG ET AL. (1975)

> <HL Temperature>
20

> <LogHL>
-2.9172146296835506

> <Tr_1_Tst_0>
1

$$$$
101047
  Mrv171c012241914302D          

  7  6  0  0  0  0            999 V2000
    0.8250    1.4289    0.0000 C   0  0  0  0  0  0  0  0  0  0  0  0
    1.2375    2.1434    0.0000 C   0  0  0  0  0  0  0  0  0  0  0  0
   -0.0000    1.4289    0.0000 C   0  0  0  0  0  0  0  0  0  0  0  0
    1.2375    0.7145    0.0000 S   0  0  0  0  0  0  0  0  0  0  0  0
    0.8250   -0.0000    0.0000 C   0  0  0  0  0  0  0  0  0  0  0  0
    1.2375   -0.7145    0.0000 C   0  0  0  0  0  0  0  0  0  0  0  0
   -0.0000   -0.0000    0.0000 C   0  0  0  0  0  0  0  0  0  0  0  0
  1  2  1  0  0  0  0
  1  3  1  0  0  0  0
  1  4  1  0  0  0  0
  4  5  1  0  0  0  0
  5  6  1  0  0  0  0
  5  7  1  0  0  0  0
M  END
> <ChemID>
101047

> <CAS>
625-80-9

> <Original_SMILES>
CC(C)SC(C)C

> <preferred_name>
Propane, 2,2'-thiobis-

> <dsstox_substance_id>
DTXSID0060808

> <dsstox_compound_id>
DTXCID7043376

> <qc_level>
Public_High

> <Canonical_QSARr>
CC(C)SC(C)C

> <InChI_Code_QSARr>
InChI=1S/C6H14S/c1-5(2)7-6(3)4/h5-6H,1-4H3

> <InChI Key_QSARr>
XYWDPYKBIRQXQS-UHFFFAOYSA-N

> <Salt_Solvent>


> <Salt_Solvent_ID>
0

> <MPID>
102604

> <HL Reference>
PRZYJAZNY,A ET AL. (1983)

> <HL Temperature>
25

> <LogHL>
-2.481486060122111

> <Tr_1_Tst_0>
1

$$$$
101049
  Mrv171c012241914302D          

  7  7  0  0  0  0            999 V2000
    0.7145    1.2375    0.0000 N   0  0  0  0  0  0  0  0  0  0  0  0
    0.7145    2.0625    0.0000 C   0  0  0  0  0  0  0  0  0  0  0  0
   -0.0000    0.8250    0.0000 C   0  0  0  0  0  0  0  0  0  0  0  0
   -0.0000   -0.0000    0.0000 C   0  0  0  0  0  0  0  0  0  0  0  0
    0.7145   -0.4125    0.0000 C   0  0  0  0  0  0  0  0  0  0  0  0
    1.4289    0.0000    0.0000 C   0  0  0  0  0  0  0  0  0  0  0  0
    1.4289    0.8250    0.0000 C   0  0  0  0  0  0  0  0  0  0  0  0
  1  2  1  0  0  0  0
  3  1  1  0  0  0  0
  4  3  1  0  0  0  0
  5  4  1  0  0  0  0
  6  5  1  0  0  0  0
  7  6  1  0  0  0  0
  1  7  1  0  0  0  0
M  END
> <ChemID>
101049

> <CAS>
626-67-5

> <Original_SMILES>
CN1CCCCC1

> <preferred_name>
Piperidine, 1-methyl-

> <dsstox_substance_id>
DTXSID8060822

> <dsstox_compound_id>
DTXCID0043420

> <qc_level>
Public_High

> <Canonical_QSARr>
CN1CCCCC1

> <InChI_Code_QSARr>
InChI=1S/C6H13N/c1-7-5-3-2-4-6-7/h2-6H2,1H3

> <InChI Key_QSARr>
PAMIQIKDUOTOBW-UHFFFAOYSA-N

> <Salt_Solvent>


> <Salt_Solvent_ID>
0

> <MPID>
102605

> <HL Reference>
CABANI,S ET AL. (1971)

> <HL Temperature>
25

> <LogHL>
-4.460923901207225

> <Tr_1_Tst_0>
1

$$$$
101052
  Mrv171c012241914302D          

  7  6  0  0  0  0            999 V2000
    1.6458    1.4216    0.0000 O   0  0  0  0  0  0  0  0  0  0  0  0
    0.9313    1.0091    0.0000 C   0  0  0  0  0  0  0  0  0  0  0  0
    0.2168    1.4216    0.0000 C   0  0  0  0  0  0  0  0  0  0  0  0
   -0.4977    1.0091    0.0000 C   0  0  0  0  0  0  0  0  0  0  0  0
    2.3602    1.0091    0.0000 N   0  3  0  0  0  0  0  0  0  0  0  0
    3.0747    1.4216    0.0000 O   0  5  0  0  0  0  0  0  0  0  0  0
    2.3602    0.1841    0.0000 O   0  0  0  0  0  0  0  0  0  0  0  0
  1  2  1  0  0  0  0
  2  3  1  0  0  0  0
  3  4  1  0  0  0  0
  1  5  1  0  0  0  0
  5  6  1  0  0  0  0
  5  7  2  0  0  0  0
M  CHG  2   5   1   6  -1
M  END
> <ChemID>
101052

> <CAS>
627-13-4

> <Original_SMILES>
CCCO[N+]([O-])=O

> <preferred_name>
n-Propyl nitrate

> <dsstox_substance_id>
DTXSID2060834

> <dsstox_compound_id>
DTXCID8043492

> <qc_level>
Public_High

> <Canonical_QSARr>
CCCO[N+]([O-])=O

> <InChI_Code_QSARr>
InChI=1S/C3H7NO3/c1-2-3-7-4(5)6/h2-3H2,1H3

> <InChI Key_QSARr>
JNTOKFNBDFMTIV-UHFFFAOYSA-N

> <Salt_Solvent>


> <Salt_Solvent_ID>
0

> <MPID>
102606

> <HL Reference>
HAUFF,K ET AL. (1998)

> <HL Temperature>
25

> <LogHL>
-2.896196279044044

> <Tr_1_Tst_0>
0

$$$$
101057
  Mrv171c012241914302D          

  6  5  0  0  0  0            999 V2000
    1.2375    0.7145    0.0000 C   0  0  0  0  0  0  0  0  0  0  0  0
    0.5230    1.1270    0.0000 C   0  0  0  0  0  0  0  0  0  0  0  0
   -0.1915    0.7145    0.0000 C   0  0  0  0  0  0  0  0  0  0  0  0
    1.9519    1.1270    0.0000 C   0  0  0  0  0  0  0  0  0  0  0  0
    2.6664    0.7145    0.0000 C   0  0  0  0  0  0  0  0  0  0  0  0
    3.3809    1.1270    0.0000 I   0  0  0  0  0  0  0  0  0  0  0  0
  1  2  1  0  0  0  0
  2  3  1  0  0  0  0
  1  4  1  0  0  0  0
  4  5  1  0  0  0  0
  5  6  1  0  0  0  0
M  END
> <ChemID>
101057

> <CAS>
628-17-1

> <Original_SMILES>
CCCCCI

> <preferred_name>
Pentane, 1-iodo-

> <dsstox_substance_id>
DTXSID1060849

> <dsstox_compound_id>
DTXCID2043539

> <qc_level>
Public_High

> <Canonical_QSARr>
CCCCCI

> <InChI_Code_QSARr>
InChI=1S/C5H11I/c1-2-3-4-5-6/h2-5H2,1H3

> <InChI Key_QSARr>
BLXSFCHWMBESKV-UHFFFAOYSA-N

> <Salt_Solvent>


> <Salt_Solvent_ID>
0

> <MPID>
102607

> <HL Reference>
ABRAHAM,MH ET AL. (1994)

> <HL Temperature>
25

> <LogHL>
-1.7121982700697718

> <Tr_1_Tst_0>
0

$$$$
101060
  Mrv171c012241914302D          

  9  8  0  0  0  0            999 V2000
    0.7022   -0.2317    0.0000 C   0  0  0  0  0  0  0  0  0  0  0  0
   -0.0122   -0.6442    0.0000 C   0  0  0  0  0  0  0  0  0  0  0  0
    1.4167   -0.6442    0.0000 O   0  0  0  0  0  0  0  0  0  0  0  0
    2.1312   -0.2317    0.0000 C   0  0  0  0  0  0  0  0  0  0  0  0
    2.8456   -0.6442    0.0000 C   0  0  0  0  0  0  0  0  0  0  0  0
    3.5601   -0.2317    0.0000 C   0  0  0  0  0  0  0  0  0  0  0  0
    4.2746   -0.6442    0.0000 C   0  0  0  0  0  0  0  0  0  0  0  0
    4.9891   -0.2317    0.0000 C   0  0  0  0  0  0  0  0  0  0  0  0
    0.7022    0.5933    0.0000 O   0  0  0  0  0  0  0  0  0  0  0  0
  1  2  1  0  0  0  0
  1  3  1  0  0  0  0
  3  4  1  0  0  0  0
  4  5  1  0  0  0  0
  5  6  1  0  0  0  0
  6  7  1  0  0  0  0
  7  8  1  0  0  0  0
  1  9  2  0  0  0  0
M  END
> <ChemID>
101060

> <CAS>
628-63-7

> <Original_SMILES>
CCCCCOC(C)=O

> <preferred_name>
Pentyl acetate

> <dsstox_substance_id>
DTXSID1027263

> <dsstox_compound_id>
DTXCID107263

> <qc_level>
DSSTox_Low

> <Canonical_QSARr>
CCCCCOC(C)=O

> <InChI_Code_QSARr>
InChI=1S/C7H14O2/c1-3-4-5-6-9-7(2)8/h3-6H2,1-2H3

> <InChI Key_QSARr>
PGMYKACGEOXYJE-UHFFFAOYSA-N

> <Salt_Solvent>


> <Salt_Solvent_ID>
0

> <MPID>
102608

> <HL Reference>
TAFT,RW ET AL. (1985)

> <HL Temperature>
25

> <LogHL>
-3.4111682744057923

> <Tr_1_Tst_0>
1

$$$$
101062
  Mrv171c012241914302D          

  7  6  0  0  0  0            999 V2000
   -0.0018   -0.0582    0.0000 Cl  0  0  0  0  0  0  0  0  0  0  0  0
    0.7127   -0.4707    0.0000 C   0  0  0  0  0  0  0  0  0  0  0  0
    1.4272   -0.0582    0.0000 C   0  0  0  0  0  0  0  0  0  0  0  0
    2.1416   -0.4707    0.0000 C   0  0  0  0  0  0  0  0  0  0  0  0
    2.8561   -0.0582    0.0000 C   0  0  0  0  0  0  0  0  0  0  0  0
    3.5706   -0.4707    0.0000 C   0  0  0  0  0  0  0  0  0  0  0  0
    4.2850   -0.0582    0.0000 Cl  0  0  0  0  0  0  0  0  0  0  0  0
  1  2  1  0  0  0  0
  2  3  1  0  0  0  0
  3  4  1  0  0  0  0
  4  5  1  0  0  0  0
  5  6  1  0  0  0  0
  6  7  1  0  0  0  0
M  END
> <ChemID>
101062

> <CAS>
628-76-2

> <Original_SMILES>
ClCCCCCCl

> <preferred_name>
1,5-Dichloropentane

> <dsstox_substance_id>
DTXSID2022094

> <dsstox_compound_id>
DTXCID502094

> <qc_level>
DSSTox_Low

> <Canonical_QSARr>
ClCCCCCCl

> <InChI_Code_QSARr>
InChI=1S/C5H10Cl2/c6-4-2-1-3-5-7/h1-5H2

> <InChI Key_QSARr>
LBKDGROORAKTLC-UHFFFAOYSA-N

> <Salt_Solvent>


> <Salt_Solvent_ID>
0

> <MPID>
102609

> <HL Reference>
LEIGHTON,DTJR & CALO,JM (1981)

> <HL Temperature>
25

> <LogHL>
-3.2533658010624196

> <Tr_1_Tst_0>
1

$$$$
101071
  Mrv171c012241914302D          

  6  5  0  0  0  0            999 V2000
    1.5700   -1.5476    0.0000 Cl  0  0  0  0  0  0  0  0  0  0  0  0
    1.1575   -0.8331    0.0000 C   0  0  0  0  0  0  0  0  0  0  0  0
    1.8720   -0.4206    0.0000 Cl  0  0  0  0  0  0  0  0  0  0  0  0
    0.4430   -1.2456    0.0000 Cl  0  0  0  0  0  0  0  0  0  0  0  0
    0.7450   -0.1187    0.0000 C   0  0  0  0  0  0  0  0  0  0  0  0
   -0.0800   -0.1187    0.0000 Cl  0  0  0  0  0  0  0  0  0  0  0  0
  1  2  1  0  0  0  0
  2  3  1  0  0  0  0
  2  4  1  0  0  0  0
  2  5  1  0  0  0  0
  5  6  1  0  0  0  0
M  END
> <ChemID>
101071

> <CAS>
630-20-6

> <Original_SMILES>
ClCC(Cl)(Cl)Cl

> <preferred_name>
1,1,1,2-Tetrachloroethane

> <dsstox_substance_id>
DTXSID2021317

> <dsstox_compound_id>
DTXCID801317

> <qc_level>
DSSTox_Low

> <Canonical_QSARr>
ClCC(Cl)(Cl)Cl

> <InChI_Code_QSARr>
InChI=1S/C2H2Cl4/c3-1-2(4,5)6/h1H2

> <InChI Key_QSARr>
QVLAWKAXOMEXPM-UHFFFAOYSA-N

> <Salt_Solvent>


> <Salt_Solvent_ID>
0

> <MPID>
102610

> <HL Reference>
SANDER,R (1999)

> <HL Temperature>
25

> <LogHL>
-2.602059991327961

> <Tr_1_Tst_0>
1

$$$$
101073
  Mrv171c012241914302D          

  6  5  0  0  0  0            999 V2000
    1.0312   -1.7862    0.0000 Br  0  0  0  0  0  0  0  0  0  0  0  0
    0.6188   -1.0717    0.0000 C   0  0  0  0  0  0  0  0  0  0  0  0
    1.0313   -0.3572    0.0000 C   0  0  0  0  0  0  0  0  0  0  0  0
    0.6188    0.3572    0.0000 O   0  0  0  0  0  0  0  0  0  0  0  0
    1.8563   -0.3572    0.0000 O   0  0  0  0  0  0  0  0  0  0  0  0
   -0.2063   -1.0717    0.0000 Br  0  0  0  0  0  0  0  0  0  0  0  0
  1  2  1  0  0  0  0
  2  3  1  0  0  0  0
  3  4  1  0  0  0  0
  3  5  2  0  0  0  0
  2  6  1  0  0  0  0
M  END
> <ChemID>
101073

> <CAS>
631-64-1

> <Original_SMILES>
OC(=O)C(Br)Br

> <preferred_name>
Dibromoacetic acid

> <dsstox_substance_id>
DTXSID1023815

> <dsstox_compound_id>
DTXCID203815

> <qc_level>
DSSTox_Low

> <Canonical_QSARr>
OC(=O)C(Br)Br

> <InChI_Code_QSARr>
InChI=1S/C2H2Br2O2/c3-1(4)2(5)6/h1H,(H,5,6)

> <InChI Key_QSARr>
SIEILFNCEFEENQ-UHFFFAOYSA-N

> <Salt_Solvent>


> <Salt_Solvent_ID>
0

> <MPID>
102611

> <HL Reference>
BOWDEN,DJ ET AL. (1998A)

> <HL Temperature>
25

> <LogHL>
-8.354577730650906

> <Tr_1_Tst_0>
0

$$$$
101074
  Mrv171c012241914302D          

 10 10  0  0  0  0            999 V2000
    2.9360   -0.5675    0.0000 Cl  0  0  0  0  0  0  0  0  0  0  0  0
    2.2215   -0.9800    0.0000 C   0  0  0  0  0  0  0  0  0  0  0  0
    1.5071   -0.5675    0.0000 C   0  0  0  0  0  0  0  0  0  0  0  0
    1.5071    0.2575    0.0000 Cl  0  0  0  0  0  0  0  0  0  0  0  0
    0.7926   -0.9800    0.0000 C   0  0  0  0  0  0  0  0  0  0  0  0
    0.0781   -0.5675    0.0000 Cl  0  0  0  0  0  0  0  0  0  0  0  0
    0.7926   -1.8050    0.0000 C   0  0  0  0  0  0  0  0  0  0  0  0
    1.5071   -2.2175    0.0000 C   0  0  0  0  0  0  0  0  0  0  0  0
    2.2215   -1.8050    0.0000 C   0  0  0  0  0  0  0  0  0  0  0  0
    2.9360   -2.2175    0.0000 Cl  0  0  0  0  0  0  0  0  0  0  0  0
  1  2  1  0  0  0  0
  3  2  1  0  0  0  0
  3  4  1  0  0  0  0
  5  3  2  0  0  0  0
  5  6  1  0  0  0  0
  7  5  1  0  0  0  0
  8  7  2  0  0  0  0
  9  8  1  0  0  0  0
  2  9  2  0  0  0  0
  9 10  1  0  0  0  0
M  END
> <ChemID>
101074

> <CAS>
634-66-2

> <Original_SMILES>
Clc1ccc(Cl)c(Cl)c1Cl

> <preferred_name>
1,2,3,4-Tetrachlorobenzene

> <dsstox_substance_id>
DTXSID6026088

> <dsstox_compound_id>
DTXCID206088

> <qc_level>
DSSTox_Low

> <Canonical_QSARr>
ClC1C=CC(Cl)=C(Cl)C=1Cl

> <InChI_Code_QSARr>
InChI=1S/C6H2Cl4/c7-3-1-2-4(8)6(10)5(3)9/h1-2H

> <InChI Key_QSARr>
GBDZXPJXOMHESU-UHFFFAOYSA-N

> <Salt_Solvent>


> <Salt_Solvent_ID>
0

> <MPID>
102612

> <HL Reference>
TEN HULSCHER,TEM ET AL. (1992)

> <HL Temperature>
25

> <LogHL>
-3.1191864077192095

> <Tr_1_Tst_0>
1

$$$$
101075
  Mrv171c012241914302D          

 10 10  0  0  0  0            999 V2000
    3.0980   -0.6840    0.0000 Cl  0  0  0  0  0  0  0  0  0  0  0  0
    2.3835   -1.0965    0.0000 C   0  0  0  0  0  0  0  0  0  0  0  0
    1.6691   -0.6840    0.0000 C   0  0  0  0  0  0  0  0  0  0  0  0
    1.6691    0.1410    0.0000 Cl  0  0  0  0  0  0  0  0  0  0  0  0
    0.9546   -1.0965    0.0000 C   0  0  0  0  0  0  0  0  0  0  0  0
    0.9546   -1.9215    0.0000 C   0  0  0  0  0  0  0  0  0  0  0  0
    0.2401   -2.3340    0.0000 Cl  0  0  0  0  0  0  0  0  0  0  0  0
    1.6691   -2.3340    0.0000 C   0  0  0  0  0  0  0  0  0  0  0  0
    2.3835   -1.9215    0.0000 C   0  0  0  0  0  0  0  0  0  0  0  0
    3.0980   -2.3340    0.0000 Cl  0  0  0  0  0  0  0  0  0  0  0  0
  1  2  1  0  0  0  0
  3  2  1  0  0  0  0
  3  4  1  0  0  0  0
  5  3  2  0  0  0  0
  6  5  1  0  0  0  0
  6  7  1  0  0  0  0
  8  6  2  0  0  0  0
  9  8  1  0  0  0  0
  2  9  2  0  0  0  0
  9 10  1  0  0  0  0
M  END
> <ChemID>
101075

> <CAS>
634-90-2

> <Original_SMILES>
Clc1cc(Cl)c(Cl)c(Cl)c1

> <preferred_name>
1,2,3,5-Tetrachlorobenzene

> <dsstox_substance_id>
DTXSID1026089

> <dsstox_compound_id>
DTXCID606089

> <qc_level>
DSSTox_Low

> <Canonical_QSARr>
ClC1C=C(Cl)C=C(Cl)C=1Cl

> <InChI_Code_QSARr>
InChI=1S/C6H2Cl4/c7-3-1-4(8)6(10)5(9)2-3/h1-2H

> <InChI Key_QSARr>
QZYNWJQFTJXIRN-UHFFFAOYSA-N

> <Salt_Solvent>


> <Salt_Solvent_ID>
0

> <MPID>
102613

> <HL Reference>
SHIU,WY & MACKAY,D (1997)

> <HL Temperature>
25

> <LogHL>
-2.8013429130455765

> <Tr_1_Tst_0>
1

$$$$
101077
  Mrv171c012241914302D          

  7  6  0  0  0  0            999 V2000
    1.8382   -1.1273    0.0000 O   0  0  0  0  0  0  0  0  0  0  0  0
    1.1237   -1.5398    0.0000 C   0  0  0  0  0  0  0  0  0  0  0  0
    1.1237   -2.3648    0.0000 C   0  0  0  0  0  0  0  0  0  0  0  0
    1.8382   -0.3023    0.0000 C   0  0  0  0  0  0  0  0  0  0  0  0
    1.8382    0.5227    0.0000 C   0  0  0  0  0  0  0  0  0  0  0  0
    2.6632   -0.3023    0.0000 C   0  0  0  0  0  0  0  0  0  0  0  0
    1.0132   -0.3023    0.0000 C   0  0  0  0  0  0  0  0  0  0  0  0
  1  2  1  0  0  0  0
  2  3  1  0  0  0  0
  1  4  1  0  0  0  0
  4  5  1  0  0  0  0
  4  6  1  0  0  0  0
  4  7  1  0  0  0  0
M  END
> <ChemID>
101077

> <CAS>
637-92-3

> <Original_SMILES>
CCOC(C)(C)C

> <preferred_name>
2-Methyl-2-ethoxypropane

> <dsstox_substance_id>
DTXSID0025604

> <dsstox_compound_id>
DTXCID305604

> <qc_level>
DSSTox_Low

> <Canonical_QSARr>
CCOC(C)(C)C

> <InChI_Code_QSARr>
InChI=1S/C6H14O/c1-5-7-6(2,3)4/h5H2,1-4H3

> <InChI Key_QSARr>
NUMQCACRALPSHD-UHFFFAOYSA-N

> <Salt_Solvent>


> <Salt_Solvent_ID>
0

> <MPID>
102614

> <HL Reference>
PETER,H & SCHMIDT,TC (2004)

> <HL Temperature>
25

> <LogHL>
-2.7851561519523016

> <Tr_1_Tst_0>
0

$$$$
101078
  Mrv171c012241914302D          

  7  6  0  0  0  0            999 V2000
   -0.1966   -1.0485    0.0000 C   0  0  0  0  0  0  0  0  0  0  0  0
    0.5178   -1.4610    0.0000 C   0  0  0  0  0  0  0  0  0  0  0  0
    1.2323   -1.0485    0.0000 C   0  0  0  0  0  0  0  0  0  0  0  0
    1.9468   -1.4610    0.0000 C   0  0  0  0  0  0  0  0  0  0  0  0
    2.6613   -1.0485    0.0000 C   0  0  0  0  0  0  0  0  0  0  0  0
    3.3757   -1.4610    0.0000 C   0  0  0  0  0  0  0  0  0  0  0  0
    4.0902   -1.0485    0.0000 I   0  0  0  0  0  0  0  0  0  0  0  0
  1  2  1  0  0  0  0
  2  3  1  0  0  0  0
  3  4  1  0  0  0  0
  4  5  1  0  0  0  0
  5  6  1  0  0  0  0
  6  7  1  0  0  0  0
M  END
> <ChemID>
101078

> <CAS>
638-45-9

> <Original_SMILES>
CCCCCCI

> <preferred_name>
Hexane,1-iodo-

> <dsstox_substance_id>
DTXSID2049341

> <dsstox_compound_id>
DTXCID2029298

> <qc_level>
DSSTox_Low

> <Canonical_QSARr>
CCCCCCI

> <InChI_Code_QSARr>
InChI=1S/C6H13I/c1-2-3-4-5-6-7/h2-6H2,1H3

> <InChI Key_QSARr>
ANOOTOPTCJRUPK-UHFFFAOYSA-N

> <Salt_Solvent>


> <Salt_Solvent_ID>
0

> <MPID>
102615

> <HL Reference>
ABRAHAM,MH ET AL. (1994)

> <HL Temperature>
25

> <LogHL>
-1.5512936800949213

> <Tr_1_Tst_0>
1

$$$$
101080
  Mrv171c012241914302D          

 10 10  0  0  0  0            999 V2000
    2.2468   -2.7171    0.0000 O   0  0  0  0  0  0  0  0  0  0  0  0
    2.2468   -1.8921    0.0000 C   0  0  0  0  0  0  0  0  0  0  0  0
    2.9613   -1.4796    0.0000 C   0  0  0  0  0  0  0  0  0  0  0  0
    2.9613   -0.6546    0.0000 C   0  0  0  0  0  0  0  0  0  0  0  0
    2.2468   -0.2421    0.0000 C   0  0  0  0  0  0  0  0  0  0  0  0
    2.2468    0.5829    0.0000 C   0  0  0  0  0  0  0  0  0  0  0  0
    2.9613    0.9954    0.0000 C   0  0  0  0  0  0  0  0  0  0  0  0
    2.9613    1.8204    0.0000 C   0  0  0  0  0  0  0  0  0  0  0  0
    1.5324   -0.6546    0.0000 C   0  0  0  0  0  0  0  0  0  0  0  0
    1.5324   -1.4796    0.0000 C   0  0  0  0  0  0  0  0  0  0  0  0
  1  2  1  0  0  0  0
  3  2  1  0  0  0  0
  4  3  2  0  0  0  0
  5  4  1  0  0  0  0
  5  6  1  0  0  0  0
  6  7  1  0  0  0  0
  7  8  1  0  0  0  0
  9  5  2  0  0  0  0
 10  9  1  0  0  0  0
  2 10  2  0  0  0  0
M  END
> <ChemID>
101080

> <CAS>
645-56-7

> <Original_SMILES>
CCCc1ccc(O)cc1

> <preferred_name>
4-Propylphenol

> <dsstox_substance_id>
DTXSID9022100

> <dsstox_compound_id>
DTXCID402100

> <qc_level>
DSSTox_Low

> <Canonical_QSARr>
CCCC1=CC=C(O)C=C1

> <InChI_Code_QSARr>
InChI=1S/C9H12O/c1-2-3-8-4-6-9(10)7-5-8/h4-7,10H,2-3H2,1H3

> <InChI Key_QSARr>
KLSLBUSXWBJMEC-UHFFFAOYSA-N

> <Salt_Solvent>


> <Salt_Solvent_ID>
0

> <MPID>
102616

> <HL Reference>
ABRAHAM,MH ET AL. (1994)

> <HL Temperature>
25

> <LogHL>
-5.943095148663541

> <Tr_1_Tst_0>
1

$$$$
101082
  Mrv171c012241914302D          

  5  5  0  0  0  0            999 V2000
    1.3358   -0.4869    0.0000 O   0  0  0  0  0  0  0  0  0  0  0  0
    0.6683   -0.0019    0.0000 C   0  0  0  0  0  0  0  0  0  0  0  0
    0.0009   -0.4869    0.0000 C   0  0  0  0  0  0  0  0  0  0  0  0
    0.2558   -1.2715    0.0000 O   0  0  0  0  0  0  0  0  0  0  0  0
    1.0808   -1.2715    0.0000 C   0  0  0  0  0  0  0  0  0  0  0  0
  2  1  1  0  0  0  0
  3  2  1  0  0  0  0
  4  3  1  0  0  0  0
  5  4  1  0  0  0  0
  1  5  1  0  0  0  0
M  END
> <ChemID>
101082

> <CAS>
646-06-0

> <Original_SMILES>
C1OCCO1

> <preferred_name>
1,3-Dioxolane

> <dsstox_substance_id>
DTXSID4027284

> <dsstox_compound_id>
DTXCID107284

> <qc_level>
DSSTox_Low

> <Canonical_QSARr>
C1OCCO1

> <InChI_Code_QSARr>
InChI=1S/C3H6O2/c1-2-5-3-4-1/h1-3H2

> <InChI Key_QSARr>
WNXJIVFYUVYPPR-UHFFFAOYSA-N

> <Salt_Solvent>


> <Salt_Solvent_ID>
0

> <MPID>
102617

> <HL Reference>
CABANI,S ET AL. (1971A)

> <HL Temperature>
25

> <LogHL>
-4.61083391563547

> <Tr_1_Tst_0>
0

$$$$
101091
  Mrv171c012241914302D          

 11 11  0  0  0  0            999 V2000
    4.6911   -0.1312    0.0000 O   0  0  0  0  0  0  0  0  0  0  0  0
    3.9766    0.2813    0.0000 C   0  0  0  0  0  0  0  0  0  0  0  0
    3.9766    1.1063    0.0000 C   0  0  0  0  0  0  0  0  0  0  0  0
    3.2621    1.5188    0.0000 C   0  0  0  0  0  0  0  0  0  0  0  0
    3.2621    2.3438    0.0000 C   0  0  0  0  0  0  0  0  0  0  0  0
    2.5477    1.1063    0.0000 C   0  0  0  0  0  0  0  0  0  0  0  0
    2.5477    0.2813    0.0000 C   0  0  0  0  0  0  0  0  0  0  0  0
    3.2621   -0.1312    0.0000 C   0  0  0  0  0  0  0  0  0  0  0  0
    3.2621   -0.9562    0.0000 N   0  3  0  0  0  0  0  0  0  0  0  0
    3.9766   -1.3687    0.0000 O   0  0  0  0  0  0  0  0  0  0  0  0
    2.5477   -1.3687    0.0000 O   0  5  0  0  0  0  0  0  0  0  0  0
  1  2  1  0  0  0  0
  3  2  1  0  0  0  0
  4  3  2  0  0  0  0
  4  5  1  0  0  0  0
  6  4  1  0  0  0  0
  7  6  2  0  0  0  0
  8  7  1  0  0  0  0
  2  8  2  0  0  0  0
  8  9  1  0  0  0  0
  9 10  2  0  0  0  0
  9 11  1  0  0  0  0
M  CHG  2   9   1  11  -1
M  END
> <ChemID>
101091

> <CAS>
700-38-9

> <Original_SMILES>
Cc1ccc(c(O)c1)[N+]([O-])=O

> <preferred_name>
6-Nitro-m-cresol

> <dsstox_substance_id>
DTXSID00220261

> <dsstox_compound_id>
DTXCID00142752

> <qc_level>
Public_Medium

> <Canonical_QSARr>
CC1C=CC(=C(O)C=1)[N+]([O-])=O

> <InChI_Code_QSARr>
InChI=1S/C7H7NO3/c1-5-2-3-6(8(10)11)7(9)4-5/h2-4,9H,1H3

> <InChI Key_QSARr>
NQXUSSVLFOBRSE-UHFFFAOYSA-N

> <Salt_Solvent>


> <Salt_Solvent_ID>
0

> <MPID>
102618

> <HL Reference>
TREMP,J ET AL. (1993)

> <HL Temperature>
20

> <LogHL>
-4.89279003035213

> <Tr_1_Tst_0>
1

$$$$
101099
  Mrv171c012241914302D          

  7  6  0  0  0  0            999 V2000
    1.8382   -1.1273    0.0000 O   0  0  0  0  0  0  0  0  0  0  0  0
    1.1237   -1.5398    0.0000 C   0  0  0  0  0  0  0  0  0  0  0  0
    1.1237   -2.3648    0.0000 O   0  0  0  0  0  0  0  0  0  0  0  0
    1.8382   -0.3023    0.0000 C   0  0  0  0  0  0  0  0  0  0  0  0
    1.8382    0.5227    0.0000 C   0  0  0  0  0  0  0  0  0  0  0  0
    2.6632   -0.3023    0.0000 C   0  0  0  0  0  0  0  0  0  0  0  0
    1.0132   -0.3023    0.0000 C   0  0  0  0  0  0  0  0  0  0  0  0
  1  2  1  0  0  0  0
  2  3  2  0  0  0  0
  1  4  1  0  0  0  0
  4  5  1  0  0  0  0
  4  6  1  0  0  0  0
  4  7  1  0  0  0  0
M  END
> <ChemID>
101099

> <CAS>
762-75-4

> <Original_SMILES>
CC(C)(C)OC=O

> <preferred_name>
tert-Butyl formate

> <dsstox_substance_id>
DTXSID4024690

> <dsstox_compound_id>
DTXCID304690

> <qc_level>
DSSTox_Low

> <Canonical_QSARr>
CC(C)(C)OC=O

> <InChI_Code_QSARr>
InChI=1S/C5H10O2/c1-5(2,3)7-4-6/h4H,1-3H3

> <InChI Key_QSARr>
RUPAXCPQAAOIPB-UHFFFAOYSA-N

> <Salt_Solvent>


> <Salt_Solvent_ID>
0

> <MPID>
102619

> <HL Reference>
PETER,H & SCHMIDT,TC (2004)

> <HL Temperature>
25

> <LogHL>
-3.161150909262745

> <Tr_1_Tst_0>
1

$$$$
101102
  Mrv171c012241914302D          

  6  6  0  0  0  0            999 V2000
    0.2382    0.8888    0.0000 C   0  0  0  0  0  0  0  0  0  0  0  0
   -0.1743    0.1743    0.0000 C   0  0  0  0  0  0  0  0  0  0  0  0
    0.6507    0.1743    0.0000 C   0  0  0  0  0  0  0  0  0  0  0  0
    0.2382    1.7138    0.0000 C   0  0  0  0  0  0  0  0  0  0  0  0
   -0.4763    2.1263    0.0000 O   0  0  0  0  0  0  0  0  0  0  0  0
    0.9526    2.1263    0.0000 C   0  0  0  0  0  0  0  0  0  0  0  0
  2  1  1  0  0  0  0
  3  2  1  0  0  0  0
  1  3  1  0  0  0  0
  1  4  1  0  0  0  0
  4  5  2  0  0  0  0
  4  6  1  0  0  0  0
M  END
> <ChemID>
101102

> <CAS>
765-43-5

> <Original_SMILES>
CC(=O)C1CC1

> <preferred_name>
Cyclopropyl methyl ketone

> <dsstox_substance_id>
DTXSID9074854

> <dsstox_compound_id>
DTXCID3047891

> <qc_level>
Public_High

> <Canonical_QSARr>
CC(=O)C1CC1

> <InChI_Code_QSARr>
InChI=1S/C5H8O/c1-4(6)5-2-3-5/h5H,2-3H2,1H3

> <InChI Key_QSARr>
HVCFCNAITDHQFX-UHFFFAOYSA-N

> <Salt_Solvent>


> <Salt_Solvent_ID>
0

> <MPID>
102620

> <HL Reference>
ABRAHAM,MH ET AL. (1994)

> <HL Temperature>
25

> <LogHL>
-4.991399828238061

> <Tr_1_Tst_0>
1

$$$$
101109
  Mrv171c012241914302D          

 10  9  0  0  0  0            999 V2000
    0.0016   -0.6634    0.0000 C   0  0  0  0  0  0  0  0  0  0  0  0
    0.7160   -1.0759    0.0000 C   0  0  0  0  0  0  0  0  0  0  0  0
    1.4305   -0.6634    0.0000 C   0  0  0  0  0  0  0  0  0  0  0  0
    2.1450   -1.0759    0.0000 C   0  0  0  0  0  0  0  0  0  0  0  0
    2.8595   -0.6634    0.0000 C   0  0  0  0  0  0  0  0  0  0  0  0
    3.5739   -1.0759    0.0000 C   0  0  0  0  0  0  0  0  0  0  0  0
    4.2884   -0.6634    0.0000 C   0  0  0  0  0  0  0  0  0  0  0  0
    5.0029   -1.0759    0.0000 C   0  0  0  0  0  0  0  0  0  0  0  0
    5.7173   -0.6634    0.0000 C   0  0  0  0  0  0  0  0  0  0  0  0
    5.0029   -1.9009    0.0000 O   0  0  0  0  0  0  0  0  0  0  0  0
  1  2  1  0  0  0  0
  2  3  1  0  0  0  0
  3  4  1  0  0  0  0
  4  5  1  0  0  0  0
  5  6  1  0  0  0  0
  6  7  1  0  0  0  0
  7  8  1  0  0  0  0
  8  9  1  0  0  0  0
  8 10  2  0  0  0  0
M  END
> <ChemID>
101109

> <CAS>
821-55-6

> <Original_SMILES>
CCCCCCCC(C)=O

> <preferred_name>
2-Nonanone

> <dsstox_substance_id>
DTXSID2022125

> <dsstox_compound_id>
DTXCID002125

> <qc_level>
DSSTox_Low

> <Canonical_QSARr>
CCCCCCCC(C)=O

> <InChI_Code_QSARr>
InChI=1S/C9H18O/c1-3-4-5-6-7-8-9(2)10/h3-8H2,1-2H3

> <InChI Key_QSARr>
VKCYHJWLYTUGCC-UHFFFAOYSA-N

> <Salt_Solvent>


> <Salt_Solvent_ID>
0

> <MPID>
102622

> <HL Reference>
BUTTERY,RG ET AL. (1969)

> <HL Temperature>
25

> <LogHL>
-3.435333935747909

> <Tr_1_Tst_0>
1

$$$$
101110
  Mrv171c012241914302D          

  9  9  0  0  0  0            999 V2000
    3.0789    1.4437    0.0000 O   0  0  0  0  0  0  0  0  0  0  0  0
    2.3645    1.0312    0.0000 C   0  0  0  0  0  0  0  0  0  0  0  0
    1.6500    1.4437    0.0000 C   0  0  0  0  0  0  0  0  0  0  0  0
    2.3645    0.2062    0.0000 C   0  0  0  0  0  0  0  0  0  0  0  0
    1.6500   -0.2063    0.0000 C   0  0  0  0  0  0  0  0  0  0  0  0
    1.6500   -1.0313    0.0000 C   0  0  0  0  0  0  0  0  0  0  0  0
    2.3645   -1.4438    0.0000 C   0  0  0  0  0  0  0  0  0  0  0  0
    3.0789   -1.0313    0.0000 C   0  0  0  0  0  0  0  0  0  0  0  0
    3.0789   -0.2063    0.0000 C   0  0  0  0  0  0  0  0  0  0  0  0
  1  2  2  0  0  0  0
  2  3  1  0  0  0  0
  2  4  1  0  0  0  0
  5  4  1  0  0  0  0
  6  5  1  0  0  0  0
  7  6  1  0  0  0  0
  8  7  1  0  0  0  0
  9  8  1  0  0  0  0
  4  9  1  0  0  0  0
M  END
> <ChemID>
101110

> <CAS>
823-76-7

> <Original_SMILES>
CC(=O)C1CCCCC1

> <preferred_name>
Cyclohexyl methyl ketone

> <dsstox_substance_id>
DTXSID40231674

> <dsstox_compound_id>
DTXCID70154165

> <qc_level>
Public_Medium

> <Canonical_QSARr>
CC(=O)C1CCCCC1

> <InChI_Code_QSARr>
InChI=1S/C8H14O/c1-7(9)8-5-3-2-4-6-8/h8H,2-6H2,1H3

> <InChI Key_QSARr>
RIFKADJTWUGDOV-UHFFFAOYSA-N

> <Salt_Solvent>


> <Salt_Solvent_ID>
0

> <MPID>
102623

> <HL Reference>
ABRAHAM,MH ET AL. (1994)

> <HL Temperature>
25

> <LogHL>
-4.471083299722345

> <Tr_1_Tst_0>
1

$$$$
101111
  Mrv171c012241914302D          

 15 17  0  0  0  0            999 V2000
   -0.2749   -0.8594    0.0000 C   0  0  0  0  0  0  0  0  0  0  0  0
    0.1376   -1.5738    0.0000 C   0  0  0  0  0  0  0  0  0  0  0  0
    0.9626   -1.5738    0.0000 C   0  0  0  0  0  0  0  0  0  0  0  0
    1.3751   -2.2883    0.0000 C   0  0  0  0  0  0  0  0  0  0  0  0
    2.2001   -2.2883    0.0000 C   0  0  0  0  0  0  0  0  0  0  0  0
    2.6126   -1.5738    0.0000 C   0  0  0  0  0  0  0  0  0  0  0  0
    3.4376   -1.5738    0.0000 C   0  0  0  0  0  0  0  0  0  0  0  0
    3.8501   -2.2883    0.0000 C   0  0  0  0  0  0  0  0  0  0  0  0
    3.8501   -0.8594    0.0000 C   0  0  0  0  0  0  0  0  0  0  0  0
    3.4376   -0.1449    0.0000 C   0  0  0  0  0  0  0  0  0  0  0  0
    2.6126   -0.1449    0.0000 C   0  0  0  0  0  0  0  0  0  0  0  0
    2.2001   -0.8594    0.0000 C   0  0  0  0  0  0  0  0  0  0  0  0
    1.3751   -0.8594    0.0000 C   0  0  0  0  0  0  0  0  0  0  0  0
    0.9626   -0.1449    0.0000 C   0  0  0  0  0  0  0  0  0  0  0  0
    0.1376   -0.1449    0.0000 C   0  0  0  0  0  0  0  0  0  0  0  0
  2  1  1  0  0  0  0
  3  2  2  0  0  0  0
  3  4  1  0  0  0  0
  4  5  2  0  0  0  0
  5  6  1  0  0  0  0
  7  6  2  0  0  0  0
  7  8  1  0  0  0  0
  9  7  1  0  0  0  0
 10  9  2  0  0  0  0
 11 10  1  0  0  0  0
 12 11  2  0  0  0  0
  6 12  1  0  0  0  0
 12 13  1  0  0  0  0
 13  3  1  0  0  0  0
 14 13  2  0  0  0  0
 15 14  1  0  0  0  0
  1 15  2  0  0  0  0
M  END
> <ChemID>
101111

> <CAS>
832-69-9

> <Original_SMILES>
Cc1cccc2c3ccccc3ccc21

> <preferred_name>
1-Methyl phenanthrene

> <dsstox_substance_id>
DTXSID6025648

> <dsstox_compound_id>
DTXCID105648

> <qc_level>
DSSTox_Low

> <Canonical_QSARr>
CC1C=CC=C2C3=CC=CC=C3C=CC2=1

> <InChI_Code_QSARr>
InChI=1S/C15H12/c1-11-5-4-8-15-13(11)10-9-12-6-2-3-7-14(12)15/h2-10H,1H3

> <InChI Key_QSARr>
DOWJXOHBNXRUOD-UHFFFAOYSA-N

> <Salt_Solvent>


> <Salt_Solvent_ID>
0

> <MPID>
102624

> <HL Reference>
BAMFORD,HA ET AL. (1998)

> <HL Temperature>
25

> <LogHL>
-4.30715308072277

> <Tr_1_Tst_0>
0

$$$$
101116
  Mrv171c012241914302D          

  7  7  0  0  0  0            999 V2000
   -0.0042   -1.0575    0.0000 O   0  0  0  0  0  0  0  0  0  0  0  0
    0.7805   -1.3125    0.0000 C   0  0  0  0  0  0  0  0  0  0  0  0
    1.0354   -2.0971    0.0000 C   0  0  0  0  0  0  0  0  0  0  0  0
    1.8604   -2.0971    0.0000 C   0  0  0  0  0  0  0  0  0  0  0  0
    2.1153   -1.3125    0.0000 C   0  0  0  0  0  0  0  0  0  0  0  0
    1.4479   -0.8275    0.0000 N   0  0  0  0  0  0  0  0  0  0  0  0
    1.4479   -0.0025    0.0000 C   0  0  0  0  0  0  0  0  0  0  0  0
  1  2  2  0  0  0  0
  3  2  1  0  0  0  0
  4  3  1  0  0  0  0
  5  4  1  0  0  0  0
  6  5  1  0  0  0  0
  2  6  1  0  0  0  0
  6  7  1  0  0  0  0
M  END
> <ChemID>
101116

> <CAS>
872-50-4

> <Original_SMILES>
CN1CCCC1=O

> <preferred_name>
N-Methyl-2-pyrrolidone

> <dsstox_substance_id>
DTXSID6020856

> <dsstox_compound_id>
DTXCID60856

> <qc_level>
DSSTox_Low

> <Canonical_QSARr>
CN1CCCC1=O

> <InChI_Code_QSARr>
InChI=1S/C5H9NO/c1-6-4-2-3-5(6)7/h2-4H2,1H3

> <InChI Key_QSARr>
SECXISVLQFMRJM-UHFFFAOYSA-N

> <Salt_Solvent>


> <Salt_Solvent_ID>
0

> <MPID>
102625

> <HL Reference>
KIM,BR ET AL. (2000)

> <HL Temperature>
25

> <LogHL>
-8.49485002168008

> <Tr_1_Tst_0>
1

$$$$
101117
  Mrv171c012241914302D          

  8  8  0  0  0  0            999 V2000
    0.5358    1.2375    0.0000 C   0  0  0  0  0  0  0  0  0  0  0  0
    0.5358    2.0625    0.0000 C   0  0  0  0  0  0  0  0  0  0  0  0
    1.2503    2.4750    0.0000 O   0  0  0  0  0  0  0  0  0  0  0  0
   -0.1786    0.8250    0.0000 C   0  0  0  0  0  0  0  0  0  0  0  0
   -0.1786   -0.0000    0.0000 C   0  0  0  0  0  0  0  0  0  0  0  0
    0.5358   -0.4125    0.0000 N   0  0  0  0  0  0  0  0  0  0  0  0
    1.2503    0.0000    0.0000 C   0  0  0  0  0  0  0  0  0  0  0  0
    1.2503    0.8250    0.0000 C   0  0  0  0  0  0  0  0  0  0  0  0
  1  2  1  0  0  0  0
  2  3  2  0  0  0  0
  4  1  1  0  0  0  0
  5  4  2  0  0  0  0
  6  5  1  0  0  0  0
  7  6  2  0  0  0  0
  8  7  1  0  0  0  0
  1  8  2  0  0  0  0
M  END
> <ChemID>
101117

> <CAS>
872-85-5

> <Original_SMILES>
O=Cc1cc[n]cc1

> <preferred_name>
4-Pyridinecarboxaldehyde

> <dsstox_substance_id>
DTXSID1061237

> <dsstox_compound_id>
DTXCID3048574

> <qc_level>
Public_High

> <Canonical_QSARr>
O=CC1C=CN=CC=1

> <InChI_Code_QSARr>
InChI=1S/C6H5NO/c8-5-6-1-3-7-4-2-6/h1-5H

> <InChI Key_QSARr>
BGUWFUQJCDRPTL-UHFFFAOYSA-N

> <Salt_Solvent>


> <Salt_Solvent_ID>
0

> <MPID>
102626

> <HL Reference>
ABRAHAM,MH ET AL. (1994)

> <HL Temperature>
25

> <LogHL>
-6.752026733638201

> <Tr_1_Tst_0>
1

$$$$
101118
  Mrv171c012241914302D          

 12 12  0  0  0  0            999 V2000
    2.1547   -1.2433    0.0000 C   0  0  0  0  0  0  0  0  0  0  0  0
    2.8691   -0.8308    0.0000 Cl  0  0  0  0  0  0  0  0  0  0  0  0
    1.4402   -0.8308    0.0000 C   0  0  0  0  0  0  0  0  0  0  0  0
    1.4402   -0.0058    0.0000 Cl  0  0  0  0  0  0  0  0  0  0  0  0
    0.7257   -1.2433    0.0000 C   0  0  0  0  0  0  0  0  0  0  0  0
    0.0112   -0.8308    0.0000 Cl  0  0  0  0  0  0  0  0  0  0  0  0
    0.7257   -2.0683    0.0000 C   0  0  0  0  0  0  0  0  0  0  0  0
    0.0112   -2.4808    0.0000 Cl  0  0  0  0  0  0  0  0  0  0  0  0
    1.4402   -2.4808    0.0000 C   0  0  0  0  0  0  0  0  0  0  0  0
    1.4402   -3.3058    0.0000 C   0  0  0  0  0  0  0  0  0  0  0  0
    2.1547   -2.0683    0.0000 C   0  0  0  0  0  0  0  0  0  0  0  0
    2.8691   -2.4808    0.0000 Cl  0  0  0  0  0  0  0  0  0  0  0  0
  1  2  1  0  0  0  0
  3  1  1  0  0  0  0
  3  4  1  0  0  0  0
  5  3  2  0  0  0  0
  5  6  1  0  0  0  0
  7  5  1  0  0  0  0
  7  8  1  0  0  0  0
  9  7  2  0  0  0  0
  9 10  1  0  0  0  0
 11  9  1  0  0  0  0
  1 11  2  0  0  0  0
 11 12  1  0  0  0  0
M  END
> <ChemID>
101118

> <CAS>
877-11-2

> <Original_SMILES>
Cc1c(Cl)c(Cl)c(Cl)c(Cl)c1Cl

> <preferred_name>


> <dsstox_substance_id>
DTXSID10870791

> <dsstox_compound_id>
DTXCID80818483

> <qc_level>


> <Canonical_QSARr>
CC1C(Cl)=C(Cl)C(Cl)=C(Cl)C=1Cl

> <InChI_Code_QSARr>
InChI=1S/C7H3Cl5/c1-2-3(8)5(10)7(12)6(11)4(2)9/h1H3

> <InChI Key_QSARr>
AVSIMRGRHWKCAY-UHFFFAOYSA-N

> <Salt_Solvent>


> <Salt_Solvent_ID>
0

> <MPID>
102627

> <HL Reference>
OLIVER,BG (1985)

> <HL Temperature>
20

> <LogHL>
-3.113509274827516

> <Tr_1_Tst_0>
1

$$$$
101125
  Mrv171c012241914302D          

  8  7  0  0  0  0            999 V2000
    4.1504    0.6188    0.0000 O   0  0  0  0  0  0  0  0  0  0  0  0
    3.4360    0.2063    0.0000 C   0  0  0  0  0  0  0  0  0  0  0  0
    2.7215    0.6188    0.0000 C   0  0  0  0  0  0  0  0  0  0  0  0
    2.0070    0.2063    0.0000 C   0  0  0  0  0  0  0  0  0  0  0  0
    1.2926    0.6188    0.0000 C   0  0  0  0  0  0  0  0  0  0  0  0
    4.8649    0.2063    0.0000 N   0  3  0  0  0  0  0  0  0  0  0  0
    5.5794    0.6188    0.0000 O   0  0  0  0  0  0  0  0  0  0  0  0
    4.8649   -0.6187    0.0000 O   0  5  0  0  0  0  0  0  0  0  0  0
  1  2  1  0  0  0  0
  2  3  1  0  0  0  0
  3  4  1  0  0  0  0
  4  5  1  0  0  0  0
  1  6  1  0  0  0  0
  6  7  2  0  0  0  0
  6  8  1  0  0  0  0
M  CHG  2   6   1   8  -1
M  END
> <ChemID>
101125

> <CAS>
928-45-0

> <Original_SMILES>
CCCCO[N+]([O-])=O

> <preferred_name>
Butyl nitrate

> <dsstox_substance_id>
DTXSID70239143

> <dsstox_compound_id>
DTXCID90161634

> <qc_level>
Public_Medium

> <Canonical_QSARr>
CCCCO[N+]([O-])=O

> <InChI_Code_QSARr>
InChI=1S/C4H9NO3/c1-2-3-4-8-5(6)7/h2-4H2,1H3

> <InChI Key_QSARr>
QQHZPQUHCAKSOL-UHFFFAOYSA-N

> <Salt_Solvent>


> <Salt_Solvent_ID>
0

> <MPID>
102629

> <HL Reference>
HAUFF,K ET AL. (1998)

> <HL Temperature>
25

> <LogHL>
-2.812479279163537

> <Tr_1_Tst_0>
1

$$$$
101128
  Mrv171c012241914302D          

 12 13  0  0  0  0            999 V2000
   -0.0000   -0.8250    0.0000 C   0  0  0  0  0  0  0  0  0  0  0  0
   -0.7145   -0.4125    0.0000 C   0  0  0  0  0  0  0  0  0  0  0  0
   -1.4289   -0.8250    0.0000 C   0  0  0  0  0  0  0  0  0  0  0  0
   -1.4289   -1.6500    0.0000 C   0  0  0  0  0  0  0  0  0  0  0  0
   -0.7145   -2.0625    0.0000 C   0  0  0  0  0  0  0  0  0  0  0  0
   -0.0000   -1.6500    0.0000 C   0  0  0  0  0  0  0  0  0  0  0  0
    0.7145   -2.0625    0.0000 C   0  0  0  0  0  0  0  0  0  0  0  0
    1.4289   -1.6500    0.0000 C   0  0  0  0  0  0  0  0  0  0  0  0
    1.4289   -0.8250    0.0000 C   0  0  0  0  0  0  0  0  0  0  0  0
    2.1434   -0.4125    0.0000 C   0  0  0  0  0  0  0  0  0  0  0  0
    2.1434    0.4125    0.0000 C   0  0  0  0  0  0  0  0  0  0  0  0
    0.7145   -0.4125    0.0000 C   0  0  0  0  0  0  0  0  0  0  0  0
  2  1  1  0  0  0  0
  3  2  2  0  0  0  0
  4  3  1  0  0  0  0
  5  4  2  0  0  0  0
  6  5  1  0  0  0  0
  6  1  1  0  0  0  0
  7  6  2  0  0  0  0
  8  7  1  0  0  0  0
  9  8  2  0  0  0  0
  9 10  1  0  0  0  0
 10 11  1  0  0  0  0
 12  9  1  0  0  0  0
  1 12  2  0  0  0  0
M  END
> <ChemID>
101128

> <CAS>
939-27-5

> <Original_SMILES>
CCc1cc2ccccc2cc1

> <preferred_name>
2-Ethylnaphthalene

> <dsstox_substance_id>
DTXSID9061330

> <dsstox_compound_id>
DTXCID1048887

> <qc_level>
Public_High

> <Canonical_QSARr>
CCC1C=C2C=CC=CC2=CC=1

> <InChI_Code_QSARr>
InChI=1S/C12H12/c1-2-10-7-8-11-5-3-4-6-12(11)9-10/h3-9H,2H2,1H3

> <InChI Key_QSARr>
RJTJVVYSTUQWNI-UHFFFAOYSA-N

> <Salt_Solvent>


> <Salt_Solvent_ID>
0

> <MPID>
102630

> <HL Reference>
ALTSCHUH,J ET AL. (1999)

> <HL Temperature>
25

> <LogHL>
-3.2692177243336107

> <Tr_1_Tst_0>
1

$$$$
101136
  Mrv171c012241914302D          

  7  6  0  0  0  0            999 V2000
    2.1154   -2.0537    0.0000 C   0  0  0  0  0  0  0  0  0  0  0  0
    1.4009   -1.6412    0.0000 O   0  0  0  0  0  0  0  0  0  0  0  0
    1.4009   -0.8162    0.0000 C   0  0  0  0  0  0  0  0  0  0  0  0
    1.4009    0.0088    0.0000 C   0  0  0  0  0  0  0  0  0  0  0  0
    0.6864    0.4213    0.0000 C   0  0  0  0  0  0  0  0  0  0  0  0
    2.2259   -0.8162    0.0000 C   0  0  0  0  0  0  0  0  0  0  0  0
    0.5759   -0.8162    0.0000 C   0  0  0  0  0  0  0  0  0  0  0  0
  1  2  1  0  0  0  0
  2  3  1  0  0  0  0
  3  4  1  0  0  0  0
  4  5  1  0  0  0  0
  3  6  1  0  0  0  0
  3  7  1  0  0  0  0
M  END
> <ChemID>
101136

> <CAS>
994-05-8

> <Original_SMILES>
CCC(C)(C)OC

> <preferred_name>
tert-Amyl methyl ether

> <dsstox_substance_id>
DTXSID8024521

> <dsstox_compound_id>
DTXCID404521

> <qc_level>
DSSTox_Low

> <Canonical_QSARr>
CCC(C)(C)OC

> <InChI_Code_QSARr>
InChI=1S/C6H14O/c1-5-6(2,3)7-4/h5H2,1-4H3

> <InChI Key_QSARr>
HVZJRWJGKQPSFL-UHFFFAOYSA-N

> <Salt_Solvent>


> <Salt_Solvent_ID>
0

> <MPID>
102632

> <HL Reference>
PETER,H & SCHMIDT,TC (2004)

> <HL Temperature>
25

> <LogHL>
-2.879426068794151

> <Tr_1_Tst_0>
0

$$$$
101138
  Mrv171c012241914302D          

  9  8  0  0  0  0            999 V2000
   -1.4729   -0.0652    0.0000 N   0  3  0  0  0  0  0  0  0  0  0  0
   -0.7584   -0.4777    0.0000 O   0  0  0  0  0  0  0  0  0  0  0  0
   -0.0439   -0.0652    0.0000 C   0  0  0  0  0  0  0  0  0  0  0  0
    0.6705   -0.4777    0.0000 C   0  0  0  0  0  0  0  0  0  0  0  0
    1.3850   -0.0652    0.0000 C   0  0  0  0  0  0  0  0  0  0  0  0
    2.0995   -0.4777    0.0000 C   0  0  0  0  0  0  0  0  0  0  0  0
    2.8139   -0.0652    0.0000 C   0  0  0  0  0  0  0  0  0  0  0  0
   -2.1874   -0.4777    0.0000 O   0  0  0  0  0  0  0  0  0  0  0  0
   -1.4729    0.7598    0.0000 O   0  5  0  0  0  0  0  0  0  0  0  0
  1  2  1  0  0  0  0
  2  3  1  0  0  0  0
  3  4  1  0  0  0  0
  4  5  1  0  0  0  0
  5  6  1  0  0  0  0
  6  7  1  0  0  0  0
  1  8  2  0  0  0  0
  1  9  1  0  0  0  0
M  CHG  2   1   1   9  -1
M  END
> <ChemID>
101138

> <CAS>
1002-16-0

> <Original_SMILES>
CCCCCO[N+]([O-])=O

> <preferred_name>
Amyl nitrate

> <dsstox_substance_id>
DTXSID2058708

> <dsstox_compound_id>
DTXCID2032398

> <qc_level>
DSSTox_High

> <Canonical_QSARr>
CCCCCO[N+]([O-])=O

> <InChI_Code_QSARr>
InChI=1S/C5H11NO3/c1-2-3-4-5-9-6(7)8/h2-5H2,1H3

> <InChI Key_QSARr>
HSNWZBCBUUSSQD-UHFFFAOYSA-N

> <Salt_Solvent>


> <Salt_Solvent_ID>
0

> <MPID>
102633

> <HL Reference>
HAUFF,K ET AL. (1998)

> <HL Temperature>
25

> <LogHL>
-2.779891911959947

> <Tr_1_Tst_0>
1

$$$$
101141
  Mrv171c012241914302D          

 18 21  0  0  0  0            999 V2000
    0.7055   -1.5210    0.0000 C   0  0  0  0  0  0  0  0  0  0  0  0
   -0.0401   -2.1469    0.0000 Cl  0  0  0  0  0  0  0  0  0  0  0  0
    0.8732   -0.7133    0.0000 C   0  0  0  0  0  0  0  0  0  0  0  0
    0.4951    0.0945    0.0000 Cl  0  0  0  0  0  0  0  0  0  0  0  0
    1.7608   -0.5071    0.0000 C   0  0  0  0  0  0  0  0  0  0  0  0
    2.0172    0.3274    0.0000 Cl  0  0  0  0  0  0  0  0  0  0  0  0
    1.7951   -1.3568    0.0000 C   0  0  0  0  0  0  0  0  0  0  0  0
    1.2885   -0.6285    0.0000 Cl  0  0  0  0  0  0  0  0  0  0  0  0
    0.9657   -1.8961    0.0000 Cl  0  0  0  0  0  0  0  0  0  0  0  0
    1.4254   -2.1226    0.0000 C   0  0  0  0  0  0  0  0  0  0  0  0
    1.2909   -2.9902    0.0000 Cl  0  0  0  0  0  0  0  0  0  0  0  0
    2.2088   -1.8639    0.0000 C   0  0  0  0  0  0  0  0  0  0  0  0
    2.9253   -2.2730    0.0000 C   0  0  0  0  0  0  0  0  0  0  0  0
    3.1303   -3.1035    0.0000 Cl  0  0  0  0  0  0  0  0  0  0  0  0
    3.5357   -1.7181    0.0000 C   0  0  0  0  0  0  0  0  0  0  0  0
    4.0175   -1.0483    0.0000 O   0  0  0  0  0  0  0  0  0  0  0  0
    3.1966   -0.9660    0.0000 C   0  0  0  0  0  0  0  0  0  0  0  0
    2.3765   -1.0562    0.0000 C   0  0  0  0  0  0  0  0  0  0  0  0
  1  2  1  0  0  0  0
  3  1  2  0  0  0  0
  3  4  1  0  0  0  0
  5  3  1  0  0  0  0
  5  6  1  0  0  0  0
  5  7  1  0  0  0  0
  7  8  1  0  0  0  0
  7  9  1  0  0  0  0
  7 10  1  0  0  0  0
  1 10  1  0  0  0  0
 10 11  1  0  0  0  0
 10 12  1  0  0  0  0
 13 12  1  0  0  0  0
 13 14  1  0  0  0  0
 15 13  1  0  0  0  0
 15 16  1  0  0  0  0
 16 17  1  0  0  0  0
 17 15  1  0  0  0  0
 18 17  1  0  0  0  0
 12 18  1  0  0  0  0
 18  5  1  0  0  0  0
M  END
> <ChemID>
101141

> <CAS>
1024-57-3

> <Original_SMILES>
ClC1(Cl)C2(Cl)C3C4OC4C(Cl)C3C1(Cl)C(Cl)=C2Cl

> <preferred_name>
Heptachlor epoxide

> <dsstox_substance_id>
DTXSID1024126

> <dsstox_compound_id>
DTXCID001436335

> <qc_level>
DSSTox_High

> <Canonical_QSARr>
ClC1(Cl)C2(Cl)C3C4OC4C(Cl)C3C1(Cl)C(Cl)=C2Cl

> <InChI_Code_QSARr>
InChI=1S/C10H5Cl7O/c11-3-1-2(4-5(3)18-4)9(15)7(13)6(12)8(1,14)10(9,16)17/h1-5H

> <InChI Key_QSARr>
ZXFXBSWRVIQKOD-UHFFFAOYSA-N

> <Salt_Solvent>


> <Salt_Solvent_ID>
0

> <MPID>
102634

> <HL Reference>
ALTSCHUH,J ET AL. (1999)

> <HL Temperature>
25

> <LogHL>
-4.677780705266102

> <Tr_1_Tst_0>
1

$$$$
101151
  Mrv171c012241914302D          

  9  9  0  0  0  0            999 V2000
    1.4193   -2.1811    0.0000 N   0  0  0  0  0  0  0  0  0  0  0  0
    2.1337   -1.7686    0.0000 C   0  0  0  0  0  0  0  0  0  0  0  0
    2.1337   -0.9436    0.0000 C   0  0  0  0  0  0  0  0  0  0  0  0
    1.4193   -0.5311    0.0000 C   0  0  0  0  0  0  0  0  0  0  0  0
    1.4193    0.2939    0.0000 C   0  0  0  0  0  0  0  0  0  0  0  0
    0.7048    0.7064    0.0000 C   0  0  0  0  0  0  0  0  0  0  0  0
    2.1337    0.7064    0.0000 O   0  0  0  0  0  0  0  0  0  0  0  0
    0.7048   -0.9436    0.0000 C   0  0  0  0  0  0  0  0  0  0  0  0
    0.7048   -1.7686    0.0000 C   0  0  0  0  0  0  0  0  0  0  0  0
  2  1  1  0  0  0  0
  3  2  2  0  0  0  0
  4  3  1  0  0  0  0
  4  5  1  0  0  0  0
  5  6  1  0  0  0  0
  5  7  2  0  0  0  0
  8  4  2  0  0  0  0
  9  8  1  0  0  0  0
  1  9  2  0  0  0  0
M  END
> <ChemID>
101151

> <CAS>
1122-54-9

> <Original_SMILES>
CC(=O)c1cc[n]cc1

> <preferred_name>
4-Acetylpyridine

> <dsstox_substance_id>
DTXSID0022147

> <dsstox_compound_id>
DTXCID402147

> <qc_level>
DSSTox_Low

> <Canonical_QSARr>
CC(=O)C1C=CN=CC=1

> <InChI_Code_QSARr>
InChI=1S/C7H7NO/c1-6(9)7-2-4-8-5-3-7/h2-5H,1H3

> <InChI Key_QSARr>
WMQUKDQWMMOHSA-UHFFFAOYSA-N

> <Salt_Solvent>


> <Salt_Solvent_ID>
0

> <MPID>
102635

> <HL Reference>
ABRAHAM,MH ET AL. (1994)

> <HL Temperature>
25

> <LogHL>
-7.202040356262822

> <Tr_1_Tst_0>
0

$$$$
101152
  Mrv171c012241914302D          

 12 13  0  0  0  0            999 V2000
    1.6626   -1.6460    0.0000 C   0  0  0  0  0  0  0  0  0  0  0  0
    0.9481   -1.2335    0.0000 C   0  0  0  0  0  0  0  0  0  0  0  0
    0.9481   -0.4085    0.0000 C   0  0  0  0  0  0  0  0  0  0  0  0
    0.2337    0.0040    0.0000 C   0  0  0  0  0  0  0  0  0  0  0  0
    0.2337   -1.6460    0.0000 C   0  0  0  0  0  0  0  0  0  0  0  0
    0.2337   -2.4710    0.0000 C   0  0  0  0  0  0  0  0  0  0  0  0
    0.9481   -2.8835    0.0000 C   0  0  0  0  0  0  0  0  0  0  0  0
    1.6626   -2.4710    0.0000 C   0  0  0  0  0  0  0  0  0  0  0  0
    2.3771   -2.8835    0.0000 C   0  0  0  0  0  0  0  0  0  0  0  0
    3.0916   -2.4710    0.0000 C   0  0  0  0  0  0  0  0  0  0  0  0
    3.0916   -1.6460    0.0000 C   0  0  0  0  0  0  0  0  0  0  0  0
    2.3771   -1.2335    0.0000 C   0  0  0  0  0  0  0  0  0  0  0  0
  2  1  1  0  0  0  0
  2  3  1  0  0  0  0
  3  4  1  0  0  0  0
  5  2  2  0  0  0  0
  6  5  1  0  0  0  0
  7  6  2  0  0  0  0
  8  7  1  0  0  0  0
  8  1  2  0  0  0  0
  9  8  1  0  0  0  0
 10  9  2  0  0  0  0
 11 10  1  0  0  0  0
 12 11  2  0  0  0  0
  1 12  1  0  0  0  0
M  END
> <ChemID>
101152

> <CAS>
1127-76-0

> <Original_SMILES>
CCc1cccc2ccccc21

> <preferred_name>


> <dsstox_substance_id>
DTXSID10870852

> <dsstox_compound_id>
DTXCID50818536

> <qc_level>


> <Canonical_QSARr>
CCC1=CC=CC2C=CC=CC=21

> <InChI_Code_QSARr>
InChI=1S/C12H12/c1-2-10-7-5-8-11-6-3-4-9-12(10)11/h3-9H,2H2,1H3

> <InChI Key_QSARr>
ZMXIYERNXPIYFR-UHFFFAOYSA-N

> <Salt_Solvent>


> <Salt_Solvent_ID>
0

> <MPID>
102636

> <HL Reference>
ALTSCHUH,J ET AL. (1999)

> <HL Temperature>
25

> <LogHL>
-3.1643094285075746

> <Tr_1_Tst_0>
1

$$$$
101157
  Mrv171c012241914302D          

 25 26  0  0  0  0            999 V2000
    3.1872   -2.3886    0.0000 O   0  0  0  0  0  0  0  0  0  0  0  0
    3.9017   -2.8011    0.0000 P   0  0  0  0  0  0  0  0  0  0  0  0
    3.4892   -3.5156    0.0000 O   0  0  0  0  0  0  0  0  0  0  0  0
    2.6642   -3.5156    0.0000 C   0  0  0  0  0  0  0  0  0  0  0  0
    2.2517   -2.8011    0.0000 C   0  0  0  0  0  0  0  0  0  0  0  0
    1.4267   -2.8011    0.0000 C   0  0  0  0  0  0  0  0  0  0  0  0
    1.0142   -2.0866    0.0000 C   0  0  0  0  0  0  0  0  0  0  0  0
    0.1892   -2.0866    0.0000 C   0  0  0  0  0  0  0  0  0  0  0  0
   -0.2233   -1.3722    0.0000 C   0  0  0  0  0  0  0  0  0  0  0  0
    2.6642   -2.0866    0.0000 C   0  0  0  0  0  0  0  0  0  0  0  0
    2.2517   -1.3722    0.0000 C   0  0  0  0  0  0  0  0  0  0  0  0
    4.3142   -2.0866    0.0000 O   0  0  0  0  0  0  0  0  0  0  0  0
    3.9017   -1.3722    0.0000 C   0  0  0  0  0  0  0  0  0  0  0  0
    4.3142   -0.6577    0.0000 C   0  0  0  0  0  0  0  0  0  0  0  0
    3.9017    0.0568    0.0000 C   0  0  0  0  0  0  0  0  0  0  0  0
    3.0767    0.0568    0.0000 C   0  0  0  0  0  0  0  0  0  0  0  0
    2.6642   -0.6577    0.0000 C   0  0  0  0  0  0  0  0  0  0  0  0
    3.0767   -1.3722    0.0000 C   0  0  0  0  0  0  0  0  0  0  0  0
    4.6161   -3.2136    0.0000 O   0  0  0  0  0  0  0  0  0  0  0  0
    4.6161   -4.0386    0.0000 C   0  0  0  0  0  0  0  0  0  0  0  0
    3.9017   -4.4511    0.0000 C   0  0  0  0  0  0  0  0  0  0  0  0
    3.9017   -5.2761    0.0000 C   0  0  0  0  0  0  0  0  0  0  0  0
    4.6161   -5.6886    0.0000 C   0  0  0  0  0  0  0  0  0  0  0  0
    5.3306   -5.2761    0.0000 C   0  0  0  0  0  0  0  0  0  0  0  0
    5.3306   -4.4511    0.0000 C   0  0  0  0  0  0  0  0  0  0  0  0
  1  2  2  0  0  0  0
  2  3  1  0  0  0  0
  3  4  1  0  0  0  0
  4  5  1  0  0  0  0
  5  6  1  0  0  0  0
  6  7  1  0  0  0  0
  7  8  1  0  0  0  0
  8  9  1  0  0  0  0
  5 10  1  0  0  0  0
 10 11  1  0  0  0  0
  2 12  1  0  0  0  0
 12 13  1  0  0  0  0
 14 13  1  0  0  0  0
 15 14  2  0  0  0  0
 16 15  1  0  0  0  0
 17 16  2  0  0  0  0
 18 17  1  0  0  0  0
 13 18  2  0  0  0  0
  2 19  1  0  0  0  0
 19 20  1  0  0  0  0
 21 20  1  0  0  0  0
 22 21  2  0  0  0  0
 23 22  1  0  0  0  0
 24 23  2  0  0  0  0
 25 24  1  0  0  0  0
 20 25  2  0  0  0  0
M  END
> <ChemID>
101157

> <CAS>
1241-94-7

> <Original_SMILES>
CCC(COP(=O)(Oc1ccccc1)Oc1ccccc1)CCCC

> <preferred_name>
2-Ethylhexyl diphenyl phosphate

> <dsstox_substance_id>
DTXSID1025300

> <dsstox_compound_id>
DTXCID105300

> <qc_level>
DSSTox_High

> <Canonical_QSARr>
CCC(COP(=O)(OC1C=CC=CC=1)OC1C=CC=CC=1)CCCC

> <InChI_Code_QSARr>
InChI=1S/C20H27O4P/c1-3-5-12-18(4-2)17-22-25(21,23-19-13-8-6-9-14-19)24-20-15-10-7-11-16-20/h6-11,13-16,18H,3-5,12,17H2,1-2H3

> <InChI Key_QSARr>
CGSLYBDCEGBZCG-UHFFFAOYSA-N

> <Salt_Solvent>


> <Salt_Solvent_ID>
0

> <MPID>
102637

> <HL Reference>
MUIR,DCG ET AL. (1985C)

> <HL Temperature>
25

> <LogHL>
-4.266000713461612

> <Tr_1_Tst_0>
1

$$$$
101165
  Mrv171c012241914302D          

 12 12  0  0  0  0            999 V2000
    4.1173   -1.5812    0.0000 O   0  0  0  0  0  0  0  0  0  0  0  0
    3.4029   -1.9937    0.0000 C   0  0  0  0  0  0  0  0  0  0  0  0
    4.1173   -0.7562    0.0000 C   0  0  0  0  0  0  0  0  0  0  0  0
    4.8318   -0.3437    0.0000 C   0  0  0  0  0  0  0  0  0  0  0  0
    4.8318    0.4813    0.0000 C   0  0  0  0  0  0  0  0  0  0  0  0
    4.1173    0.8938    0.0000 C   0  0  0  0  0  0  0  0  0  0  0  0
    4.1173    1.7188    0.0000 O   0  0  0  0  0  0  0  0  0  0  0  0
    3.4029    0.4813    0.0000 C   0  0  0  0  0  0  0  0  0  0  0  0
    2.6884    0.8938    0.0000 N   0  3  0  0  0  0  0  0  0  0  0  0
    1.9739    0.4813    0.0000 O   0  0  0  0  0  0  0  0  0  0  0  0
    2.6884    1.7188    0.0000 O   0  5  0  0  0  0  0  0  0  0  0  0
    3.4029   -0.3437    0.0000 C   0  0  0  0  0  0  0  0  0  0  0  0
  1  2  1  0  0  0  0
  1  3  1  0  0  0  0
  4  3  1  0  0  0  0
  5  4  2  0  0  0  0
  6  5  1  0  0  0  0
  6  7  1  0  0  0  0
  8  6  2  0  0  0  0
  8  9  1  0  0  0  0
  9 10  2  0  0  0  0
  9 11  1  0  0  0  0
 12  8  1  0  0  0  0
  3 12  2  0  0  0  0
M  CHG  2   9   1  11  -1
M  END
> <ChemID>
101165

> <CAS>
1568-70-3

> <Original_SMILES>
COc1cc(c(O)cc1)[N+]([O-])=O

> <preferred_name>
Phenol, 4-methoxy-2-nitro-

> <dsstox_substance_id>
DTXSID80166133

> <dsstox_compound_id>
DTXCID0088624

> <qc_level>
Public_Medium

> <Canonical_QSARr>
COC1=CC(=C(O)C=C1)[N+]([O-])=O

> <InChI_Code_QSARr>
InChI=1S/C7H7NO4/c1-12-5-2-3-7(9)6(4-5)8(10)11/h2-4,9H,1H3

> <InChI Key_QSARr>
YBUGOACXDPDUIR-UHFFFAOYSA-N

> <Salt_Solvent>


> <Salt_Solvent_ID>
0

> <MPID>
102638

> <HL Reference>
TREMPT,J ET AL. (1993)

> <HL Temperature>
20

> <LogHL>
-5.725842150736312

> <Tr_1_Tst_0>
1

$$$$
101167
  Mrv171c012241914302D          

 23 23  0  0  0  0            999 V2000
    1.3684   -1.0258    0.0000 O   0  0  0  0  0  0  0  0  0  0  0  0
    1.3684   -1.8508    0.0000 N   0  3  0  0  0  0  0  0  0  0  0  0
    0.6539   -2.2633    0.0000 O   0  5  0  0  0  0  0  0  0  0  0  0
    2.0828   -2.2633    0.0000 C   0  0  0  0  0  0  0  0  0  0  0  0
    2.0828   -3.0883    0.0000 C   0  0  0  0  0  0  0  0  0  0  0  0
    2.7973   -3.5008    0.0000 C   0  0  0  0  0  0  0  0  0  0  0  0
    2.7973   -4.3258    0.0000 C   0  0  0  0  0  0  0  0  0  0  0  0
    2.7973   -5.1508    0.0000 F   0  0  0  0  0  0  0  0  0  0  0  0
    3.6223   -4.3258    0.0000 F   0  0  0  0  0  0  0  0  0  0  0  0
    1.9723   -4.3258    0.0000 F   0  0  0  0  0  0  0  0  0  0  0  0
    3.5118   -3.0883    0.0000 C   0  0  0  0  0  0  0  0  0  0  0  0
    3.5118   -2.2633    0.0000 C   0  0  0  0  0  0  0  0  0  0  0  0
    4.2263   -1.8508    0.0000 N   0  3  0  0  0  0  0  0  0  0  0  0
    4.2263   -1.0258    0.0000 O   0  5  0  0  0  0  0  0  0  0  0  0
    4.9407   -2.2633    0.0000 O   0  0  0  0  0  0  0  0  0  0  0  0
    2.7973   -1.8508    0.0000 C   0  0  0  0  0  0  0  0  0  0  0  0
    2.7973   -1.0258    0.0000 N   0  0  0  0  0  0  0  0  0  0  0  0
    2.0828   -0.6133    0.0000 C   0  0  0  0  0  0  0  0  0  0  0  0
    2.0828    0.2117    0.0000 C   0  0  0  0  0  0  0  0  0  0  0  0
    1.3684    0.6242    0.0000 C   0  0  0  0  0  0  0  0  0  0  0  0
    3.5118   -0.6133    0.0000 C   0  0  0  0  0  0  0  0  0  0  0  0
    3.5118    0.2117    0.0000 C   0  0  0  0  0  0  0  0  0  0  0  0
    4.2263    0.6242    0.0000 C   0  0  0  0  0  0  0  0  0  0  0  0
  1  2  2  0  0  0  0
  2  3  1  0  0  0  0
  2  4  1  0  0  0  0
  5  4  1  0  0  0  0
  6  5  2  0  0  0  0
  6  7  1  0  0  0  0
  7  8  1  0  0  0  0
  7  9  1  0  0  0  0
  7 10  1  0  0  0  0
 11  6  1  0  0  0  0
 12 11  2  0  0  0  0
 12 13  1  0  0  0  0
 13 14  1  0  0  0  0
 13 15  2  0  0  0  0
 16 12  1  0  0  0  0
  4 16  2  0  0  0  0
 16 17  1  0  0  0  0
 17 18  1  0  0  0  0
 18 19  1  0  0  0  0
 19 20  1  0  0  0  0
 17 21  1  0  0  0  0
 21 22  1  0  0  0  0
 22 23  1  0  0  0  0
M  CHG  4   2   1   3  -1  13   1  14  -1
M  END
> <ChemID>
101167

> <CAS>
1582-09-8

> <Original_SMILES>
CCCN(CCC)c1c(cc(cc1[N+]([O-])=O)C(F)(F)F)[N+]([O-])=O

> <preferred_name>
Trifluralin

> <dsstox_substance_id>
DTXSID4021395

> <dsstox_compound_id>
DTXCID401395

> <qc_level>
DSSTox_Low

> <Canonical_QSARr>
CCCN(CCC)C1C(=CC(=CC=1[N+]([O-])=O)C(F)(F)F)[N+]([O-])=O

> <InChI_Code_QSARr>
InChI=1S/C13H16F3N3O4/c1-3-5-17(6-4-2)12-10(18(20)21)7-9(13(14,15)16)8-11(12)19(22)23/h7-8H,3-6H2,1-2H3

> <InChI Key_QSARr>
ZSDSQXJSNMTJDA-UHFFFAOYSA-N

> <Salt_Solvent>


> <Salt_Solvent_ID>
0

> <MPID>
102639

> <HL Reference>
RICE,CP & CHERNYAK,SM (1995)

> <HL Temperature>
20

> <LogHL>
-3.987162775294828

> <Tr_1_Tst_0>
0

$$$$
101171
  Mrv171c012241914302D          

  6  5  0  0  0  0            999 V2000
    1.5715   -1.5488    0.0000 C   0  0  0  0  0  0  0  0  0  0  0  0
    1.1590   -0.8343    0.0000 C   0  0  0  0  0  0  0  0  0  0  0  0
    1.8735   -0.4218    0.0000 C   0  0  0  0  0  0  0  0  0  0  0  0
    0.4446   -1.2468    0.0000 C   0  0  0  0  0  0  0  0  0  0  0  0
    0.7465   -0.1198    0.0000 O   0  0  0  0  0  0  0  0  0  0  0  0
   -0.0785   -0.1198    0.0000 C   0  0  0  0  0  0  0  0  0  0  0  0
  1  2  1  0  0  0  0
  2  3  1  0  0  0  0
  2  4  1  0  0  0  0
  2  5  1  0  0  0  0
  5  6  1  0  0  0  0
M  END
> <ChemID>
101171

> <CAS>
1634-04-4

> <Original_SMILES>
COC(C)(C)C

> <preferred_name>
Methyl tert-butyl ether

> <dsstox_substance_id>
DTXSID3020833

> <dsstox_compound_id>
DTXCID30833

> <qc_level>
DSSTox_Low

> <Canonical_QSARr>
COC(C)(C)C

> <InChI_Code_QSARr>
InChI=1S/C5H12O/c1-5(2,3)6-4/h1-4H3

> <InChI Key_QSARr>
BZLVMXJERCGZMT-UHFFFAOYSA-N

> <Salt_Solvent>


> <Salt_Solvent_ID>
0

> <MPID>
102640

> <HL Reference>
HINE,J & MOOKERJEE,PK (1975)

> <HL Temperature>
25

> <LogHL>
-3.2313618987523864

> <Tr_1_Tst_0>
0

$$$$
101184
  Mrv171c012241914302D          

  7  6  0  0  0  0            999 V2000
    0.8250    1.4289    0.0000 C   0  0  0  0  0  0  0  0  0  0  0  0
    1.2375    2.1434    0.0000 C   0  0  0  0  0  0  0  0  0  0  0  0
   -0.0000    1.4289    0.0000 C   0  0  0  0  0  0  0  0  0  0  0  0
    1.2375    0.7145    0.0000 O   0  0  0  0  0  0  0  0  0  0  0  0
    0.8250   -0.0000    0.0000 N   0  3  0  0  0  0  0  0  0  0  0  0
    1.2375   -0.7145    0.0000 O   0  5  0  0  0  0  0  0  0  0  0  0
   -0.0000   -0.0000    0.0000 O   0  0  0  0  0  0  0  0  0  0  0  0
  1  2  1  0  0  0  0
  1  3  1  0  0  0  0
  1  4  1  0  0  0  0
  4  5  1  0  0  0  0
  5  6  1  0  0  0  0
  5  7  2  0  0  0  0
M  CHG  2   5   1   6  -1
M  END
> <ChemID>
101184

> <CAS>
1712-64-7

> <Original_SMILES>
CC(C)O[N+]([O-])=O

> <preferred_name>
Nitric acid, 1-methylethyl ester

> <dsstox_substance_id>
DTXSID5061908

> <dsstox_compound_id>
DTXCID2035483

> <qc_level>
Public_High

> <Canonical_QSARr>
CC(C)O[N+]([O-])=O

> <InChI_Code_QSARr>
InChI=1S/C3H7NO3/c1-3(2)7-4(5)6/h3H,1-2H3

> <InChI Key_QSARr>
GAPFWGOSHOCNBM-UHFFFAOYSA-N

> <Salt_Solvent>


> <Salt_Solvent_ID>
0

> <MPID>
102641

> <HL Reference>
HAUFF,K ET AL. (1998)

> <HL Temperature>
25

> <LogHL>
-2.793174123968152

> <Tr_1_Tst_0>
1

$$$$
101186
  Mrv171c012241914302D          

 13 13  0  0  0  0            999 V2000
    1.5944   -0.2725    0.0000 C   0  0  0  0  0  0  0  0  0  0  0  0
    1.1819    0.4420    0.0000 O   0  0  0  0  0  0  0  0  0  0  0  0
    1.1819   -0.9870    0.0000 C   0  0  0  0  0  0  0  0  0  0  0  0
    0.3569   -0.9870    0.0000 C   0  0  0  0  0  0  0  0  0  0  0  0
   -0.0556   -1.7014    0.0000 C   0  0  0  0  0  0  0  0  0  0  0  0
    0.3569   -2.4159    0.0000 C   0  0  0  0  0  0  0  0  0  0  0  0
    1.1819   -2.4159    0.0000 C   0  0  0  0  0  0  0  0  0  0  0  0
    1.5944   -3.1304    0.0000 C   0  0  0  0  0  0  0  0  0  0  0  0
    2.4194   -3.1304    0.0000 C   0  0  0  0  0  0  0  0  0  0  0  0
    2.8319   -2.4159    0.0000 C   0  0  0  0  0  0  0  0  0  0  0  0
    2.4194   -1.7014    0.0000 C   0  0  0  0  0  0  0  0  0  0  0  0
    2.8319   -0.9870    0.0000 C   0  0  0  0  0  0  0  0  0  0  0  0
    2.4194   -0.2725    0.0000 C   0  0  0  0  0  0  0  0  0  0  0  0
  1  2  1  0  0  0  0
  3  1  1  0  0  0  0
  4  3  1  0  0  0  0
  5  4  1  0  0  0  0
  6  5  1  0  0  0  0
  7  6  1  0  0  0  0
  8  7  1  0  0  0  0
  9  8  1  0  0  0  0
 10  9  1  0  0  0  0
 11 10  1  0  0  0  0
 12 11  1  0  0  0  0
 13 12  1  0  0  0  0
  1 13  1  0  0  0  0
M  END
> <ChemID>
101186

> <CAS>
1724-39-6

> <Original_SMILES>
OC1CCCCCCCCCCC1

> <preferred_name>
Cyclododecanol

> <dsstox_substance_id>
DTXSID1027429

> <dsstox_compound_id>
DTXCID707429

> <qc_level>
DSSTox_Low

> <Canonical_QSARr>
OC1CCCCCCCCCCC1

> <InChI_Code_QSARr>
InChI=1S/C12H24O/c13-12-10-8-6-4-2-1-3-5-7-9-11-12/h12-13H,1-11H2

> <InChI Key_QSARr>
SFVWPXMPRCIVOK-UHFFFAOYSA-N

> <Salt_Solvent>


> <Salt_Solvent_ID>
0

> <MPID>
102642

> <HL Reference>
ALTSCHUH,J ET AL. (1999)

> <HL Temperature>
25

> <LogHL>
-5.531652669587849

> <Tr_1_Tst_0>
1

$$$$
101195
  Mrv171c012241914302D          

 14 14  0  0  0  0            999 V2000
    3.0144   -1.2542    0.0000 Cl  0  0  0  0  0  0  0  0  0  0  0  0
    2.2999   -1.6667    0.0000 C   0  0  0  0  0  0  0  0  0  0  0  0
    1.5855   -1.2542    0.0000 C   0  0  0  0  0  0  0  0  0  0  0  0
    1.5855   -0.4292    0.0000 C   0  0  0  0  0  0  0  0  0  0  0  0
    1.5855    0.3958    0.0000 N   0  0  0  0  0  0  0  0  0  0  0  0
    0.8710   -1.6667    0.0000 C   0  0  0  0  0  0  0  0  0  0  0  0
    0.1565   -1.2542    0.0000 Cl  0  0  0  0  0  0  0  0  0  0  0  0
    0.8710   -2.4917    0.0000 C   0  0  0  0  0  0  0  0  0  0  0  0
    0.1565   -2.9042    0.0000 Cl  0  0  0  0  0  0  0  0  0  0  0  0
    1.5855   -2.9042    0.0000 C   0  0  0  0  0  0  0  0  0  0  0  0
    1.5855   -3.7292    0.0000 Cl  0  0  0  0  0  0  0  0  0  0  0  0
    2.2999   -2.4917    0.0000 C   0  0  0  0  0  0  0  0  0  0  0  0
    3.0144   -2.9042    0.0000 C   0  0  0  0  0  0  0  0  0  0  0  0
    3.7289   -3.3167    0.0000 N   0  0  0  0  0  0  0  0  0  0  0  0
  1  2  1  0  0  0  0
  3  2  1  0  0  0  0
  3  4  1  0  0  0  0
  4  5  3  0  0  0  0
  6  3  2  0  0  0  0
  6  7  1  0  0  0  0
  8  6  1  0  0  0  0
  8  9  1  0  0  0  0
 10  8  2  0  0  0  0
 10 11  1  0  0  0  0
 12 10  1  0  0  0  0
  2 12  2  0  0  0  0
 12 13  1  0  0  0  0
 13 14  3  0  0  0  0
M  END
> <ChemID>
101195

> <CAS>
1897-45-6

> <Original_SMILES>
N#Cc1c(Cl)c(Cl)c(Cl)c(C#N)c1Cl

> <preferred_name>
Chlorothalonil

> <dsstox_substance_id>
DTXSID0020319

> <dsstox_compound_id>
DTXCID20319

> <qc_level>
DSSTox_Low

> <Canonical_QSARr>
N#CC1C(Cl)=C(Cl)C(Cl)=C(C#N)C=1Cl

> <InChI_Code_QSARr>
InChI=1S/C8Cl4N2/c9-5-3(1-13)6(10)8(12)7(11)4(5)2-14

> <InChI Key_QSARr>
CRQQGFGUEAVUIL-UHFFFAOYSA-N

> <Salt_Solvent>


> <Salt_Solvent_ID>
0

> <MPID>
102643

> <HL Reference>
KAWAMOTO,K & URANO,K (1989)

> <HL Temperature>
25

> <LogHL>
-5.698970004336005

> <Tr_1_Tst_0>
0

$$$$
101211
  Mrv171c012241914302D          

 15 15  0  0  0  0            999 V2000
    2.8216   -2.0641    0.0000 C   0  0  0  0  0  0  0  0  0  0  0  0
    2.8216   -1.2391    0.0000 C   0  0  0  0  0  0  0  0  0  0  0  0
    2.1071   -0.8266    0.0000 C   0  0  0  0  0  0  0  0  0  0  0  0
    2.1071   -0.0016    0.0000 C   0  0  0  0  0  0  0  0  0  0  0  0
    1.3926   -1.2391    0.0000 C   0  0  0  0  0  0  0  0  0  0  0  0
    0.6782   -0.8266    0.0000 S   0  0  0  0  0  0  0  0  0  0  0  0
   -0.0363   -1.2391    0.0000 C   0  0  0  0  0  0  0  0  0  0  0  0
    1.3926   -2.0641    0.0000 C   0  0  0  0  0  0  0  0  0  0  0  0
    0.6782   -2.4766    0.0000 C   0  0  0  0  0  0  0  0  0  0  0  0
    2.1071   -2.4766    0.0000 C   0  0  0  0  0  0  0  0  0  0  0  0
    3.5361   -2.4766    0.0000 O   0  0  0  0  0  0  0  0  0  0  0  0
    4.2505   -2.0641    0.0000 C   0  0  0  0  0  0  0  0  0  0  0  0
    4.9650   -2.4766    0.0000 N   0  0  0  0  0  0  0  0  0  0  0  0
    5.6795   -2.0641    0.0000 C   0  0  0  0  0  0  0  0  0  0  0  0
    4.2505   -1.2391    0.0000 O   0  0  0  0  0  0  0  0  0  0  0  0
  2  1  1  0  0  0  0
  3  2  2  0  0  0  0
  3  4  1  0  0  0  0
  5  3  1  0  0  0  0
  5  6  1  0  0  0  0
  6  7  1  0  0  0  0
  8  5  2  0  0  0  0
  8  9  1  0  0  0  0
 10  8  1  0  0  0  0
  1 10  2  0  0  0  0
  1 11  1  0  0  0  0
 11 12  1  0  0  0  0
 12 13  1  0  0  0  0
 13 14  1  0  0  0  0
 12 15  2  0  0  0  0
M  END
> <ChemID>
101211

> <CAS>
2032-65-7

> <Original_SMILES>
CNC(=O)Oc1cc(C)c(SC)c(C)c1

> <preferred_name>
Methiocarb

> <dsstox_substance_id>
DTXSID3032626

> <dsstox_compound_id>
DTXCID1012626

> <qc_level>
DSSTox_Low

> <Canonical_QSARr>
CC1C=C(C=C(C)C=1SC)OC(=O)NC

> <InChI_Code_QSARr>
InChI=1S/C11H15NO2S/c1-7-5-9(14-11(13)12-3)6-8(2)10(7)15-4/h5-6H,1-4H3,(H,12,13)

> <InChI Key_QSARr>
YFBPRJGDJKVWAH-UHFFFAOYSA-N

> <Salt_Solvent>


> <Salt_Solvent_ID>
0

> <MPID>
102644

> <HL Reference>
TOMLIN,C (1997)

> <HL Temperature>
20

> <LogHL>
-8.928117992693856

> <Tr_1_Tst_0>
1

$$$$
101214
  Mrv171c012241914302D          

 14 15  0  0  0  0            999 V2000
    2.8573   -1.6488    0.0000 C   0  0  0  0  0  0  0  0  0  0  0  0
    2.1428   -1.2363    0.0000 C   0  0  0  0  0  0  0  0  0  0  0  0
    2.1428   -0.4113    0.0000 C   0  0  0  0  0  0  0  0  0  0  0  0
    1.4283    0.0012    0.0000 C   0  0  0  0  0  0  0  0  0  0  0  0
    1.4283    0.8262    0.0000 Cl  0  0  0  0  0  0  0  0  0  0  0  0
    0.7138   -0.4113    0.0000 C   0  0  0  0  0  0  0  0  0  0  0  0
    0.7138   -1.2363    0.0000 C   0  0  0  0  0  0  0  0  0  0  0  0
    1.4283   -1.6488    0.0000 C   0  0  0  0  0  0  0  0  0  0  0  0
    2.8573   -2.4738    0.0000 C   0  0  0  0  0  0  0  0  0  0  0  0
    3.5717   -2.8863    0.0000 C   0  0  0  0  0  0  0  0  0  0  0  0
    3.5717   -3.7113    0.0000 Cl  0  0  0  0  0  0  0  0  0  0  0  0
    4.2862   -2.4738    0.0000 C   0  0  0  0  0  0  0  0  0  0  0  0
    4.2862   -1.6488    0.0000 C   0  0  0  0  0  0  0  0  0  0  0  0
    3.5717   -1.2363    0.0000 C   0  0  0  0  0  0  0  0  0  0  0  0
  1  2  1  0  0  0  0
  3  2  2  0  0  0  0
  4  3  1  0  0  0  0
  4  5  1  0  0  0  0
  6  4  2  0  0  0  0
  7  6  1  0  0  0  0
  8  7  2  0  0  0  0
  2  8  1  0  0  0  0
  9  1  2  0  0  0  0
 10  9  1  0  0  0  0
 10 11  1  0  0  0  0
 12 10  2  0  0  0  0
 13 12  1  0  0  0  0
 14 13  2  0  0  0  0
  1 14  1  0  0  0  0
M  END
> <ChemID>
101214

> <CAS>
2050-67-1

> <Original_SMILES>
Clc1cc(ccc1)-c1cc(Cl)ccc1

> <preferred_name>
Clophen A 30

> <dsstox_substance_id>
DTXSID70872817

> <dsstox_compound_id>
DTXCID60339

> <qc_level>
DSSTox_Low

> <Canonical_QSARr>
ClC1C=C(C=CC=1)C1=CC(Cl)=CC=C1

> <InChI_Code_QSARr>
InChI=1S/C12H8Cl2/c13-11-5-1-3-9(7-11)10-4-2-6-12(14)8-10/h1-8H

> <InChI Key_QSARr>
KTXUOWUHFLBZPW-UHFFFAOYSA-N

> <Salt_Solvent>


> <Salt_Solvent_ID>
0

> <MPID>
102645

> <HL Reference>
DUNNIVANT,FM ET AL. (1988)

> <HL Temperature>
25

> <LogHL>
-3.6326440789739793

> <Tr_1_Tst_0>
1

$$$$
101215
  Mrv171c012241914302D          

 14 15  0  0  0  0            999 V2000
    2.8871   -0.2994    0.0000 C   0  0  0  0  0  0  0  0  0  0  0  0
    3.6016    0.1131    0.0000 C   0  0  0  0  0  0  0  0  0  0  0  0
    3.6016    0.9381    0.0000 C   0  0  0  0  0  0  0  0  0  0  0  0
    2.8871    1.3506    0.0000 C   0  0  0  0  0  0  0  0  0  0  0  0
    2.8871    2.1756    0.0000 Cl  0  0  0  0  0  0  0  0  0  0  0  0
    2.1726    0.9381    0.0000 C   0  0  0  0  0  0  0  0  0  0  0  0
    2.1726    0.1131    0.0000 C   0  0  0  0  0  0  0  0  0  0  0  0
    2.8871   -1.1244    0.0000 C   0  0  0  0  0  0  0  0  0  0  0  0
    2.1726   -1.5369    0.0000 C   0  0  0  0  0  0  0  0  0  0  0  0
    2.1726   -2.3619    0.0000 C   0  0  0  0  0  0  0  0  0  0  0  0
    2.8871   -2.7744    0.0000 C   0  0  0  0  0  0  0  0  0  0  0  0
    2.8871   -3.5994    0.0000 Cl  0  0  0  0  0  0  0  0  0  0  0  0
    3.6016   -2.3619    0.0000 C   0  0  0  0  0  0  0  0  0  0  0  0
    3.6016   -1.5369    0.0000 C   0  0  0  0  0  0  0  0  0  0  0  0
  2  1  2  0  0  0  0
  3  2  1  0  0  0  0
  4  3  2  0  0  0  0
  4  5  1  0  0  0  0
  6  4  1  0  0  0  0
  7  6  2  0  0  0  0
  1  7  1  0  0  0  0
  1  8  1  0  0  0  0
  9  8  1  0  0  0  0
 10  9  2  0  0  0  0
 11 10  1  0  0  0  0
 11 12  1  0  0  0  0
 13 11  2  0  0  0  0
 14 13  1  0  0  0  0
  8 14  2  0  0  0  0
M  END
> <ChemID>
101215

> <CAS>
2050-68-2

> <Original_SMILES>
Clc1ccc(cc1)-c1ccc(Cl)cc1

> <preferred_name>
4,4'-Dichlorobiphenyl

> <dsstox_substance_id>
DTXSID0022515

> <dsstox_compound_id>
DTXCID502515

> <qc_level>
DSSTox_High

> <Canonical_QSARr>
ClC1C=CC(=CC=1)C1C=CC(Cl)=CC=1

> <InChI_Code_QSARr>
InChI=1S/C12H8Cl2/c13-11-5-1-9(2-6-11)10-3-7-12(14)8-4-10/h1-8H

> <InChI Key_QSARr>
YTBRNEUEFCNVHC-UHFFFAOYSA-N

> <Salt_Solvent>


> <Salt_Solvent_ID>
0

> <MPID>
102646

> <HL Reference>
DUNNIVANT,FM ET AL. (1988)

> <HL Temperature>
25

> <LogHL>
-3.7011469235902923

> <Tr_1_Tst_0>
1

$$$$
101217
  Mrv171c012241914302D          

 13 14  0  0  0  0            999 V2000
    2.3045   -1.6232    0.0000 C   0  0  0  0  0  0  0  0  0  0  0  0
    2.3045   -2.4482    0.0000 C   0  0  0  0  0  0  0  0  0  0  0  0
    3.0190   -2.8607    0.0000 C   0  0  0  0  0  0  0  0  0  0  0  0
    3.7334   -2.4482    0.0000 C   0  0  0  0  0  0  0  0  0  0  0  0
    3.7334   -1.6232    0.0000 C   0  0  0  0  0  0  0  0  0  0  0  0
    3.0190   -1.2107    0.0000 C   0  0  0  0  0  0  0  0  0  0  0  0
    3.0190   -0.3857    0.0000 Cl  0  0  0  0  0  0  0  0  0  0  0  0
    1.5900   -1.2107    0.0000 C   0  0  0  0  0  0  0  0  0  0  0  0
    1.5900   -0.3857    0.0000 C   0  0  0  0  0  0  0  0  0  0  0  0
    0.8755    0.0268    0.0000 C   0  0  0  0  0  0  0  0  0  0  0  0
    0.1611   -0.3857    0.0000 C   0  0  0  0  0  0  0  0  0  0  0  0
    0.1611   -1.2107    0.0000 C   0  0  0  0  0  0  0  0  0  0  0  0
    0.8755   -1.6232    0.0000 C   0  0  0  0  0  0  0  0  0  0  0  0
  2  1  1  0  0  0  0
  3  2  2  0  0  0  0
  4  3  1  0  0  0  0
  5  4  2  0  0  0  0
  6  5  1  0  0  0  0
  1  6  2  0  0  0  0
  6  7  1  0  0  0  0
  1  8  1  0  0  0  0
  9  8  1  0  0  0  0
 10  9  2  0  0  0  0
 11 10  1  0  0  0  0
 12 11  2  0  0  0  0
 13 12  1  0  0  0  0
  8 13  2  0  0  0  0
M  END
> <ChemID>
101217

> <CAS>
2051-60-7

> <Original_SMILES>
Clc1ccccc1-c1ccccc1

> <preferred_name>
2-Chlorobiphenyl

> <dsstox_substance_id>
DTXSID6040298

> <dsstox_compound_id>
DTXCID4020298

> <qc_level>
DSSTox_Low

> <Canonical_QSARr>
ClC1C=CC=CC=1C1C=CC=CC=1

> <InChI_Code_QSARr>
InChI=1S/C12H9Cl/c13-12-9-5-4-8-11(12)10-6-2-1-3-7-10/h1-9H

> <InChI Key_QSARr>
LAXBNTIAOJWAOP-UHFFFAOYSA-N

> <Salt_Solvent>


> <Salt_Solvent_ID>
0

> <MPID>
102647

> <HL Reference>
SHIU,WY & MACKAY,D (1986)

> <HL Temperature>
25

> <LogHL>
-3.1331221856625016

> <Tr_1_Tst_0>
1

$$$$
101218
  Mrv171c012241914302D          

 13 14  0  0  0  0            999 V2000
    2.1802   -1.2881    0.0000 C   0  0  0  0  0  0  0  0  0  0  0  0
    2.8947   -1.7006    0.0000 C   0  0  0  0  0  0  0  0  0  0  0  0
    3.6092   -1.2881    0.0000 C   0  0  0  0  0  0  0  0  0  0  0  0
    3.6092   -0.4631    0.0000 C   0  0  0  0  0  0  0  0  0  0  0  0
    2.8947   -0.0506    0.0000 C   0  0  0  0  0  0  0  0  0  0  0  0
    2.8947    0.7744    0.0000 Cl  0  0  0  0  0  0  0  0  0  0  0  0
    2.1802   -0.4631    0.0000 C   0  0  0  0  0  0  0  0  0  0  0  0
    1.4658   -1.7006    0.0000 C   0  0  0  0  0  0  0  0  0  0  0  0
    0.7513   -1.2881    0.0000 C   0  0  0  0  0  0  0  0  0  0  0  0
    0.0368   -1.7006    0.0000 C   0  0  0  0  0  0  0  0  0  0  0  0
    0.0368   -2.5256    0.0000 C   0  0  0  0  0  0  0  0  0  0  0  0
    0.7513   -2.9381    0.0000 C   0  0  0  0  0  0  0  0  0  0  0  0
    1.4658   -2.5256    0.0000 C   0  0  0  0  0  0  0  0  0  0  0  0
  2  1  1  0  0  0  0
  3  2  2  0  0  0  0
  4  3  1  0  0  0  0
  5  4  2  0  0  0  0
  5  6  1  0  0  0  0
  7  5  1  0  0  0  0
  1  7  2  0  0  0  0
  1  8  1  0  0  0  0
  9  8  2  0  0  0  0
 10  9  1  0  0  0  0
 11 10  2  0  0  0  0
 12 11  1  0  0  0  0
 13 12  2  0  0  0  0
  8 13  1  0  0  0  0
M  END
> <ChemID>
101218

> <CAS>
2051-61-8

> <Original_SMILES>
Clc1cc(ccc1)-c1ccccc1

> <preferred_name>
3-Chlorobiphenyl

> <dsstox_substance_id>
DTXSID1040299

> <dsstox_compound_id>
DTXCID9020299

> <qc_level>
DSSTox_Low

> <Canonical_QSARr>
ClC1C=C(C=CC=1)C1C=CC=CC=1

> <InChI_Code_QSARr>
InChI=1S/C12H9Cl/c13-12-8-4-7-11(9-12)10-5-2-1-3-6-10/h1-9H

> <InChI Key_QSARr>
NMWSKOLWZZWHPL-UHFFFAOYSA-N

> <Salt_Solvent>


> <Salt_Solvent_ID>
0

> <MPID>
102648

> <HL Reference>
SHIU,WY & MACKAY,D (1986)

> <HL Temperature>
25

> <LogHL>
-3.2125395254815836

> <Tr_1_Tst_0>
1

$$$$
101219
  Mrv171c012241914302D          

 13 14  0  0  0  0            999 V2000
    2.6609   -0.5244    0.0000 C   0  0  0  0  0  0  0  0  0  0  0  0
    3.3754   -0.1119    0.0000 C   0  0  0  0  0  0  0  0  0  0  0  0
    3.3754    0.7131    0.0000 C   0  0  0  0  0  0  0  0  0  0  0  0
    2.6609    1.1256    0.0000 C   0  0  0  0  0  0  0  0  0  0  0  0
    2.6609    1.9506    0.0000 Cl  0  0  0  0  0  0  0  0  0  0  0  0
    1.9464    0.7131    0.0000 C   0  0  0  0  0  0  0  0  0  0  0  0
    1.9464   -0.1119    0.0000 C   0  0  0  0  0  0  0  0  0  0  0  0
    2.6609   -1.3494    0.0000 C   0  0  0  0  0  0  0  0  0  0  0  0
    1.9464   -1.7619    0.0000 C   0  0  0  0  0  0  0  0  0  0  0  0
    1.9464   -2.5869    0.0000 C   0  0  0  0  0  0  0  0  0  0  0  0
    2.6609   -2.9994    0.0000 C   0  0  0  0  0  0  0  0  0  0  0  0
    3.3754   -2.5869    0.0000 C   0  0  0  0  0  0  0  0  0  0  0  0
    3.3754   -1.7619    0.0000 C   0  0  0  0  0  0  0  0  0  0  0  0
  2  1  1  0  0  0  0
  3  2  2  0  0  0  0
  4  3  1  0  0  0  0
  4  5  1  0  0  0  0
  6  4  2  0  0  0  0
  7  6  1  0  0  0  0
  1  7  2  0  0  0  0
  1  8  1  0  0  0  0
  9  8  1  0  0  0  0
 10  9  2  0  0  0  0
 11 10  1  0  0  0  0
 12 11  2  0  0  0  0
 13 12  1  0  0  0  0
  8 13  2  0  0  0  0
M  END
> <ChemID>
101219

> <CAS>
2051-62-9

> <Original_SMILES>
Clc1ccc(cc1)-c1ccccc1

> <preferred_name>
4-Chlorobiphenyl

> <dsstox_substance_id>
DTXSID3040300

> <dsstox_compound_id>
DTXCID1020300

> <qc_level>
DSSTox_High

> <Canonical_QSARr>
ClC1C=CC(=CC=1)C1C=CC=CC=1

> <InChI_Code_QSARr>
InChI=1S/C12H9Cl/c13-12-8-6-11(7-9-12)10-4-2-1-3-5-10/h1-9H

> <InChI Key_QSARr>
FPWNLURCHDRMHC-UHFFFAOYSA-N

> <Salt_Solvent>


> <Salt_Solvent_ID>
0

> <MPID>
102649

> <HL Reference>
SHIU,WY & MACKAY,D (1986)

> <HL Temperature>
25

> <LogHL>
-3.241845378032612

> <Tr_1_Tst_0>
1

$$$$
101220
  Mrv171c012241914302D          

 10 10  0  0  0  0            999 V2000
    1.8638   -2.2315    0.0000 C   0  0  0  0  0  0  0  0  0  0  0  0
    1.8638   -3.0565    0.0000 Cl  0  0  0  0  0  0  0  0  0  0  0  0
    2.5783   -1.8190    0.0000 C   0  0  0  0  0  0  0  0  0  0  0  0
    2.5783   -0.9940    0.0000 C   0  0  0  0  0  0  0  0  0  0  0  0
    1.8638   -0.5815    0.0000 C   0  0  0  0  0  0  0  0  0  0  0  0
    1.8638    0.2435    0.0000 Cl  0  0  0  0  0  0  0  0  0  0  0  0
    1.1494   -0.9940    0.0000 C   0  0  0  0  0  0  0  0  0  0  0  0
    0.4349   -0.5815    0.0000 C   0  0  0  0  0  0  0  0  0  0  0  0
    1.1494   -1.8190    0.0000 C   0  0  0  0  0  0  0  0  0  0  0  0
    0.4349   -2.2315    0.0000 Cl  0  0  0  0  0  0  0  0  0  0  0  0
  1  2  1  0  0  0  0
  3  1  1  0  0  0  0
  4  3  2  0  0  0  0
  5  4  1  0  0  0  0
  5  6  1  0  0  0  0
  7  5  2  0  0  0  0
  7  8  1  0  0  0  0
  9  7  1  0  0  0  0
  1  9  2  0  0  0  0
  9 10  1  0  0  0  0
M  END
> <ChemID>
101220

> <CAS>
2077-46-5

> <Original_SMILES>
Cc1c(Cl)c(Cl)ccc1Cl

> <preferred_name>
2,3,6-Trichlorotoluene

> <dsstox_substance_id>
DTXSID8047767

> <dsstox_compound_id>
DTXCID3027748

> <qc_level>
DSSTox_Low

> <Canonical_QSARr>
CC1C(Cl)=C(Cl)C=CC=1Cl

> <InChI_Code_QSARr>
InChI=1S/C7H5Cl3/c1-4-5(8)2-3-6(9)7(4)10/h2-3H,1H3

> <InChI Key_QSARr>
UZYYBZNZSSNYSA-UHFFFAOYSA-N

> <Salt_Solvent>


> <Salt_Solvent_ID>
0

> <MPID>
102650

> <HL Reference>
OLIVER,BG (1985)

> <HL Temperature>
20

> <LogHL>
-2.8239087409443173

> <Tr_1_Tst_0>
0

$$$$
101223
  Mrv171c012241914302D          

 20 21  0  0  0  0            999 V2000
    0.3572    1.4438    0.0000 C   0  0  0  0  0  0  0  0  0  0  0  0
   -0.3572    1.8563    0.0000 C   0  0  0  0  0  0  0  0  0  0  0  0
   -0.3572    2.6813    0.0000 Cl  0  0  0  0  0  0  0  0  0  0  0  0
   -1.0717    1.4438    0.0000 C   0  0  0  0  0  0  0  0  0  0  0  0
   -1.7862    1.8563    0.0000 Cl  0  0  0  0  0  0  0  0  0  0  0  0
   -1.0717    0.6188    0.0000 C   0  0  0  0  0  0  0  0  0  0  0  0
   -0.3572    0.2063    0.0000 C   0  0  0  0  0  0  0  0  0  0  0  0
   -0.3572   -0.6187    0.0000 Cl  0  0  0  0  0  0  0  0  0  0  0  0
    0.3572    0.6188    0.0000 C   0  0  0  0  0  0  0  0  0  0  0  0
    1.0717    0.2063    0.0000 Cl  0  0  0  0  0  0  0  0  0  0  0  0
    1.0717    1.8563    0.0000 C   0  0  0  0  0  0  0  0  0  0  0  0
    1.7862    1.4438    0.0000 C   0  0  0  0  0  0  0  0  0  0  0  0
    1.7862    0.6188    0.0000 Cl  0  0  0  0  0  0  0  0  0  0  0  0
    2.5006    1.8563    0.0000 C   0  0  0  0  0  0  0  0  0  0  0  0
    3.2151    1.4438    0.0000 Cl  0  0  0  0  0  0  0  0  0  0  0  0
    2.5006    2.6813    0.0000 C   0  0  0  0  0  0  0  0  0  0  0  0
    1.7862    3.0938    0.0000 C   0  0  0  0  0  0  0  0  0  0  0  0
    1.7862    3.9188    0.0000 Cl  0  0  0  0  0  0  0  0  0  0  0  0
    1.0717    2.6813    0.0000 C   0  0  0  0  0  0  0  0  0  0  0  0
    0.3572    3.0938    0.0000 Cl  0  0  0  0  0  0  0  0  0  0  0  0
  2  1  1  0  0  0  0
  2  3  1  0  0  0  0
  4  2  2  0  0  0  0
  4  5  1  0  0  0  0
  6  4  1  0  0  0  0
  7  6  2  0  0  0  0
  7  8  1  0  0  0  0
  9  7  1  0  0  0  0
  1  9  2  0  0  0  0
  9 10  1  0  0  0  0
  1 11  1  0  0  0  0
 12 11  1  0  0  0  0
 12 13  1  0  0  0  0
 14 12  2  0  0  0  0
 14 15  1  0  0  0  0
 16 14  1  0  0  0  0
 17 16  2  0  0  0  0
 17 18  1  0  0  0  0
 19 17  1  0  0  0  0
 11 19  2  0  0  0  0
 19 20  1  0  0  0  0
M  END
> <ChemID>
101223

> <CAS>
2136-99-4

> <Original_SMILES>
Clc1cc(Cl)c(Cl)c(-c2c(Cl)c(Cl)cc(Cl)c2Cl)c1Cl

> <preferred_name>
2,2',3,3',5,5',6,6'-Octachlorobiphenyl

> <dsstox_substance_id>
DTXSID0074132

> <dsstox_compound_id>
DTXCID1036468

> <qc_level>
Public_High

> <Canonical_QSARr>
ClC1C=C(Cl)C(Cl)=C(C2=C(Cl)C(Cl)=CC(Cl)=C2Cl)C=1Cl

> <InChI_Code_QSARr>
InChI=1S/C12H2Cl8/c13-3-1-4(14)10(18)7(9(3)17)8-11(19)5(15)2-6(16)12(8)20/h1-2H

> <InChI Key_QSARr>
JPOPEORRMSDUIP-UHFFFAOYSA-N

> <Salt_Solvent>


> <Salt_Solvent_ID>
0

> <MPID>
102651

> <HL Reference>
BRUNNER,S ET AL. (1990)

> <HL Temperature>
25

> <LogHL>
-4.744727494896689

> <Tr_1_Tst_0>
1

$$$$
101229
  Mrv171c012241914302D          

 12 12  0  0  0  0            999 V2000
    1.7400   -1.2985    0.0000 N   0  0  0  0  0  0  0  0  0  0  0  0
    1.7400   -0.4735    0.0000 C   0  0  0  0  0  0  0  0  0  0  0  0
    2.4545   -0.0610    0.0000 S   0  0  0  0  0  0  0  0  0  0  0  0
    2.4545    0.7640    0.0000 C   0  0  0  0  0  0  0  0  0  0  0  0
    3.1689    1.1765    0.0000 C   0  0  0  0  0  0  0  0  0  0  0  0
    1.0255   -0.0610    0.0000 O   0  0  0  0  0  0  0  0  0  0  0  0
    0.9967   -1.6564    0.0000 C   0  0  0  0  0  0  0  0  0  0  0  0
    0.8131   -2.4607    0.0000 C   0  0  0  0  0  0  0  0  0  0  0  0
    1.3275   -3.1057    0.0000 C   0  0  0  0  0  0  0  0  0  0  0  0
    2.1525   -3.1057    0.0000 C   0  0  0  0  0  0  0  0  0  0  0  0
    2.6669   -2.4607    0.0000 C   0  0  0  0  0  0  0  0  0  0  0  0
    2.4833   -1.6564    0.0000 C   0  0  0  0  0  0  0  0  0  0  0  0
  1  2  1  0  0  0  0
  2  3  1  0  0  0  0
  3  4  1  0  0  0  0
  4  5  1  0  0  0  0
  2  6  2  0  0  0  0
  7  1  1  0  0  0  0
  8  7  1  0  0  0  0
  9  8  1  0  0  0  0
 10  9  1  0  0  0  0
 11 10  1  0  0  0  0
 12 11  1  0  0  0  0
  1 12  1  0  0  0  0
M  END
> <ChemID>
101229

> <CAS>
2212-67-1

> <Original_SMILES>
CCSC(=O)N1CCCCCC1

> <preferred_name>
Molinate

> <dsstox_substance_id>
DTXSID6024206

> <dsstox_compound_id>
DTXCID204206

> <qc_level>
DSSTox_Low

> <Canonical_QSARr>
CCSC(=O)N1CCCCCC1

> <InChI_Code_QSARr>
InChI=1S/C9H17NOS/c1-2-12-9(11)10-7-5-3-4-6-8-10/h2-8H2,1H3

> <InChI Key_QSARr>
DEDOPGXGGQYYMW-UHFFFAOYSA-N

> <Salt_Solvent>


> <Salt_Solvent_ID>
0

> <MPID>
102652

> <HL Reference>
SAGEBIEL,JC ET AL. (1992)

> <HL Temperature>
20

> <LogHL>
-5.387216143280258

> <Tr_1_Tst_0>
1

$$$$
101235
  Mrv171c012241914302D          

  8  7  0  0  0  0            999 V2000
    0.5231    1.1270    0.0000 C   0  0  0  0  0  0  0  0  0  0  0  0
   -0.1914    0.7145    0.0000 O   0  0  0  0  0  0  0  0  0  0  0  0
    0.5231    1.9520    0.0000 C   0  0  0  0  0  0  0  0  0  0  0  0
    1.2375    0.7145    0.0000 O   0  0  0  0  0  0  0  0  0  0  0  0
    1.9520    1.1270    0.0000 O   0  0  0  0  0  0  0  0  0  0  0  0
    2.6665    0.7145    0.0000 N   0  3  0  0  0  0  0  0  0  0  0  0
    3.3809    1.1270    0.0000 O   0  5  0  0  0  0  0  0  0  0  0  0
    2.6665   -0.1105    0.0000 O   0  0  0  0  0  0  0  0  0  0  0  0
  1  2  2  0  0  0  0
  1  3  1  0  0  0  0
  1  4  1  0  0  0  0
  4  5  1  0  0  0  0
  5  6  1  0  0  0  0
  6  7  1  0  0  0  0
  6  8  2  0  0  0  0
M  CHG  2   6   1   7  -1
M  END
> <ChemID>
101235

> <CAS>
2278-22-0

> <Original_SMILES>
CC(=O)OO[N+]([O-])=O

> <preferred_name>
Peroxyacetyl nitrate

> <dsstox_substance_id>
DTXSID4062301

> <dsstox_compound_id>
DTXCID1036751

> <qc_level>
Public_High

> <Canonical_QSARr>
CC(=O)OO[N+]([O-])=O

> <InChI_Code_QSARr>
InChI=1S/C2H3NO5/c1-2(4)7-8-3(5)6/h1H3

> <InChI Key_QSARr>
VGQXTTSVLMQFHM-UHFFFAOYSA-N

> <Salt_Solvent>


> <Salt_Solvent_ID>
0

> <MPID>
102653

> <HL Reference>
GAFFNEY,JS ET AL. (1987)

> <HL Temperature>
25

> <LogHL>
-3.5559552040819247

> <Tr_1_Tst_0>
1

$$$$
101239
  Mrv171c012241914302D          

  9  8  0  0  0  0            999 V2000
   -0.1914    0.7145    0.0000 C   0  0  0  0  0  0  0  0  0  0  0  0
    0.5230    1.1270    0.0000 C   0  0  0  0  0  0  0  0  0  0  0  0
    1.2375    0.7145    0.0000 C   0  0  0  0  0  0  0  0  0  0  0  0
    1.9520    1.1270    0.0000 C   0  0  0  0  0  0  0  0  0  0  0  0
    2.6664    0.7145    0.0000 C   0  0  0  0  0  0  0  0  0  0  0  0
    3.3809    1.1270    0.0000 C   0  0  0  0  0  0  0  0  0  0  0  0
    4.0954    0.7145    0.0000 C   0  0  0  0  0  0  0  0  0  0  0  0
    4.8099    1.1270    0.0000 C   0  0  0  0  0  0  0  0  0  0  0  0
    4.8099    1.9520    0.0000 O   0  0  0  0  0  0  0  0  0  0  0  0
  1  2  1  0  0  0  0
  2  3  1  0  0  0  0
  3  4  1  0  0  0  0
  4  5  1  0  0  0  0
  6  5  1  4  0  0  0
  6  7  2  0  0  0  0
  7  8  1  0  0  0  0
  8  9  2  0  0  0  0
M  END
> <ChemID>
101239

> <CAS>
2363-89-5

> <Original_SMILES>
CCCCCC=CC=O

> <preferred_name>
2-Octenal

> <dsstox_substance_id>
DTXSID0062349

> <dsstox_compound_id>
DTXCID1036913

> <qc_level>
Public_High

> <Canonical_QSARr>
CCCCCC=CC=O

> <InChI_Code_QSARr>
InChI=1S/C8H14O/c1-2-3-4-5-6-7-8-9/h6-8H,2-5H2,1H3

> <InChI Key_QSARr>
LVBXEMGDVWVTGY-UHFFFAOYSA-N

> <Salt_Solvent>


> <Salt_Solvent_ID>
0

> <MPID>
102654

> <HL Reference>
BUTTERY,RG ET AL. (1971)

> <HL Temperature>
25

> <LogHL>
-4.134303940083927

> <Tr_1_Tst_0>
1

$$$$
101241
  Mrv171c012241914302D          

 22 26  0  0  0  0            999 V2000
    2.1662   -0.5944    0.0000 C   0  0  0  0  0  0  0  0  0  0  0  0
    2.4248    0.1890    0.0000 Cl  0  0  0  0  0  0  0  0  0  0  0  0
    2.2004   -1.2333    0.0000 C   0  0  0  0  0  0  0  0  0  0  0  0
    2.2867   -2.3035    0.0000 C   0  0  0  0  0  0  0  0  0  0  0  0
    2.8140   -2.0472    0.0000 C   0  0  0  0  0  0  0  0  0  0  0  0
    1.7458   -2.2129    0.0000 C   0  0  0  0  0  0  0  0  0  0  0  0
    1.1128   -2.7419    0.0000 Cl  0  0  0  0  0  0  0  0  0  0  0  0
    1.9165   -1.6139    0.0000 C   0  0  0  0  0  0  0  0  0  0  0  0
    0.8878   -1.5630    0.0000 C   0  0  0  0  0  0  0  0  0  0  0  0
    1.2172   -0.7010    0.0000 C   0  0  0  0  0  0  0  0  0  0  0  0
    0.7121   -0.0487    0.0000 Cl  0  0  0  0  0  0  0  0  0  0  0  0
    1.4615   -1.2803    0.0000 C   0  0  0  0  0  0  0  0  0  0  0  0
    0.9991   -1.9636    0.0000 Cl  0  0  0  0  0  0  0  0  0  0  0  0
    0.5619   -2.3209    0.0000 Cl  0  0  0  0  0  0  0  0  0  0  0  0
    0.0628   -1.5561    0.0000 Cl  0  0  0  0  0  0  0  0  0  0  0  0
    1.7560   -0.8046    0.0000 Cl  0  0  0  0  0  0  0  0  0  0  0  0
    2.8089   -1.1927    0.0000 C   0  0  0  0  0  0  0  0  0  0  0  0
    3.6241   -1.3196    0.0000 Cl  0  0  0  0  0  0  0  0  0  0  0  0
    3.5146   -2.4828    0.0000 Cl  0  0  0  0  0  0  0  0  0  0  0  0
    1.5470   -2.6688    0.0000 Cl  0  0  0  0  0  0  0  0  0  0  0  0
    2.3479   -3.1262    0.0000 Cl  0  0  0  0  0  0  0  0  0  0  0  0
    3.0003   -1.4351    0.0000 Cl  0  0  0  0  0  0  0  0  0  0  0  0
  1  2  1  0  0  0  0
  3  1  1  0  0  0  0
  3  4  1  0  0  0  0
  4  5  1  0  0  0  0
  5  6  1  0  0  0  0
  6  7  1  0  0  0  0
  8  6  1  0  0  0  0
  9  8  1  0  0  0  0
 10  9  1  0  0  0  0
 10  1  1  0  0  0  0
 10 11  1  0  0  0  0
 12 10  1  0  0  0  0
 12  3  1  0  0  0  0
  6 12  1  0  0  0  0
 12 13  1  0  0  0  0
  9 14  1  0  0  0  0
  9 15  1  0  0  0  0
  8 16  1  0  0  0  0
  8 17  1  0  0  0  0
  1 17  1  0  0  0  0
 17  5  1  0  0  0  0
 17 18  1  0  0  0  0
  5 19  1  0  0  0  0
  4 20  1  0  0  0  0
  4 21  1  0  0  0  0
  3 22  1  0  0  0  0
M  END
> <ChemID>
101241

> <CAS>
2385-85-5

> <Original_SMILES>
ClC1(Cl)C2(Cl)C3(Cl)C4(Cl)C2(Cl)C2(Cl)C(Cl)(C3(Cl)C12Cl)C4(Cl)Cl

> <preferred_name>
Mirex

> <dsstox_substance_id>
DTXSID7020895

> <dsstox_compound_id>
DTXCID10895

> <qc_level>
DSSTox_Low

> <Canonical_QSARr>
ClC1(Cl)C2(Cl)C3(Cl)C4(Cl)C2(Cl)C2(Cl)C(Cl)(C3(Cl)C12Cl)C4(Cl)Cl

> <InChI_Code_QSARr>
InChI=1S/C10Cl12/c11-1-2(12)7(17)4(14)3(13,5(1,15)9(7,19)20)6(1,16)10(21,22)8(2,4)18

> <InChI Key_QSARr>
GVYLCNUFSHDAAW-UHFFFAOYSA-N

> <Salt_Solvent>


> <Salt_Solvent_ID>
0

> <MPID>
102655

> <HL Reference>
YIN,C & HASSETT,JP (1986)

> <HL Temperature>
25

> <LogHL>
-3.090979145788843

> <Tr_1_Tst_0>
1

$$$$
101246
  Mrv171c012241914302D          

 16 17  0  0  0  0            999 V2000
    2.8858   -1.0170    0.0000 C   0  0  0  0  0  0  0  0  0  0  0  0
    3.6002   -0.6045    0.0000 C   0  0  0  0  0  0  0  0  0  0  0  0
    3.6002    0.2205    0.0000 C   0  0  0  0  0  0  0  0  0  0  0  0
    2.8858    0.6330    0.0000 C   0  0  0  0  0  0  0  0  0  0  0  0
    2.8858    1.4580    0.0000 Cl  0  0  0  0  0  0  0  0  0  0  0  0
    2.1713    0.2205    0.0000 C   0  0  0  0  0  0  0  0  0  0  0  0
    2.1713   -0.6045    0.0000 C   0  0  0  0  0  0  0  0  0  0  0  0
    1.4568   -1.0170    0.0000 Cl  0  0  0  0  0  0  0  0  0  0  0  0
    2.8858   -1.8420    0.0000 C   0  0  0  0  0  0  0  0  0  0  0  0
    2.1713   -2.2545    0.0000 C   0  0  0  0  0  0  0  0  0  0  0  0
    2.1713   -3.0795    0.0000 C   0  0  0  0  0  0  0  0  0  0  0  0
    2.8858   -3.4920    0.0000 C   0  0  0  0  0  0  0  0  0  0  0  0
    2.8858   -4.3170    0.0000 Cl  0  0  0  0  0  0  0  0  0  0  0  0
    3.6002   -3.0795    0.0000 C   0  0  0  0  0  0  0  0  0  0  0  0
    3.6002   -2.2545    0.0000 C   0  0  0  0  0  0  0  0  0  0  0  0
    4.3147   -1.8420    0.0000 Cl  0  0  0  0  0  0  0  0  0  0  0  0
  2  1  1  0  0  0  0
  3  2  2  0  0  0  0
  4  3  1  0  0  0  0
  4  5  1  0  0  0  0
  6  4  2  0  0  0  0
  7  6  1  0  0  0  0
  1  7  2  0  0  0  0
  7  8  1  0  0  0  0
  1  9  1  0  0  0  0
 10  9  1  0  0  0  0
 11 10  2  0  0  0  0
 12 11  1  0  0  0  0
 12 13  1  0  0  0  0
 14 12  2  0  0  0  0
 15 14  1  0  0  0  0
  9 15  2  0  0  0  0
 15 16  1  0  0  0  0
M  END
> <ChemID>
101246

> <CAS>
2437-79-8

> <Original_SMILES>
Clc1cc(Cl)c(cc1)-c1ccc(Cl)cc1Cl

> <preferred_name>
2,2',4,4'-Tetrachlorobiphenyl

> <dsstox_substance_id>
DTXSID0022513

> <dsstox_compound_id>
DTXCID702513

> <qc_level>
DSSTox_Low

> <Canonical_QSARr>
ClC1=CC(Cl)=C(C=C1)C1C=CC(Cl)=CC=1Cl

> <InChI_Code_QSARr>
InChI=1S/C12H6Cl4/c13-7-1-3-9(11(15)5-7)10-4-2-8(14)6-12(10)16/h1-6H

> <InChI Key_QSARr>
QORAVNMWUNPXAO-UHFFFAOYSA-N

> <Salt_Solvent>


> <Salt_Solvent_ID>
0

> <MPID>
102656

> <HL Reference>
BRUNNER,S ET AL. (1990)

> <HL Temperature>
25

> <LogHL>
-3.7212463990471716

> <Tr_1_Tst_0>
0

$$$$
101256
  Mrv171c012241914302D          

 11 11  0  0  0  0            999 V2000
    0.9743    0.4875    0.0000 C   0  0  0  0  0  0  0  0  0  0  0  0
    0.9743   -0.3375    0.0000 N   0  3  0  0  0  0  0  0  0  0  0  0
    0.2598   -0.7500    0.0000 O   0  5  0  0  0  0  0  0  0  0  0  0
    1.6887   -0.7500    0.0000 O   0  0  0  0  0  0  0  0  0  0  0  0
    1.6887    0.9000    0.0000 C   0  0  0  0  0  0  0  0  0  0  0  0
    1.6887    1.7250    0.0000 C   0  0  0  0  0  0  0  0  0  0  0  0
    0.9743    2.1375    0.0000 C   0  0  0  0  0  0  0  0  0  0  0  0
    0.9743    2.9625    0.0000 O   0  0  0  0  0  0  0  0  0  0  0  0
    0.2598    1.7250    0.0000 C   0  0  0  0  0  0  0  0  0  0  0  0
    0.2598    0.9000    0.0000 C   0  0  0  0  0  0  0  0  0  0  0  0
   -0.4547    0.4875    0.0000 C   0  0  0  0  0  0  0  0  0  0  0  0
  1  2  1  0  0  0  0
  2  3  1  0  0  0  0
  2  4  2  0  0  0  0
  5  1  1  0  0  0  0
  6  5  2  0  0  0  0
  7  6  1  0  0  0  0
  7  8  1  0  0  0  0
  9  7  2  0  0  0  0
 10  9  1  0  0  0  0
  1 10  2  0  0  0  0
 10 11  1  0  0  0  0
M  CHG  2   2   1   3  -1
M  END
> <ChemID>
101256

> <CAS>
2581-34-2

> <Original_SMILES>
Cc1cc(O)ccc1[N+]([O-])=O

> <preferred_name>
4-Nitro-m-cresol

> <dsstox_substance_id>
DTXSID2062535

> <dsstox_compound_id>
DTXCID2037398

> <qc_level>
Public_High

> <Canonical_QSARr>
CC1C=C(O)C=CC=1[N+]([O-])=O

> <InChI_Code_QSARr>
InChI=1S/C7H7NO3/c1-5-4-6(9)2-3-7(5)8(10)11/h2-4,9H,1H3

> <InChI Key_QSARr>
PIIZYNQECPTVEO-UHFFFAOYSA-N

> <Salt_Solvent>


> <Salt_Solvent_ID>
0

> <MPID>
102657

> <HL Reference>
TREMPT,J ET AL. (1993)

> <HL Temperature>
20

> <LogHL>
-7.793174123968152

> <Tr_1_Tst_0>
0

$$$$
101272
  Mrv171c012241914302D          

 18 18  0  0  0  0            999 V2000
    2.9781   -2.2291    0.0000 S   0  0  0  0  0  0  0  0  0  0  0  0
    3.3906   -1.5147    0.0000 P   0  0  0  0  0  0  0  0  0  0  0  0
    4.1050   -1.9272    0.0000 O   0  0  0  0  0  0  0  0  0  0  0  0
    4.8195   -1.5147    0.0000 C   0  0  0  0  0  0  0  0  0  0  0  0
    5.5340   -1.9272    0.0000 C   0  0  0  0  0  0  0  0  0  0  0  0
    3.8031   -0.8002    0.0000 O   0  0  0  0  0  0  0  0  0  0  0  0
    4.6281   -0.8002    0.0000 C   0  0  0  0  0  0  0  0  0  0  0  0
    5.0406   -0.0857    0.0000 C   0  0  0  0  0  0  0  0  0  0  0  0
    2.6761   -1.1022    0.0000 O   0  0  0  0  0  0  0  0  0  0  0  0
    1.9616   -1.5147    0.0000 C   0  0  0  0  0  0  0  0  0  0  0  0
    1.2471   -1.1022    0.0000 C   0  0  0  0  0  0  0  0  0  0  0  0
    1.2471   -0.2772    0.0000 Cl  0  0  0  0  0  0  0  0  0  0  0  0
    0.5327   -1.5147    0.0000 C   0  0  0  0  0  0  0  0  0  0  0  0
    0.5327   -2.3397    0.0000 C   0  0  0  0  0  0  0  0  0  0  0  0
   -0.1818   -2.7522    0.0000 Cl  0  0  0  0  0  0  0  0  0  0  0  0
    1.2471   -2.7522    0.0000 C   0  0  0  0  0  0  0  0  0  0  0  0
    1.2471   -3.5772    0.0000 Cl  0  0  0  0  0  0  0  0  0  0  0  0
    1.9616   -2.3397    0.0000 N   0  0  0  0  0  0  0  0  0  0  0  0
  1  2  2  0  0  0  0
  2  3  1  0  0  0  0
  3  4  1  0  0  0  0
  4  5  1  0  0  0  0
  2  6  1  0  0  0  0
  6  7  1  0  0  0  0
  7  8  1  0  0  0  0
  2  9  1  0  0  0  0
  9 10  1  0  0  0  0
 11 10  1  0  0  0  0
 11 12  1  0  0  0  0
 13 11  2  0  0  0  0
 14 13  1  0  0  0  0
 14 15  1  0  0  0  0
 16 14  2  0  0  0  0
 16 17  1  0  0  0  0
 18 16  1  0  0  0  0
 10 18  2  0  0  0  0
M  END
> <ChemID>
101272

> <CAS>
2921-88-2

> <Original_SMILES>
CCOP(=S)(Oc1[n]c(Cl)c(Cl)cc1Cl)OCC

> <preferred_name>
Chlorpyrifos

> <dsstox_substance_id>
DTXSID4020458

> <dsstox_compound_id>
DTXCID80458

> <qc_level>
DSSTox_Low

> <Canonical_QSARr>
CCOP(=S)(OC1=NC(Cl)=C(Cl)C=C1Cl)OCC

> <InChI_Code_QSARr>
InChI=1S/C9H11Cl3NO3PS/c1-3-14-17(18,15-4-2)16-9-7(11)5-6(10)8(12)13-9/h5H,3-4H2,1-2H3

> <InChI Key_QSARr>
SBPBAQFWLVIOKP-UHFFFAOYSA-N

> <Salt_Solvent>


> <Salt_Solvent_ID>
0

> <MPID>
102658

> <HL Reference>
RICE,CP & CHERNYAK,SM (1995)

> <HL Temperature>
20

> <LogHL>
-5.533132379645891

> <Tr_1_Tst_0>
1

$$$$
101273
  Mrv171c012241914302D          

 14 15  0  0  0  0            999 V2000
    0.7145    2.0625    0.0000 C   0  0  0  0  0  0  0  0  0  0  0  0
    1.4289    2.4750    0.0000 C   0  0  0  0  0  0  0  0  0  0  0  0
    1.4289    3.3000    0.0000 C   0  0  0  0  0  0  0  0  0  0  0  0
    0.7145    3.7125    0.0000 C   0  0  0  0  0  0  0  0  0  0  0  0
    0.7145    4.5375    0.0000 Cl  0  0  0  0  0  0  0  0  0  0  0  0
   -0.0000    3.3000    0.0000 C   0  0  0  0  0  0  0  0  0  0  0  0
   -0.7145    3.7125    0.0000 Cl  0  0  0  0  0  0  0  0  0  0  0  0
   -0.0000    2.4750    0.0000 C   0  0  0  0  0  0  0  0  0  0  0  0
    0.7145    1.2375    0.0000 C   0  0  0  0  0  0  0  0  0  0  0  0
   -0.0000    0.8250    0.0000 C   0  0  0  0  0  0  0  0  0  0  0  0
   -0.0000    0.0000    0.0000 C   0  0  0  0  0  0  0  0  0  0  0  0
    0.7145   -0.4125    0.0000 C   0  0  0  0  0  0  0  0  0  0  0  0
    1.4289    0.0000    0.0000 C   0  0  0  0  0  0  0  0  0  0  0  0
    1.4289    0.8250    0.0000 C   0  0  0  0  0  0  0  0  0  0  0  0
  2  1  1  0  0  0  0
  3  2  2  0  0  0  0
  4  3  1  0  0  0  0
  4  5  1  0  0  0  0
  6  4  2  0  0  0  0
  6  7  1  0  0  0  0
  8  6  1  0  0  0  0
  1  8  2  0  0  0  0
  1  9  1  0  0  0  0
 10  9  1  0  0  0  0
 11 10  2  0  0  0  0
 12 11  1  0  0  0  0
 13 12  2  0  0  0  0
 14 13  1  0  0  0  0
  9 14  2  0  0  0  0
M  END
> <ChemID>
101273

> <CAS>
2974-92-7

> <Original_SMILES>
Clc1ccc(cc1Cl)-c1ccccc1

> <preferred_name>
3,4-Dichlorobiphenyl

> <dsstox_substance_id>
DTXSID6073310

> <dsstox_compound_id>
DTXCID3038060

> <qc_level>
Public_High

> <Canonical_QSARr>
ClC1C=CC(=CC=1Cl)C1C=CC=CC=1

> <InChI_Code_QSARr>
InChI=1S/C12H8Cl2/c13-11-7-6-10(8-12(11)14)9-4-2-1-3-5-9/h1-8H

> <InChI Key_QSARr>
ZGHQUYZPMWMLBM-UHFFFAOYSA-N

> <Salt_Solvent>


> <Salt_Solvent_ID>
0

> <MPID>
102659

> <HL Reference>
BRUNNER,S ET AL. (1990)

> <HL Temperature>
25

> <LogHL>
-3.8538719643217614

> <Tr_1_Tst_0>
0

$$$$
101276
  Mrv171c012241914302D          

  3  2  0  0  0  0            999 V2000
    2.3644   -0.2062    0.0000 O   0  0  0  0  0  0  0  0  0  0  0  0
    1.6500    0.2063    0.0000 C   0  0  0  0  0  0  0  0  0  0  0  0
    3.0789    0.2063    0.0000 O   0  0  0  0  0  0  0  0  0  0  0  0
  1  2  1  0  0  0  0
  1  3  1  0  0  0  0
M  END
> <ChemID>
101276

> <CAS>
3031-73-0

> <Original_SMILES>
COO

> <preferred_name>
Methyl hydroperoxide

> <dsstox_substance_id>
DTXSID10184401

> <dsstox_compound_id>
DTXCID80106892

> <qc_level>
Public_Medium

> <Canonical_QSARr>
COO

> <InChI_Code_QSARr>
InChI=1S/CH4O2/c1-3-2/h2H,1H3

> <InChI Key_QSARr>
MEUKEBNAABNAEX-UHFFFAOYSA-N

> <Salt_Solvent>


> <Salt_Solvent_ID>
0

> <MPID>
102660

> <HL Reference>
LIND,JA & KOK,GL (1986)

> <HL Temperature>
25

> <LogHL>
-5.342944147142888

> <Tr_1_Tst_0>
1

$$$$
101277
  Mrv171c012241914302D          

  4  3  0  0  0  0            999 V2000
    2.5156    0.3572    0.0000 O   0  0  0  0  0  0  0  0  0  0  0  0
    2.9281   -0.3572    0.0000 C   0  0  0  0  0  0  0  0  0  0  0  0
    3.7531   -0.3572    0.0000 C   0  0  0  0  0  0  0  0  0  0  0  0
    1.6906    0.3572    0.0000 O   0  0  0  0  0  0  0  0  0  0  0  0
  1  2  1  0  0  0  0
  2  3  1  0  0  0  0
  1  4  1  0  0  0  0
M  END
> <ChemID>
101277

> <CAS>
3031-74-1

> <Original_SMILES>
CCOO

> <preferred_name>
Ethyl hydroperoxide

> <dsstox_substance_id>
DTXSID70184402

> <dsstox_compound_id>
DTXCID40106893

> <qc_level>
Public_Medium

> <Canonical_QSARr>
CCOO

> <InChI_Code_QSARr>
InChI=1S/C2H6O2/c1-2-4-3/h3H,2H2,1H3

> <InChI Key_QSARr>
ILHIHKRJJMKBEE-UHFFFAOYSA-N

> <Salt_Solvent>


> <Salt_Solvent_ID>
0

> <MPID>
102661

> <HL Reference>
SANDER,R (1999)

> <HL Temperature>
25

> <LogHL>
-5.531652669587849

> <Tr_1_Tst_0>
1

$$$$
101285
  Mrv171c012241914302D          

 14 14  0  0  0  0            999 V2000
    1.3473   -3.0840    0.0000 C   0  0  0  0  0  0  0  0  0  0  0  0
    2.0618   -2.6715    0.0000 C   0  0  0  0  0  0  0  0  0  0  0  0
    2.0618   -1.8465    0.0000 C   0  0  0  0  0  0  0  0  0  0  0  0
    1.3473   -1.4340    0.0000 C   0  0  0  0  0  0  0  0  0  0  0  0
    1.3473   -0.6090    0.0000 C   0  0  0  0  0  0  0  0  0  0  0  0
    0.6328   -0.1965    0.0000 C   0  0  0  0  0  0  0  0  0  0  0  0
    2.0618   -0.1965    0.0000 C   0  0  0  0  0  0  0  0  0  0  0  0
    2.0618    0.6285    0.0000 C   0  0  0  0  0  0  0  0  0  0  0  0
    0.6328   -1.8465    0.0000 C   0  0  0  0  0  0  0  0  0  0  0  0
    0.6328   -2.6715    0.0000 C   0  0  0  0  0  0  0  0  0  0  0  0
   -0.0816   -3.0840    0.0000 N   0  3  0  0  0  0  0  0  0  0  0  0
   -0.0816   -3.9090    0.0000 O   0  0  0  0  0  0  0  0  0  0  0  0
   -0.7961   -2.6715    0.0000 O   0  5  0  0  0  0  0  0  0  0  0  0
    1.3473   -3.9090    0.0000 O   0  0  0  0  0  0  0  0  0  0  0  0
  2  1  1  0  0  0  0
  3  2  2  0  0  0  0
  4  3  1  0  0  0  0
  4  5  1  0  0  0  0
  5  6  1  0  0  0  0
  5  7  1  0  0  0  0
  7  8  1  0  0  0  0
  9  4  2  0  0  0  0
 10  9  1  0  0  0  0
  1 10  2  0  0  0  0
 10 11  1  0  0  0  0
 11 12  2  0  0  0  0
 11 13  1  0  0  0  0
  1 14  1  0  0  0  0
M  CHG  2  11   1  13  -1
M  END
> <ChemID>
101285

> <CAS>
3555-18-8

> <Original_SMILES>
CCC(C)c1cc(c(O)cc1)[N+]([O-])=O

> <preferred_name>


> <dsstox_substance_id>
DTXSID40871034

> <dsstox_compound_id>
DTXCID60818709

> <qc_level>


> <Canonical_QSARr>
CCC(C)C1=CC(=C(O)C=C1)[N+]([O-])=O

> <InChI_Code_QSARr>
InChI=1S/C10H13NO3/c1-3-7(2)8-4-5-10(12)9(6-8)11(13)14/h4-7,12H,3H2,1-2H3

> <InChI Key_QSARr>
GCDCKEORRIGZKI-UHFFFAOYSA-N

> <Salt_Solvent>


> <Salt_Solvent_ID>
0

> <MPID>
102662

> <HL Reference>
TREMPT,J ET AL. (1993)

> <HL Temperature>
20

> <LogHL>
-4.019088062223158

> <Tr_1_Tst_0>
1

$$$$
101296
  Mrv171c012241914302D          

  8  7  0  0  0  0            999 V2000
    3.1894    1.8414    0.0000 C   0  0  0  0  0  0  0  0  0  0  0  0
    2.4750    1.4289    0.0000 C   0  0  0  0  0  0  0  0  0  0  0  0
    1.7605    1.8414    0.0000 C   0  0  0  0  0  0  0  0  0  0  0  0
    1.0460    1.4289    0.0000 C   0  0  0  0  0  0  0  0  0  0  0  0
    3.9039    1.4289    0.0000 C   0  0  0  0  0  0  0  0  0  0  0  0
    4.6184    1.8414    0.0000 C   0  0  0  0  0  0  0  0  0  0  0  0
    5.3329    1.4289    0.0000 C   0  0  0  0  0  0  0  0  0  0  0  0
    6.0473    1.8414    0.0000 I   0  0  0  0  0  0  0  0  0  0  0  0
  1  2  1  0  0  0  0
  2  3  1  0  0  0  0
  3  4  1  0  0  0  0
  1  5  1  0  0  0  0
  5  6  1  0  0  0  0
  6  7  1  0  0  0  0
  7  8  1  0  0  0  0
M  END
> <ChemID>
101296

> <CAS>
4282-40-0

> <Original_SMILES>
CCCCCCCI

> <preferred_name>
Heptane, 1-iodo-

> <dsstox_substance_id>
DTXSID2063393

> <dsstox_compound_id>
DTXCID6040167

> <qc_level>
Public_High

> <Canonical_QSARr>
CCCCCCCI

> <InChI_Code_QSARr>
InChI=1S/C7H15I/c1-2-3-4-5-6-7-8/h2-7H2,1H3

> <InChI Key_QSARr>
LMHCYRULPLGEEZ-UHFFFAOYSA-N

> <Salt_Solvent>


> <Salt_Solvent_ID>
0

> <MPID>
102664

> <HL Reference>
ABRAHAM,MH ET AL. (1994)

> <HL Temperature>
25

> <LogHL>
-1.411168274405793

> <Tr_1_Tst_0>
1

$$$$
101300
  Mrv171c012241914302D          

 11 11  0  0  0  0            999 V2000
    2.6776   -1.1062    0.0000 O   0  0  0  0  0  0  0  0  0  0  0  0
    3.3920   -0.6937    0.0000 C   0  0  0  0  0  0  0  0  0  0  0  0
    4.1065   -1.1062    0.0000 C   0  0  0  0  0  0  0  0  0  0  0  0
    4.8210   -0.6937    0.0000 C   0  0  0  0  0  0  0  0  0  0  0  0
    4.8210    0.1313    0.0000 C   0  0  0  0  0  0  0  0  0  0  0  0
    4.1065    0.5438    0.0000 C   0  0  0  0  0  0  0  0  0  0  0  0
    4.1065    1.3688    0.0000 C   0  0  0  0  0  0  0  0  0  0  0  0
    3.3920    0.1313    0.0000 C   0  0  0  0  0  0  0  0  0  0  0  0
    2.6776    0.5438    0.0000 N   0  3  0  0  0  0  0  0  0  0  0  0
    1.9631    0.1313    0.0000 O   0  0  0  0  0  0  0  0  0  0  0  0
    2.6776    1.3688    0.0000 O   0  5  0  0  0  0  0  0  0  0  0  0
  1  2  1  0  0  0  0
  3  2  2  0  0  0  0
  4  3  1  0  0  0  0
  5  4  2  0  0  0  0
  6  5  1  0  0  0  0
  6  7  1  0  0  0  0
  8  6  2  0  0  0  0
  2  8  1  0  0  0  0
  8  9  1  0  0  0  0
  9 10  2  0  0  0  0
  9 11  1  0  0  0  0
M  CHG  2   9   1  11  -1
M  END
> <ChemID>
101300

> <CAS>
4920-77-8

> <Original_SMILES>
Cc1cccc(O)c1[N+]([O-])=O

> <preferred_name>
3-Methyl-2-nitrophenol

> <dsstox_substance_id>
DTXSID90197716

> <dsstox_compound_id>
DTXCID50120207

> <qc_level>
Public_Medium

> <Canonical_QSARr>
CC1C=CC=C(O)C=1[N+]([O-])=O

> <InChI_Code_QSARr>
InChI=1S/C7H7NO3/c1-5-3-2-4-6(9)7(5)8(10)11/h2-4,9H,1H3

> <InChI Key_QSARr>
QIORDSKCCHRSSD-UHFFFAOYSA-N

> <Salt_Solvent>


> <Salt_Solvent_ID>
0

> <MPID>
102665

> <HL Reference>
TREMP,J ET AL. (1993)

> <HL Temperature>
20

> <LogHL>
-5.5142785735184265

> <Tr_1_Tst_0>
1

$$$$
101313
  Mrv171c012241914302D          

  6  5  0  0  0  0            999 V2000
    2.2721   -1.2949    0.0000 C   0  0  0  0  0  0  0  0  0  0  0  0
    1.8596   -0.5805    0.0000 C   0  0  0  0  0  0  0  0  0  0  0  0
    2.2721    0.1340    0.0000 O   0  0  0  0  0  0  0  0  0  0  0  0
    1.0346   -0.5805    0.0000 C   0  0  0  0  0  0  0  0  0  0  0  0
    0.6221    0.1340    0.0000 C   0  0  0  0  0  0  0  0  0  0  0  0
   -0.2029    0.1340    0.0000 C   0  0  0  0  0  0  0  0  0  0  0  0
  1  2  1  0  0  0  0
  2  3  1  0  0  0  0
  2  4  1  0  0  0  0
  4  5  1  0  0  0  0
  5  6  1  0  0  0  0
M  END
> <ChemID>
101313

> <CAS>
6032-29-7

> <Original_SMILES>
CCCC(C)O

> <preferred_name>
Pentan-2-ol

> <dsstox_substance_id>
DTXSID3052721

> <dsstox_compound_id>
DTXCID1031333

> <qc_level>
DSSTox_Low

> <Canonical_QSARr>
CCCC(C)O

> <InChI_Code_QSARr>
InChI=1S/C5H12O/c1-3-4-5(2)6/h5-6H,3-4H2,1-2H3

> <InChI Key_QSARr>
JYVLIDXNZAXMDK-UHFFFAOYSA-N

> <Salt_Solvent>


> <Salt_Solvent_ID>
0

> <MPID>
102668

> <HL Reference>
BUTLER,JAV ET AL. (1935)

> <HL Temperature>
25

> <LogHL>
-4.82973828460504

> <Tr_1_Tst_0>
1

$$$$
101316
  Mrv171c012241914302D          

 10 10  0  0  0  0            999 V2000
    1.4289   -0.0000    0.0000 C   0  0  0  0  0  0  0  0  0  0  0  0
    2.1434   -0.4125    0.0000 C   0  0  0  0  0  0  0  0  0  0  0  0
    1.4289    0.8250    0.0000 C   0  0  0  0  0  0  0  0  0  0  0  0
    0.7145    1.2375    0.0000 C   0  0  0  0  0  0  0  0  0  0  0  0
    0.7145    2.0625    0.0000 Cl  0  0  0  0  0  0  0  0  0  0  0  0
   -0.0000    0.8250    0.0000 C   0  0  0  0  0  0  0  0  0  0  0  0
   -0.7145    1.2375    0.0000 Cl  0  0  0  0  0  0  0  0  0  0  0  0
   -0.0000    0.0000    0.0000 C   0  0  0  0  0  0  0  0  0  0  0  0
    0.7145   -0.4125    0.0000 C   0  0  0  0  0  0  0  0  0  0  0  0
    0.7145   -1.2375    0.0000 Cl  0  0  0  0  0  0  0  0  0  0  0  0
  1  2  1  0  0  0  0
  3  1  1  0  0  0  0
  4  3  2  0  0  0  0
  4  5  1  0  0  0  0
  6  4  1  0  0  0  0
  6  7  1  0  0  0  0
  8  6  2  0  0  0  0
  9  8  1  0  0  0  0
  1  9  2  0  0  0  0
  9 10  1  0  0  0  0
M  END
> <ChemID>
101316

> <CAS>
6639-30-1

> <Original_SMILES>
Cc1cc(Cl)c(Cl)cc1Cl

> <preferred_name>
2,4,5-Trichlorotoluene

> <dsstox_substance_id>
DTXSID8064434

> <dsstox_compound_id>
DTXCID1044801

> <qc_level>
Public_High

> <Canonical_QSARr>
CC1C=C(Cl)C(Cl)=CC=1Cl

> <InChI_Code_QSARr>
InChI=1S/C7H5Cl3/c1-4-2-6(9)7(10)3-5(4)8/h2-3H,1H3

> <InChI Key_QSARr>
ZCXHZKNWIYVQNC-UHFFFAOYSA-N

> <Salt_Solvent>


> <Salt_Solvent_ID>
0

> <MPID>
102669

> <HL Reference>
OLIVER,BG (1985)

> <HL Temperature>
20

> <LogHL>
-2.8239087409443173

> <Tr_1_Tst_0>
1

$$$$
101321
  Mrv171c012241914302D          

 15 16  0  0  0  0            999 V2000
    3.4818   -0.5312    0.0000 C   0  0  0  0  0  0  0  0  0  0  0  0
    4.1963   -0.9437    0.0000 Cl  0  0  0  0  0  0  0  0  0  0  0  0
    3.4818    0.2938    0.0000 C   0  0  0  0  0  0  0  0  0  0  0  0
    2.7673    0.7063    0.0000 C   0  0  0  0  0  0  0  0  0  0  0  0
    2.7673    1.5313    0.0000 Cl  0  0  0  0  0  0  0  0  0  0  0  0
    2.0528    0.2938    0.0000 C   0  0  0  0  0  0  0  0  0  0  0  0
    2.0528   -0.5312    0.0000 C   0  0  0  0  0  0  0  0  0  0  0  0
    2.7673   -0.9437    0.0000 C   0  0  0  0  0  0  0  0  0  0  0  0
    2.7673   -1.7687    0.0000 C   0  0  0  0  0  0  0  0  0  0  0  0
    2.0528   -2.1812    0.0000 C   0  0  0  0  0  0  0  0  0  0  0  0
    2.0528   -3.0062    0.0000 C   0  0  0  0  0  0  0  0  0  0  0  0
    2.7673   -3.4187    0.0000 C   0  0  0  0  0  0  0  0  0  0  0  0
    2.7673   -4.2437    0.0000 Cl  0  0  0  0  0  0  0  0  0  0  0  0
    3.4818   -3.0062    0.0000 C   0  0  0  0  0  0  0  0  0  0  0  0
    3.4818   -2.1812    0.0000 C   0  0  0  0  0  0  0  0  0  0  0  0
  1  2  1  0  0  0  0
  3  1  1  0  0  0  0
  4  3  2  0  0  0  0
  4  5  1  0  0  0  0
  6  4  1  0  0  0  0
  7  6  2  0  0  0  0
  8  7  1  0  0  0  0
  1  8  2  0  0  0  0
  8  9  1  0  0  0  0
 10  9  2  0  0  0  0
 11 10  1  0  0  0  0
 12 11  2  0  0  0  0
 12 13  1  0  0  0  0
 14 12  1  0  0  0  0
 15 14  2  0  0  0  0
  9 15  1  0  0  0  0
M  END
> <ChemID>
101321

> <CAS>
7012-37-5

> <Original_SMILES>
Clc1cc(Cl)ccc1-c1ccc(Cl)cc1

> <preferred_name>
2,4,4'-Trichlorobiphenyl

> <dsstox_substance_id>
DTXSID2038310

> <dsstox_compound_id>
DTXCID0018310

> <qc_level>
DSSTox_Low

> <Canonical_QSARr>
ClC1=CC(Cl)=C(C=C1)C1C=CC(Cl)=CC=1

> <InChI_Code_QSARr>
InChI=1S/C12H7Cl3/c13-9-3-1-8(2-4-9)11-6-5-10(14)7-12(11)15/h1-7H

> <InChI Key_QSARr>
BZTYNSQSZHARAZ-UHFFFAOYSA-N

> <Salt_Solvent>


> <Salt_Solvent_ID>
0

> <MPID>
102670

> <HL Reference>
BRUNNER,S ET AL. (1990)

> <HL Temperature>
25

> <LogHL>
-3.6989700043360196

> <Tr_1_Tst_0>
1

$$$$
101350
  Mrv171c012241914302D          

 19 21  0  0  0  0            999 V2000
    3.2202   -0.7465    0.0000 C   0  0  0  0  0  0  0  0  0  0  0  0
    3.2202    0.0785    0.0000 O   0  0  0  0  0  0  0  0  0  0  0  0
    2.3952   -0.7465    0.0000 C   0  0  0  0  0  0  0  0  0  0  0  0
    1.9827   -0.0320    0.0000 C   0  0  0  0  0  0  0  0  0  0  0  0
    1.1577   -0.0320    0.0000 C   0  0  0  0  0  0  0  0  0  0  0  0
    0.7452   -0.7465    0.0000 C   0  0  0  0  0  0  0  0  0  0  0  0
   -0.0798   -0.7465    0.0000 O   0  0  0  0  0  0  0  0  0  0  0  0
   -0.4923   -1.4609    0.0000 C   0  0  0  0  0  0  0  0  0  0  0  0
    1.1577   -1.4609    0.0000 C   0  0  0  0  0  0  0  0  0  0  0  0
    1.9827   -1.4609    0.0000 C   0  0  0  0  0  0  0  0  0  0  0  0
    4.0452   -0.7465    0.0000 C   0  0  0  0  0  0  0  0  0  0  0  0
    4.4577   -1.4609    0.0000 C   0  0  0  0  0  0  0  0  0  0  0  0
    5.2827   -1.4609    0.0000 N   0  0  0  0  0  0  0  0  0  0  0  0
    5.6952   -0.7465    0.0000 C   0  0  0  0  0  0  0  0  0  0  0  0
    5.2827   -0.0320    0.0000 N   0  0  0  0  0  0  0  0  0  0  0  0
    4.4577   -0.0320    0.0000 C   0  0  0  0  0  0  0  0  0  0  0  0
    3.2202   -1.5715    0.0000 C   0  0  0  0  0  0  0  0  0  0  0  0
    2.8077   -2.2859    0.0000 C   0  0  0  0  0  0  0  0  0  0  0  0
    3.6327   -2.2859    0.0000 C   0  0  0  0  0  0  0  0  0  0  0  0
  1  2  1  0  0  0  0
  1  3  1  0  0  0  0
  4  3  2  0  0  0  0
  5  4  1  0  0  0  0
  6  5  2  0  0  0  0
  6  7  1  0  0  0  0
  7  8  1  0  0  0  0
  9  6  1  0  0  0  0
 10  9  2  0  0  0  0
  3 10  1  0  0  0  0
  1 11  1  0  0  0  0
 12 11  1  0  0  0  0
 13 12  2  0  0  0  0
 14 13  1  0  0  0  0
 15 14  2  0  0  0  0
 16 15  1  0  0  0  0
 11 16  2  0  0  0  0
  1 17  1  0  0  0  0
 18 17  1  0  0  0  0
 19 18  1  0  0  0  0
 17 19  1  0  0  0  0
M  END
> <ChemID>
101350

> <CAS>
12771-68-5

> <Original_SMILES>
COc1ccc(cc1)C(O)(C1CC1)c1c[n]c[n]c1

> <preferred_name>
Ancymidol

> <dsstox_substance_id>
DTXSID2034338

> <dsstox_compound_id>
DTXCID0014338

> <qc_level>
DSSTox_Low

> <Canonical_QSARr>
COC1C=CC(=CC=1)C(O)(C1CC1)C1C=NC=NC=1

> <InChI_Code_QSARr>
InChI=1S/C15H16N2O2/c1-19-14-6-4-12(5-7-14)15(18,11-2-3-11)13-8-16-10-17-9-13/h4-11,18H,2-3H2,1H3

> <InChI Key_QSARr>
HUTDUHSNJYTCAR-UHFFFAOYSA-N

> <Salt_Solvent>


> <Salt_Solvent_ID>
0

> <MPID>
102673

> <HL Reference>
USDA PESTICIDE PROPERTIES DATABASE

> <HL Temperature>
25

> <LogHL>
-10.806875401645556

> <Tr_1_Tst_0>
1

$$$$
101351
  Mrv171c012241914302D          

 14 15  0  0  0  0            999 V2000
    2.1410   -1.6566    0.0000 C   0  0  0  0  0  0  0  0  0  0  0  0
    2.1410   -2.4816    0.0000 C   0  0  0  0  0  0  0  0  0  0  0  0
    2.8555   -2.8941    0.0000 C   0  0  0  0  0  0  0  0  0  0  0  0
    3.5700   -2.4816    0.0000 C   0  0  0  0  0  0  0  0  0  0  0  0
    3.5700   -1.6566    0.0000 C   0  0  0  0  0  0  0  0  0  0  0  0
    2.8555   -1.2441    0.0000 C   0  0  0  0  0  0  0  0  0  0  0  0
    2.8555   -0.4191    0.0000 Cl  0  0  0  0  0  0  0  0  0  0  0  0
    1.4265   -1.2441    0.0000 C   0  0  0  0  0  0  0  0  0  0  0  0
    1.4265   -0.4191    0.0000 C   0  0  0  0  0  0  0  0  0  0  0  0
    0.7121   -0.0066    0.0000 C   0  0  0  0  0  0  0  0  0  0  0  0
   -0.0024   -0.4191    0.0000 C   0  0  0  0  0  0  0  0  0  0  0  0
   -0.0024   -1.2441    0.0000 C   0  0  0  0  0  0  0  0  0  0  0  0
    0.7121   -1.6566    0.0000 C   0  0  0  0  0  0  0  0  0  0  0  0
    0.7121   -2.4816    0.0000 Cl  0  0  0  0  0  0  0  0  0  0  0  0
  2  1  1  0  0  0  0
  3  2  2  0  0  0  0
  4  3  1  0  0  0  0
  5  4  2  0  0  0  0
  6  5  1  0  0  0  0
  1  6  2  0  0  0  0
  6  7  1  0  0  0  0
  1  8  1  0  0  0  0
  9  8  1  0  0  0  0
 10  9  2  0  0  0  0
 11 10  1  0  0  0  0
 12 11  2  0  0  0  0
 13 12  1  0  0  0  0
  8 13  2  0  0  0  0
 13 14  1  0  0  0  0
M  END
> <ChemID>
101351

> <CAS>
13029-08-8

> <Original_SMILES>
Clc1ccccc1-c1ccccc1Cl

> <preferred_name>
2,2'-Dichlorobiphenyl

> <dsstox_substance_id>
DTXSID4044533

> <dsstox_compound_id>
DTXCID2024533

> <qc_level>
DSSTox_Low

> <Canonical_QSARr>
ClC1C=CC=CC=1C1C=CC=CC=1Cl

> <InChI_Code_QSARr>
InChI=1S/C12H8Cl2/c13-11-7-3-1-5-9(11)10-6-2-4-8-12(10)14/h1-8H

> <InChI Key_QSARr>
JAYCNKDKIKZTAF-UHFFFAOYSA-N

> <Salt_Solvent>


> <Salt_Solvent_ID>
0

> <MPID>
102674

> <HL Reference>
BRUNNER,S ET AL. (1990)

> <HL Temperature>
25

> <LogHL>
-3.638272163982408

> <Tr_1_Tst_0>
1

$$$$
101353
  Mrv171c012241914302D          

 11 11  0  0  0  0            999 V2000
    0.1299    0.1500    0.0000 N   0  3  0  0  0  0  0  0  0  0  0  0
   -0.5846    0.5625    0.0000 O   0  0  0  0  0  0  0  0  0  0  0  0
    0.1299   -0.6750    0.0000 O   0  5  0  0  0  0  0  0  0  0  0  0
    0.8444    0.5625    0.0000 C   0  0  0  0  0  0  0  0  0  0  0  0
    1.5588    0.1500    0.0000 C   0  0  0  0  0  0  0  0  0  0  0  0
    2.2733    0.5625    0.0000 C   0  0  0  0  0  0  0  0  0  0  0  0
    2.2733    1.3875    0.0000 C   0  0  0  0  0  0  0  0  0  0  0  0
    1.5588    1.8000    0.0000 C   0  0  0  0  0  0  0  0  0  0  0  0
    1.5588    2.6250    0.0000 C   0  0  0  0  0  0  0  0  0  0  0  0
    0.8444    1.3875    0.0000 C   0  0  0  0  0  0  0  0  0  0  0  0
    0.1299    1.8000    0.0000 O   0  0  0  0  0  0  0  0  0  0  0  0
  1  2  2  0  0  0  0
  1  3  1  0  0  0  0
  1  4  1  0  0  0  0
  5  4  1  0  0  0  0
  6  5  2  0  0  0  0
  7  6  1  0  0  0  0
  8  7  2  0  0  0  0
  8  9  1  0  0  0  0
 10  8  1  0  0  0  0
  4 10  2  0  0  0  0
 10 11  1  0  0  0  0
M  CHG  2   1   1   3  -1
M  END
> <ChemID>
101353

> <CAS>
13073-29-5

> <Original_SMILES>
Cc1cccc(c1O)[N+]([O-])=O

> <preferred_name>
6-Nitro-o-cresol

> <dsstox_substance_id>
DTXSID8074491

> <dsstox_compound_id>
DTXCID2033994

> <qc_level>
Public_High

> <Canonical_QSARr>
CC1=CC=CC(=C1O)[N+]([O-])=O

> <InChI_Code_QSARr>
InChI=1S/C7H7NO3/c1-5-3-2-4-6(7(5)9)8(10)11/h2-4,9H,1H3

> <InChI Key_QSARr>
AQDKZPFDOWHRDZ-UHFFFAOYSA-N

> <Salt_Solvent>


> <Salt_Solvent_ID>
0

> <MPID>
102675

> <HL Reference>
TREMP,J ET AL. (1993)

> <HL Temperature>
20

> <LogHL>
-4.473660722610149

> <Tr_1_Tst_0>
0

$$$$
101359
  Mrv171c012241914302D          

  8  8  0  0  0  0            999 V2000
    0.5358    1.2375    0.0000 C   0  0  0  0  0  0  0  0  0  0  0  0
    0.5358    2.0625    0.0000 C   0  0  0  0  0  0  0  0  0  0  0  0
    1.2503    2.4750    0.0000 C   0  0  0  0  0  0  0  0  0  0  0  0
   -0.1786    0.8250    0.0000 N   0  0  0  0  0  0  0  0  0  0  0  0
   -0.1786   -0.0000    0.0000 C   0  0  0  0  0  0  0  0  0  0  0  0
    0.5358   -0.4125    0.0000 C   0  0  0  0  0  0  0  0  0  0  0  0
    1.2503    0.0000    0.0000 N   0  0  0  0  0  0  0  0  0  0  0  0
    1.2503    0.8250    0.0000 C   0  0  0  0  0  0  0  0  0  0  0  0
  1  2  1  0  0  0  0
  2  3  1  0  0  0  0
  4  1  1  0  0  0  0
  5  4  2  0  0  0  0
  6  5  1  0  0  0  0
  7  6  2  0  0  0  0
  8  7  1  0  0  0  0
  1  8  2  0  0  0  0
M  END
> <ChemID>
101359

> <CAS>
13925-00-3

> <Original_SMILES>
CCc1c[n]cc[n]1

> <preferred_name>
Pyrazine, ethyl-

> <dsstox_substance_id>
DTXSID2065676

> <dsstox_compound_id>
DTXCID0034512

> <qc_level>
Public_High

> <Canonical_QSARr>
CCC1=CN=CC=N1

> <InChI_Code_QSARr>
InChI=1S/C6H8N2/c1-2-6-5-7-3-4-8-6/h3-5H,2H2,1H3

> <InChI Key_QSARr>
KVFIJIWMDBAGDP-UHFFFAOYSA-N

> <Salt_Solvent>


> <Salt_Solvent_ID>
0

> <MPID>
102676

> <HL Reference>
BUTTERY,RG ET AL. (1971)

> <HL Temperature>
25

> <LogHL>
-5.6108339156354505

> <Tr_1_Tst_0>
1

$$$$
101366
  Mrv171c012241914302D          

 15 16  0  0  0  0            999 V2000
    0.6668    2.0350    0.0000 C   0  0  0  0  0  0  0  0  0  0  0  0
    0.6668    2.8600    0.0000 C   0  0  0  0  0  0  0  0  0  0  0  0
   -0.0476    3.2725    0.0000 C   0  0  0  0  0  0  0  0  0  0  0  0
   -0.0476    4.0975    0.0000 Cl  0  0  0  0  0  0  0  0  0  0  0  0
   -0.7621    2.8600    0.0000 C   0  0  0  0  0  0  0  0  0  0  0  0
   -1.4766    3.2725    0.0000 Cl  0  0  0  0  0  0  0  0  0  0  0  0
   -0.7621    2.0350    0.0000 C   0  0  0  0  0  0  0  0  0  0  0  0
   -0.0476    1.6225    0.0000 C   0  0  0  0  0  0  0  0  0  0  0  0
   -0.0476    0.7975    0.0000 Cl  0  0  0  0  0  0  0  0  0  0  0  0
    1.3813    1.6225    0.0000 C   0  0  0  0  0  0  0  0  0  0  0  0
    1.3813    0.7975    0.0000 C   0  0  0  0  0  0  0  0  0  0  0  0
    2.0958    0.3850    0.0000 C   0  0  0  0  0  0  0  0  0  0  0  0
    2.8102    0.7975    0.0000 C   0  0  0  0  0  0  0  0  0  0  0  0
    2.8102    1.6225    0.0000 C   0  0  0  0  0  0  0  0  0  0  0  0
    2.0958    2.0350    0.0000 C   0  0  0  0  0  0  0  0  0  0  0  0
  2  1  1  0  0  0  0
  3  2  2  0  0  0  0
  3  4  1  0  0  0  0
  5  3  1  0  0  0  0
  5  6  1  0  0  0  0
  7  5  2  0  0  0  0
  8  7  1  0  0  0  0
  1  8  2  0  0  0  0
  8  9  1  0  0  0  0
  1 10  1  0  0  0  0
 11 10  1  0  0  0  0
 12 11  2  0  0  0  0
 13 12  1  0  0  0  0
 14 13  2  0  0  0  0
 15 14  1  0  0  0  0
 10 15  2  0  0  0  0
M  END
> <ChemID>
101366

> <CAS>
15862-07-4

> <Original_SMILES>
Clc1cc(-c2ccccc2)c(Cl)cc1Cl

> <preferred_name>
2,4,5-Trichlorobiphenyl

> <dsstox_substance_id>
DTXSID0073405

> <dsstox_compound_id>
DTXCID6035100

> <qc_level>
Public_High

> <Canonical_QSARr>
ClC1C=C(Cl)C(Cl)=CC=1C1C=CC=CC=1

> <InChI_Code_QSARr>
InChI=1S/C12H7Cl3/c13-10-7-12(15)11(14)6-9(10)8-4-2-1-3-5-8/h1-7H

> <InChI Key_QSARr>
VGVIKVCCUATMNG-UHFFFAOYSA-N

> <Salt_Solvent>


> <Salt_Solvent_ID>
0

> <MPID>
102677

> <HL Reference>
BRUNNER,S ET AL. (1990)

> <HL Temperature>
25

> <LogHL>
-3.6989700043360196

> <Tr_1_Tst_0>
0

$$$$
101367
  Mrv171c012241914302D          

 16 17  0  0  0  0            999 V2000
    0.3572    1.4438    0.0000 C   0  0  0  0  0  0  0  0  0  0  0  0
   -0.3572    1.8563    0.0000 C   0  0  0  0  0  0  0  0  0  0  0  0
   -0.3572    2.6813    0.0000 Cl  0  0  0  0  0  0  0  0  0  0  0  0
   -1.0717    1.4438    0.0000 C   0  0  0  0  0  0  0  0  0  0  0  0
   -1.0717    0.6188    0.0000 C   0  0  0  0  0  0  0  0  0  0  0  0
   -0.3572    0.2063    0.0000 C   0  0  0  0  0  0  0  0  0  0  0  0
    0.3572    0.6188    0.0000 C   0  0  0  0  0  0  0  0  0  0  0  0
    1.0717    0.2063    0.0000 Cl  0  0  0  0  0  0  0  0  0  0  0  0
    1.0717    1.8563    0.0000 C   0  0  0  0  0  0  0  0  0  0  0  0
    1.7862    1.4438    0.0000 C   0  0  0  0  0  0  0  0  0  0  0  0
    1.7862    0.6188    0.0000 Cl  0  0  0  0  0  0  0  0  0  0  0  0
    2.5006    1.8563    0.0000 C   0  0  0  0  0  0  0  0  0  0  0  0
    2.5006    2.6813    0.0000 C   0  0  0  0  0  0  0  0  0  0  0  0
    1.7862    3.0938    0.0000 C   0  0  0  0  0  0  0  0  0  0  0  0
    1.0717    2.6813    0.0000 C   0  0  0  0  0  0  0  0  0  0  0  0
    0.3572    3.0938    0.0000 Cl  0  0  0  0  0  0  0  0  0  0  0  0
  2  1  1  0  0  0  0
  2  3  1  0  0  0  0
  4  2  2  0  0  0  0
  5  4  1  0  0  0  0
  6  5  2  0  0  0  0
  7  6  1  0  0  0  0
  1  7  2  0  0  0  0
  7  8  1  0  0  0  0
  1  9  1  0  0  0  0
 10  9  1  0  0  0  0
 10 11  1  0  0  0  0
 12 10  2  0  0  0  0
 13 12  1  0  0  0  0
 14 13  2  0  0  0  0
 15 14  1  0  0  0  0
  9 15  2  0  0  0  0
 15 16  1  0  0  0  0
M  END
> <ChemID>
101367

> <CAS>
15968-05-5

> <Original_SMILES>
Clc1cccc(Cl)c1-c1c(Cl)cccc1Cl

> <preferred_name>
2,2',6,6'-Tetrachlorobiphenyl

> <dsstox_substance_id>
DTXSID0065983

> <dsstox_compound_id>
DTXCID2035142

> <qc_level>
Public_High

> <Canonical_QSARr>
ClC1C=CC=C(Cl)C=1C1C(Cl)=CC=CC=1Cl

> <InChI_Code_QSARr>
InChI=1S/C12H6Cl4/c13-7-3-1-4-8(14)11(7)12-9(15)5-2-6-10(12)16/h1-6H

> <InChI Key_QSARr>
PXAGFNRKXSYIHU-UHFFFAOYSA-N

> <Salt_Solvent>


> <Salt_Solvent_ID>
0

> <MPID>
102678

> <HL Reference>
BRUNNER,S ET AL. (1990)

> <HL Temperature>
25

> <LogHL>
-3.6989700043360196

> <Tr_1_Tst_0>
1

$$$$
101368
  Mrv171c012241914302D          

 18 18  0  0  0  0            999 V2000
    1.7856   -1.1886    0.0000 C   0  0  0  0  0  0  0  0  0  0  0  0
    2.1981   -1.9031    0.0000 C   0  0  0  0  0  0  0  0  0  0  0  0
    1.7856   -2.6176    0.0000 N   0  0  0  0  0  0  0  0  0  0  0  0
    0.9606   -2.6176    0.0000 C   0  0  0  0  0  0  0  0  0  0  0  0
    0.5481   -3.3320    0.0000 C   0  0  0  0  0  0  0  0  0  0  0  0
   -0.2769   -3.3320    0.0000 Cl  0  0  0  0  0  0  0  0  0  0  0  0
    0.5481   -1.9031    0.0000 O   0  0  0  0  0  0  0  0  0  0  0  0
    2.1981   -3.3320    0.0000 C   0  0  0  0  0  0  0  0  0  0  0  0
    3.0231   -3.3320    0.0000 O   0  0  0  0  0  0  0  0  0  0  0  0
    3.4356   -4.0465    0.0000 C   0  0  0  0  0  0  0  0  0  0  0  0
    3.0231   -1.9031    0.0000 C   0  0  0  0  0  0  0  0  0  0  0  0
    3.4356   -2.6176    0.0000 C   0  0  0  0  0  0  0  0  0  0  0  0
    4.2606   -2.6176    0.0000 C   0  0  0  0  0  0  0  0  0  0  0  0
    3.4356   -1.1886    0.0000 C   0  0  0  0  0  0  0  0  0  0  0  0
    3.0231   -0.4742    0.0000 C   0  0  0  0  0  0  0  0  0  0  0  0
    2.1981   -0.4742    0.0000 C   0  0  0  0  0  0  0  0  0  0  0  0
    0.9606   -1.1886    0.0000 C   0  0  0  0  0  0  0  0  0  0  0  0
    0.5481   -0.4742    0.0000 C   0  0  0  0  0  0  0  0  0  0  0  0
  2  1  1  0  0  0  0
  2  3  1  0  0  0  0
  3  4  1  0  0  0  0
  4  5  1  0  0  0  0
  5  6  1  0  0  0  0
  4  7  2  0  0  0  0
  3  8  1  0  0  0  0
  8  9  1  0  0  0  0
  9 10  1  0  0  0  0
 11  2  2  0  0  0  0
 11 12  1  0  0  0  0
 12 13  1  0  0  0  0
 14 11  1  0  0  0  0
 15 14  2  0  0  0  0
 16 15  1  0  0  0  0
  1 16  2  0  0  0  0
  1 17  1  0  0  0  0
 17 18  1  0  0  0  0
M  END
> <ChemID>
101368

> <CAS>
15972-60-8

> <Original_SMILES>
COCN(C(=O)CCl)c1c(CC)cccc1CC

> <preferred_name>
Alachlor

> <dsstox_substance_id>
DTXSID1022265

> <dsstox_compound_id>
DTXCID402265

> <qc_level>
DSSTox_Low

> <Canonical_QSARr>
COCN(C(=O)CCl)C1C(CC)=CC=CC=1CC

> <InChI_Code_QSARr>
InChI=1S/C14H20ClNO2/c1-4-11-7-6-8-12(5-2)14(11)16(10-18-3)13(17)9-15/h6-8H,4-5,9-10H2,1-3H3

> <InChI Key_QSARr>
XCSGPAVHZFQHGE-UHFFFAOYSA-N

> <Salt_Solvent>


> <Salt_Solvent_ID>
0

> <MPID>
102679

> <HL Reference>
FENDINGER,NJ & GLOTFELTY,DE (1988)

> <HL Temperature>
23

> <LogHL>
-8.079876673709277

> <Tr_1_Tst_0>
1

$$$$
101369
  Mrv171c012241914302D          

  7  6  0  0  0  0            999 V2000
   -0.3009   -1.3553    0.0000 C   0  0  0  0  0  0  0  0  0  0  0  0
   -1.0153   -1.7678    0.0000 O   0  0  0  0  0  0  0  0  0  0  0  0
    0.4136   -1.7678    0.0000 C   0  0  0  0  0  0  0  0  0  0  0  0
    1.1281   -1.3553    0.0000 O   0  0  0  0  0  0  0  0  0  0  0  0
    1.8425   -1.7678    0.0000 N   0  3  0  0  0  0  0  0  0  0  0  0
    2.5570   -1.3553    0.0000 O   0  0  0  0  0  0  0  0  0  0  0  0
    1.8425   -2.5928    0.0000 O   0  5  0  0  0  0  0  0  0  0  0  0
  1  2  1  0  0  0  0
  1  3  1  0  0  0  0
  3  4  1  0  0  0  0
  4  5  1  0  0  0  0
  5  6  2  0  0  0  0
  5  7  1  0  0  0  0
M  CHG  2   5   1   7  -1
M  END
> <ChemID>
101369

> <CAS>
16051-48-2

> <Original_SMILES>
[O-][N+](=O)OCCO

> <preferred_name>


> <dsstox_substance_id>
DTXSID70864656

> <dsstox_compound_id>
DTXCID10813148

> <qc_level>


> <Canonical_QSARr>
[O-][N+](=O)OCCO

> <InChI_Code_QSARr>
InChI=1S/C2H5NO4/c4-1-2-7-3(5)6/h4H,1-2H2

> <InChI Key_QSARr>
HTKIMWYSDZQQBP-UHFFFAOYSA-N

> <Salt_Solvent>


> <Salt_Solvent_ID>
0

> <MPID>
102680

> <HL Reference>
SHEPSON,PB ET AL. (1996)

> <HL Temperature>
25

> <LogHL>
-7.588380294036753

> <Tr_1_Tst_0>
1

$$$$
101371
  Mrv171c012241914302D          

 14 15  0  0  0  0            999 V2000
    0.8165    1.7679    0.0000 C   0  0  0  0  0  0  0  0  0  0  0  0
    1.5310    1.3554    0.0000 C   0  0  0  0  0  0  0  0  0  0  0  0
    2.2455    1.7679    0.0000 C   0  0  0  0  0  0  0  0  0  0  0  0
    2.2455    2.5929    0.0000 C   0  0  0  0  0  0  0  0  0  0  0  0
    1.5310    3.0054    0.0000 C   0  0  0  0  0  0  0  0  0  0  0  0
    1.5310    3.8304    0.0000 Cl  0  0  0  0  0  0  0  0  0  0  0  0
    0.8165    2.5929    0.0000 C   0  0  0  0  0  0  0  0  0  0  0  0
    0.1021    3.0054    0.0000 Cl  0  0  0  0  0  0  0  0  0  0  0  0
    0.1021    1.3554    0.0000 C   0  0  0  0  0  0  0  0  0  0  0  0
   -0.6124    1.7679    0.0000 C   0  0  0  0  0  0  0  0  0  0  0  0
   -1.3269    1.3554    0.0000 C   0  0  0  0  0  0  0  0  0  0  0  0
   -1.3269    0.5304    0.0000 C   0  0  0  0  0  0  0  0  0  0  0  0
   -0.6124    0.1179    0.0000 C   0  0  0  0  0  0  0  0  0  0  0  0
    0.1021    0.5304    0.0000 C   0  0  0  0  0  0  0  0  0  0  0  0
  2  1  1  0  0  0  0
  3  2  2  0  0  0  0
  4  3  1  0  0  0  0
  5  4  2  0  0  0  0
  5  6  1  0  0  0  0
  7  5  1  0  0  0  0
  1  7  2  0  0  0  0
  7  8  1  0  0  0  0
  1  9  1  0  0  0  0
 10  9  1  0  0  0  0
 11 10  2  0  0  0  0
 12 11  1  0  0  0  0
 13 12  2  0  0  0  0
 14 13  1  0  0  0  0
  9 14  2  0  0  0  0
M  END
> <ChemID>
101371

> <CAS>
16605-91-7

> <Original_SMILES>
Clc1cccc(-c2ccccc2)c1Cl

> <preferred_name>
2,3-Dichlorobiphenyl

> <dsstox_substance_id>
DTXSID0073409

> <dsstox_compound_id>
DTXCID4035332

> <qc_level>
Public_High

> <Canonical_QSARr>
ClC1=CC=CC(C2C=CC=CC=2)=C1Cl

> <InChI_Code_QSARr>
InChI=1S/C12H8Cl2/c13-11-8-4-7-10(12(11)14)9-5-2-1-3-6-9/h1-8H

> <InChI Key_QSARr>
XOMKZKJEJBZBJJ-UHFFFAOYSA-N

> <Salt_Solvent>


> <Salt_Solvent_ID>
0

> <MPID>
102681

> <HL Reference>
BRUNNER,S ET AL. (1990)

> <HL Temperature>
25

> <LogHL>
-3.638272163982408

> <Tr_1_Tst_0>
0

$$$$
101372
  Mrv171c012241914302D          

 15 16  0  0  0  0            999 V2000
    0.3334    1.8425    0.0000 C   0  0  0  0  0  0  0  0  0  0  0  0
    0.3334    2.6675    0.0000 C   0  0  0  0  0  0  0  0  0  0  0  0
   -0.3811    3.0800    0.0000 C   0  0  0  0  0  0  0  0  0  0  0  0
   -0.3811    3.9050    0.0000 Cl  0  0  0  0  0  0  0  0  0  0  0  0
   -1.0955    2.6675    0.0000 C   0  0  0  0  0  0  0  0  0  0  0  0
   -1.0955    1.8425    0.0000 C   0  0  0  0  0  0  0  0  0  0  0  0
   -0.3811    1.4300    0.0000 C   0  0  0  0  0  0  0  0  0  0  0  0
   -0.3811    0.6050    0.0000 Cl  0  0  0  0  0  0  0  0  0  0  0  0
    1.0479    1.4300    0.0000 C   0  0  0  0  0  0  0  0  0  0  0  0
    1.0479    0.6050    0.0000 C   0  0  0  0  0  0  0  0  0  0  0  0
    1.7624    0.1925    0.0000 C   0  0  0  0  0  0  0  0  0  0  0  0
    2.4768    0.6050    0.0000 C   0  0  0  0  0  0  0  0  0  0  0  0
    3.1913    0.1925    0.0000 Cl  0  0  0  0  0  0  0  0  0  0  0  0
    2.4768    1.4300    0.0000 C   0  0  0  0  0  0  0  0  0  0  0  0
    1.7624    1.8425    0.0000 C   0  0  0  0  0  0  0  0  0  0  0  0
  2  1  1  0  0  0  0
  3  2  2  0  0  0  0
  3  4  1  0  0  0  0
  5  3  1  0  0  0  0
  6  5  2  0  0  0  0
  7  6  1  0  0  0  0
  1  7  2  0  0  0  0
  7  8  1  0  0  0  0
  1  9  1  0  0  0  0
 10  9  1  0  0  0  0
 11 10  2  0  0  0  0
 12 11  1  0  0  0  0
 12 13  1  0  0  0  0
 14 12  2  0  0  0  0
 15 14  1  0  0  0  0
  9 15  2  0  0  0  0
M  END
> <ChemID>
101372

> <CAS>
16606-02-3

> <Original_SMILES>
Clc1ccc(Cl)cc1-c1ccc(Cl)cc1

> <preferred_name>
2,4',5-Trichlorobiphenyl

> <dsstox_substance_id>
DTXSID9073410

> <dsstox_compound_id>
DTXCID9035333

> <qc_level>
Public_High

> <Canonical_QSARr>
ClC1=CC(C2C=CC(Cl)=CC=2)=C(Cl)C=C1

> <InChI_Code_QSARr>
InChI=1S/C12H7Cl3/c13-9-3-1-8(2-4-9)11-7-10(14)5-6-12(11)15/h1-7H

> <InChI Key_QSARr>
VAHKBZSAUKPEOV-UHFFFAOYSA-N

> <Salt_Solvent>


> <Salt_Solvent_ID>
0

> <MPID>
102682

> <HL Reference>
BRUNNER,S ET AL. (1990)

> <HL Temperature>
25

> <LogHL>
-3.7212463990471716

> <Tr_1_Tst_0>
1

$$$$
101376
  Mrv171c012241914302D          

 21 22  0  0  0  0            999 V2000
    1.9838   -2.1684    0.0000 C   0  0  0  0  0  0  0  0  0  0  0  0
    1.8123   -2.9753    0.0000 N   0  0  0  0  0  0  0  0  0  0  0  0
    1.0276   -3.2303    0.0000 C   0  0  0  0  0  0  0  0  0  0  0  0
    0.8561   -4.0373    0.0000 O   0  0  0  0  0  0  0  0  0  0  0  0
    0.0715   -4.2922    0.0000 C   0  0  0  0  0  0  0  0  0  0  0  0
    0.4145   -2.6782    0.0000 O   0  0  0  0  0  0  0  0  0  0  0  0
    1.4318   -1.5553    0.0000 N   0  0  0  0  0  0  0  0  0  0  0  0
    1.8443   -0.8408    0.0000 C   0  0  0  0  0  0  0  0  0  0  0  0
    1.5893   -0.0562    0.0000 C   0  0  0  0  0  0  0  0  0  0  0  0
    2.1414    0.5569    0.0000 C   0  0  0  0  0  0  0  0  0  0  0  0
    2.9483    0.3854    0.0000 C   0  0  0  0  0  0  0  0  0  0  0  0
    3.2033   -0.3992    0.0000 C   0  0  0  0  0  0  0  0  0  0  0  0
    2.6512   -1.0123    0.0000 C   0  0  0  0  0  0  0  0  0  0  0  0
    2.7375   -1.8328    0.0000 N   0  0  0  0  0  0  0  0  0  0  0  0
    3.4519   -2.2453    0.0000 C   0  0  0  0  0  0  0  0  0  0  0  0
    4.1664   -1.8328    0.0000 N   0  0  0  0  0  0  0  0  0  0  0  0
    4.8809   -2.2453    0.0000 C   0  0  0  0  0  0  0  0  0  0  0  0
    5.5953   -1.8328    0.0000 C   0  0  0  0  0  0  0  0  0  0  0  0
    6.3098   -2.2453    0.0000 C   0  0  0  0  0  0  0  0  0  0  0  0
    7.0243   -1.8328    0.0000 C   0  0  0  0  0  0  0  0  0  0  0  0
    3.4519   -3.0703    0.0000 O   0  0  0  0  0  0  0  0  0  0  0  0
  1  2  1  0  0  0  0
  2  3  1  0  0  0  0
  3  4  1  0  0  0  0
  4  5  1  0  0  0  0
  3  6  2  0  0  0  0
  7  1  2  0  0  0  0
  8  7  1  0  0  0  0
  8  9  1  0  0  0  0
  9 10  2  0  0  0  0
 10 11  1  0  0  0  0
 11 12  2  0  0  0  0
 12 13  1  0  0  0  0
 13  8  2  0  0  0  0
 14 13  1  0  0  0  0
  1 14  1  0  0  0  0
 14 15  1  0  0  0  0
 15 16  1  0  0  0  0
 16 17  1  0  0  0  0
 17 18  1  0  0  0  0
 18 19  1  0  0  0  0
 19 20  1  0  0  0  0
 15 21  2  0  0  0  0
M  END
> <ChemID>
101376

> <CAS>
17804-35-2

> <Original_SMILES>
CCCCNC(=O)[n]1c(NC(=O)OC)[n]c2ccccc12

> <preferred_name>
Benomyl

> <dsstox_substance_id>
DTXSID5023900

> <dsstox_compound_id>
DTXCID103900

> <qc_level>
DSSTox_Low

> <Canonical_QSARr>
CCCCNC(=O)N1C(NC(=O)OC)=NC2C=CC=CC1=2

> <InChI_Code_QSARr>
InChI=1S/C14H18N4O3/c1-3-4-9-15-13(19)18-11-8-6-5-7-10(11)16-12(18)17-14(20)21-2/h5-8H,3-4,9H2,1-2H3,(H,15,19)(H,16,17,20)

> <InChI Key_QSARr>
RIOXQFHNBCKOKP-UHFFFAOYSA-N

> <Salt_Solvent>


> <Salt_Solvent_ID>
0

> <MPID>
102683

> <HL Reference>
USDA PESTICIDE PROPERTIES DATABASE

> <HL Temperature>
25

> <LogHL>
-11.307153080722792

> <Tr_1_Tst_0>
1

$$$$
101384
  Mrv171c012241914302D          

  8  7  0  0  0  0            999 V2000
    1.7940   -1.4524    0.0000 C   0  0  0  0  0  0  0  0  0  0  0  0
    1.0796   -1.8649    0.0000 O   0  0  0  0  0  0  0  0  0  0  0  0
    0.3651   -1.4524    0.0000 N   0  3  0  0  0  0  0  0  0  0  0  0
   -0.3494   -1.8649    0.0000 O   0  0  0  0  0  0  0  0  0  0  0  0
    0.3651   -0.6274    0.0000 O   0  5  0  0  0  0  0  0  0  0  0  0
    2.5085   -1.8649    0.0000 C   0  0  0  0  0  0  0  0  0  0  0  0
    3.2230   -1.4524    0.0000 O   0  0  0  0  0  0  0  0  0  0  0  0
    2.5085   -2.6899    0.0000 C   0  0  0  0  0  0  0  0  0  0  0  0
  1  2  1  0  0  0  0
  2  3  1  0  0  0  0
  3  4  2  0  0  0  0
  3  5  1  0  0  0  0
  1  6  1  0  0  0  0
  6  7  1  0  0  0  0
  6  8  1  0  0  0  0
M  CHG  2   3   1   5  -1
M  END
> <ChemID>
101384

> <CAS>
20266-65-3

> <Original_SMILES>
CC(O)CO[N+]([O-])=O

> <preferred_name>


> <dsstox_substance_id>
DTXSID10873560

> <dsstox_compound_id>
DTXCID301011786

> <qc_level>


> <Canonical_QSARr>
CC(O)CO[N+]([O-])=O

> <InChI_Code_QSARr>
InChI=1S/C3H7NO4/c1-3(5)2-8-4(6)7/h3,5H,2H2,1H3

> <InChI Key_QSARr>
OMDFJTSKBNDDRM-UHFFFAOYSA-N

> <Salt_Solvent>


> <Salt_Solvent_ID>
0

> <MPID>
102684

> <HL Reference>
SHEPSON,PB ET AL. (1996)

> <HL Temperature>
25

> <LogHL>
-7.037630664329981

> <Tr_1_Tst_0>
0

$$$$
101385
  Mrv171c012241914302D          

  8  7  0  0  0  0            999 V2000
   -0.1731   -1.1343    0.0000 C   0  0  0  0  0  0  0  0  0  0  0  0
   -0.8876   -1.5468    0.0000 O   0  0  0  0  0  0  0  0  0  0  0  0
    0.5414   -1.5468    0.0000 C   0  0  0  0  0  0  0  0  0  0  0  0
    1.2558   -1.1343    0.0000 O   0  0  0  0  0  0  0  0  0  0  0  0
    1.9703   -1.5468    0.0000 N   0  3  0  0  0  0  0  0  0  0  0  0
    2.6848   -1.1343    0.0000 O   0  0  0  0  0  0  0  0  0  0  0  0
    1.9703   -2.3718    0.0000 O   0  5  0  0  0  0  0  0  0  0  0  0
    0.5414   -2.3718    0.0000 C   0  0  0  0  0  0  0  0  0  0  0  0
  1  2  1  0  0  0  0
  1  3  1  0  0  0  0
  3  4  1  0  0  0  0
  4  5  1  0  0  0  0
  5  6  2  0  0  0  0
  5  7  1  0  0  0  0
  3  8  1  0  0  0  0
M  CHG  2   5   1   7  -1
M  END
> <ChemID>
101385

> <CAS>
20266-74-4

> <Original_SMILES>
CC(CO)O[N+]([O-])=O

> <preferred_name>


> <dsstox_substance_id>
DTXSID70873561

> <dsstox_compound_id>
DTXCID001011787

> <qc_level>


> <Canonical_QSARr>
CC(CO)O[N+]([O-])=O

> <InChI_Code_QSARr>
InChI=1S/C3H7NO4/c1-3(2-5)8-4(6)7/h3,5H,2H2,1H3

> <InChI Key_QSARr>
HGCMMKIIGJXXMW-UHFFFAOYSA-N

> <Salt_Solvent>


> <Salt_Solvent_ID>
0

> <MPID>
102685

> <HL Reference>
SHEPSON,PB ET AL. (1996)

> <HL Temperature>
25

> <LogHL>
-6.653647025549347

> <Tr_1_Tst_0>
1

$$$$
101387
  Mrv171c012241914302D          

 10  9  0  0  0  0            999 V2000
    5.5700    2.1434    0.0000 C   0  0  0  0  0  0  0  0  0  0  0  0
    4.8556    2.5559    0.0000 O   0  0  0  0  0  0  0  0  0  0  0  0
    4.1411    2.1434    0.0000 N   0  3  0  0  0  0  0  0  0  0  0  0
    3.4266    2.5559    0.0000 O   0  5  0  0  0  0  0  0  0  0  0  0
    4.1411    1.3184    0.0000 O   0  0  0  0  0  0  0  0  0  0  0  0
    6.2845    2.5559    0.0000 C   0  0  0  0  0  0  0  0  0  0  0  0
    6.9990    2.1434    0.0000 C   0  0  0  0  0  0  0  0  0  0  0  0
    7.7134    2.5559    0.0000 C   0  0  0  0  0  0  0  0  0  0  0  0
    8.4279    2.1434    0.0000 C   0  0  0  0  0  0  0  0  0  0  0  0
    9.1424    2.5559    0.0000 C   0  0  0  0  0  0  0  0  0  0  0  0
  1  2  1  0  0  0  0
  2  3  1  0  0  0  0
  3  4  1  0  0  0  0
  3  5  2  0  0  0  0
  1  6  1  0  0  0  0
  6  7  1  0  0  0  0
  7  8  1  0  0  0  0
  8  9  1  0  0  0  0
  9 10  1  0  0  0  0
M  CHG  2   3   1   4  -1
M  END
> <ChemID>
101387

> <CAS>
20633-11-8

> <Original_SMILES>
CCCCCCO[N+]([O-])=O

> <preferred_name>
Nitric acid, hexyl ester

> <dsstox_substance_id>
DTXSID8066636

> <dsstox_compound_id>
DTXCID4036358

> <qc_level>
Public_High

> <Canonical_QSARr>
CCCCCCO[N+]([O-])=O

> <InChI_Code_QSARr>
InChI=1S/C6H13NO3/c1-2-3-4-5-6-10-7(8)9/h2-6H2,1H3

> <InChI Key_QSARr>
AGDYNDJUZRMYRG-UHFFFAOYSA-N

> <Salt_Solvent>


> <Salt_Solvent_ID>
0

> <MPID>
102686

> <HL Reference>
HAUFF,K ET AL. (1998)

> <HL Temperature>
25

> <LogHL>
-2.826813731587726

> <Tr_1_Tst_0>
1

$$$$
101401
  Mrv171c012241914302D          

 21 21  0  0  0  0            999 V2000
    2.3318   -1.7625    0.0000 N   0  0  0  0  0  0  0  0  0  0  0  0
    1.5217   -1.6066    0.0000 C   0  0  0  0  0  0  0  0  0  0  0  0
    0.9816   -2.2303    0.0000 O   0  0  0  0  0  0  0  0  0  0  0  0
    0.1715   -2.0744    0.0000 C   0  0  0  0  0  0  0  0  0  0  0  0
   -0.3686   -2.6980    0.0000 C   0  0  0  0  0  0  0  0  0  0  0  0
   -1.1788   -2.5421    0.0000 C   0  0  0  0  0  0  0  0  0  0  0  0
   -1.7189   -3.1657    0.0000 C   0  0  0  0  0  0  0  0  0  0  0  0
    2.6019   -2.5421    0.0000 C   0  0  0  0  0  0  0  0  0  0  0  0
    3.4120   -2.6980    0.0000 C   0  0  0  0  0  0  0  0  0  0  0  0
    3.6820   -3.4776    0.0000 Cl  0  0  0  0  0  0  0  0  0  0  0  0
    2.0618   -3.1657    0.0000 O   0  0  0  0  0  0  0  0  0  0  0  0
    2.8719   -1.1389    0.0000 C   0  0  0  0  0  0  0  0  0  0  0  0
    3.6820   -1.2948    0.0000 C   0  0  0  0  0  0  0  0  0  0  0  0
    3.9521   -2.0744    0.0000 C   0  0  0  0  0  0  0  0  0  0  0  0
    4.7622   -2.2303    0.0000 C   0  0  0  0  0  0  0  0  0  0  0  0
    4.2221   -0.6712    0.0000 C   0  0  0  0  0  0  0  0  0  0  0  0
    3.9521    0.1084    0.0000 C   0  0  0  0  0  0  0  0  0  0  0  0
    3.1419    0.2643    0.0000 C   0  0  0  0  0  0  0  0  0  0  0  0
    2.6019   -0.3593    0.0000 C   0  0  0  0  0  0  0  0  0  0  0  0
    1.7917   -0.2034    0.0000 C   0  0  0  0  0  0  0  0  0  0  0  0
    1.2516   -0.8271    0.0000 C   0  0  0  0  0  0  0  0  0  0  0  0
  1  2  1  0  0  0  0
  2  3  1  0  0  0  0
  3  4  1  0  0  0  0
  4  5  1  0  0  0  0
  5  6  1  0  0  0  0
  6  7  1  0  0  0  0
  1  8  1  0  0  0  0
  8  9  1  0  0  0  0
  9 10  1  0  0  0  0
  8 11  2  0  0  0  0
  1 12  1  0  0  0  0
 13 12  2  0  0  0  0
 13 14  1  0  0  0  0
 14 15  1  0  0  0  0
 16 13  1  0  0  0  0
 17 16  2  0  0  0  0
 18 17  1  0  0  0  0
 19 18  2  0  0  0  0
 12 19  1  0  0  0  0
 19 20  1  0  0  0  0
 20 21  1  0  0  0  0
M  END
> <ChemID>
101401

> <CAS>
23184-66-9

> <Original_SMILES>
CCCCOCN(C(=O)CCl)c1c(CC)cccc1CC

> <preferred_name>
Butachlor

> <dsstox_substance_id>
DTXSID3034402

> <dsstox_compound_id>
DTXCID1014402

> <qc_level>
DSSTox_Low

> <Canonical_QSARr>
CCCCOCN(C(=O)CCl)C1C(CC)=CC=CC=1CC

> <InChI_Code_QSARr>
InChI=1S/C17H26ClNO2/c1-4-7-11-21-13-19(16(20)12-18)17-14(5-2)9-8-10-15(17)6-3/h8-10H,4-7,11-13H2,1-3H3

> <InChI Key_QSARr>
HKPHPIREJKHECO-UHFFFAOYSA-N

> <Salt_Solvent>


> <Salt_Solvent_ID>
0

> <MPID>
102688

> <HL Reference>
WATANABE,T (1993)

> <HL Temperature>
25

> <LogHL>
-7.292429823902069

> <Tr_1_Tst_0>
1

$$$$
101409
  Mrv171c012241914302D          

 13 12  0  0  0  0            999 V2000
    4.2968   -0.8543    0.0000 C   0  0  0  0  0  0  0  0  0  0  0  0
    3.5823   -1.2668    0.0000 N   0  0  0  0  0  0  0  0  0  0  0  0
    2.8679   -0.8543    0.0000 C   0  0  0  0  0  0  0  0  0  0  0  0
    2.1534   -1.2668    0.0000 C   0  0  0  0  0  0  0  0  0  0  0  0
    1.4389   -0.8543    0.0000 C   0  0  0  0  0  0  0  0  0  0  0  0
    0.7245   -1.2668    0.0000 N   0  0  0  0  0  0  0  0  0  0  0  0
    0.0100   -0.8543    0.0000 C   0  0  0  0  0  0  0  0  0  0  0  0
    0.7245   -2.0918    0.0000 C   0  0  0  0  0  0  0  0  0  0  0  0
    5.0113   -1.2668    0.0000 O   0  0  0  0  0  0  0  0  0  0  0  0
    5.7258   -0.8543    0.0000 C   0  0  0  0  0  0  0  0  0  0  0  0
    6.4402   -1.2668    0.0000 C   0  0  0  0  0  0  0  0  0  0  0  0
    7.1547   -0.8543    0.0000 C   0  0  0  0  0  0  0  0  0  0  0  0
    4.2968   -0.0293    0.0000 O   0  0  0  0  0  0  0  0  0  0  0  0
  1  2  1  0  0  0  0
  2  3  1  0  0  0  0
  3  4  1  0  0  0  0
  4  5  1  0  0  0  0
  5  6  1  0  0  0  0
  6  7  1  0  0  0  0
  6  8  1  0  0  0  0
  1  9  1  0  0  0  0
  9 10  1  0  0  0  0
 10 11  1  0  0  0  0
 11 12  1  0  0  0  0
  1 13  2  0  0  0  0
M  END
> <ChemID>
101409

> <CAS>
24579-73-5

> <Original_SMILES>
CCCOC(=O)NCCCN(C)C

> <preferred_name>
Propamocarb

> <dsstox_substance_id>
DTXSID1040295

> <dsstox_compound_id>
DTXCID9020295

> <qc_level>
DSSTox_Low

> <Canonical_QSARr>
CCCOC(=O)NCCCN(C)C

> <InChI_Code_QSARr>
InChI=1S/C9H20N2O2/c1-4-8-13-9(12)10-6-5-7-11(2)3/h4-8H2,1-3H3,(H,10,12)

> <InChI Key_QSARr>
WZZLDXDUQPOXNW-UHFFFAOYSA-N

> <Salt_Solvent>


> <Salt_Solvent_ID>
0

> <MPID>
102689

> <HL Reference>
TOMLIN,C (1997)

> <HL Temperature>
25

> <LogHL>
-8.829738284605048

> <Tr_1_Tst_0>
1

$$$$
101410
  Mrv171c012241914302D          

 12 12  0  0  0  0            999 V2000
    1.7262   -0.9281    0.0000 C   0  0  0  0  0  0  0  0  0  0  0  0
    1.0117   -0.5156    0.0000 C   0  0  0  0  0  0  0  0  0  0  0  0
    0.2973   -0.9281    0.0000 C   0  0  0  0  0  0  0  0  0  0  0  0
    0.2973   -1.7531    0.0000 C   0  0  0  0  0  0  0  0  0  0  0  0
   -0.4172   -0.5156    0.0000 C   0  0  0  0  0  0  0  0  0  0  0  0
    1.7262   -1.7531    0.0000 N   0  0  0  0  0  0  0  0  0  0  0  0
    2.4407   -2.1656    0.0000 C   0  0  0  0  0  0  0  0  0  0  0  0
    3.1551   -1.7531    0.0000 C   0  0  0  0  0  0  0  0  0  0  0  0
    3.1551   -0.9281    0.0000 N   0  0  0  0  0  0  0  0  0  0  0  0
    2.4407   -0.5156    0.0000 C   0  0  0  0  0  0  0  0  0  0  0  0
    2.4407    0.3094    0.0000 O   0  0  0  0  0  0  0  0  0  0  0  0
    1.7262    0.7219    0.0000 C   0  0  0  0  0  0  0  0  0  0  0  0
  1  2  1  0  0  0  0
  2  3  1  0  0  0  0
  3  4  1  0  0  0  0
  3  5  1  0  0  0  0
  6  1  2  0  0  0  0
  7  6  1  0  0  0  0
  8  7  2  0  0  0  0
  9  8  1  0  0  0  0
 10  9  2  0  0  0  0
  1 10  1  0  0  0  0
 10 11  1  0  0  0  0
 11 12  1  0  0  0  0
M  END
> <ChemID>
101410

> <CAS>
24683-00-9

> <Original_SMILES>
COc1[n]cc[n]c1CC(C)C

> <preferred_name>
2-Isobutyl-3-methoxypyrazine

> <dsstox_substance_id>
DTXSID9051907

> <dsstox_compound_id>
DTXCID4030469

> <qc_level>
DSSTox_Low

> <Canonical_QSARr>
COC1=NC=CN=C1CC(C)C

> <InChI_Code_QSARr>
InChI=1S/C9H14N2O/c1-7(2)6-8-9(12-3)11-5-4-10-8/h4-5,7H,6H2,1-3H3

> <InChI Key_QSARr>
UXFSPRAGHGMRSQ-UHFFFAOYSA-N

> <Salt_Solvent>


> <Salt_Solvent_ID>
0

> <MPID>
102690

> <HL Reference>
BUTTERY,RG ET AL. (1971)

> <HL Temperature>
25

> <LogHL>
-4.31069114087638

> <Tr_1_Tst_0>
0

$$$$
101422
  Mrv171c012241914302D          

 14 15  0  0  0  0            999 V2000
    0.9696    1.9152    0.0000 C   0  0  0  0  0  0  0  0  0  0  0  0
    1.6841    1.5027    0.0000 C   0  0  0  0  0  0  0  0  0  0  0  0
    2.3986    1.9152    0.0000 C   0  0  0  0  0  0  0  0  0  0  0  0
    2.3986    2.7402    0.0000 C   0  0  0  0  0  0  0  0  0  0  0  0
    1.6841    3.1527    0.0000 C   0  0  0  0  0  0  0  0  0  0  0  0
    1.6841    3.9777    0.0000 Cl  0  0  0  0  0  0  0  0  0  0  0  0
    0.9696    2.7402    0.0000 C   0  0  0  0  0  0  0  0  0  0  0  0
    0.2552    1.5027    0.0000 C   0  0  0  0  0  0  0  0  0  0  0  0
   -0.4593    1.9152    0.0000 C   0  0  0  0  0  0  0  0  0  0  0  0
   -1.1738    1.5027    0.0000 C   0  0  0  0  0  0  0  0  0  0  0  0
   -1.1738    0.6777    0.0000 C   0  0  0  0  0  0  0  0  0  0  0  0
   -0.4593    0.2652    0.0000 C   0  0  0  0  0  0  0  0  0  0  0  0
    0.2552    0.6777    0.0000 C   0  0  0  0  0  0  0  0  0  0  0  0
    0.9696    0.2652    0.0000 Cl  0  0  0  0  0  0  0  0  0  0  0  0
  2  1  1  0  0  0  0
  3  2  2  0  0  0  0
  4  3  1  0  0  0  0
  5  4  2  0  0  0  0
  5  6  1  0  0  0  0
  7  5  1  0  0  0  0
  1  7  2  0  0  0  0
  1  8  1  0  0  0  0
  9  8  1  0  0  0  0
 10  9  2  0  0  0  0
 11 10  1  0  0  0  0
 12 11  2  0  0  0  0
 13 12  1  0  0  0  0
  8 13  2  0  0  0  0
 13 14  1  0  0  0  0
M  END
> <ChemID>
101422

> <CAS>
25569-80-6

> <Original_SMILES>
Clc1cc(ccc1)-c1ccccc1Cl

> <preferred_name>
2,3'-Dichlorobiphenyl

> <dsstox_substance_id>
DTXSID3074024

> <dsstox_compound_id>
DTXCID8037332

> <qc_level>
Public_High

> <Canonical_QSARr>
ClC1C=CC=CC=1C1=CC(Cl)=CC=C1

> <InChI_Code_QSARr>
InChI=1S/C12H8Cl2/c13-10-5-3-4-9(8-10)11-6-1-2-7-12(11)14/h1-8H

> <InChI Key_QSARr>
ZHBBDTRJIVXKEX-UHFFFAOYSA-N

> <Salt_Solvent>


> <Salt_Solvent_ID>
0

> <MPID>
102691

> <HL Reference>
BRUNNER,S ET AL. (1990)

> <HL Temperature>
25

> <LogHL>
-3.602059991327963

> <Tr_1_Tst_0>
1

$$$$
101424
  Mrv171c012241914302D          

 10 10  0  0  0  0            999 V2000
    0.6430    0.7012    0.0000 C   0  0  0  0  0  0  0  0  0  0  0  0
   -0.0715    1.1137    0.0000 C   0  0  0  0  0  0  0  0  0  0  0  0
   -0.0715    1.9387    0.0000 C   0  0  0  0  0  0  0  0  0  0  0  0
    0.6430   -0.1238    0.0000 N   0  0  0  0  0  0  0  0  0  0  0  0
    1.3575   -0.5363    0.0000 C   0  0  0  0  0  0  0  0  0  0  0  0
    2.0720   -0.1238    0.0000 C   0  0  0  0  0  0  0  0  0  0  0  0
    2.0720    0.7012    0.0000 N   0  0  0  0  0  0  0  0  0  0  0  0
    1.3575    1.1137    0.0000 C   0  0  0  0  0  0  0  0  0  0  0  0
    1.3575    1.9387    0.0000 O   0  0  0  0  0  0  0  0  0  0  0  0
    0.6430    2.3512    0.0000 C   0  0  0  0  0  0  0  0  0  0  0  0
  1  2  1  0  0  0  0
  2  3  1  0  0  0  0
  4  1  1  0  0  0  0
  5  4  2  0  0  0  0
  6  5  1  0  0  0  0
  7  6  2  0  0  0  0
  8  7  1  0  0  0  0
  1  8  2  0  0  0  0
  8  9  1  0  0  0  0
  9 10  1  0  0  0  0
M  END
> <ChemID>
101424

> <CAS>
25680-58-4

> <Original_SMILES>
CCc1[n]cc[n]c1OC

> <preferred_name>
Pyrazine, 2-ethyl-3-methoxy-

> <dsstox_substance_id>
DTXSID1067124

> <dsstox_compound_id>
DTXCID0037360

> <qc_level>
Public_High

> <Canonical_QSARr>
CCC1N=CC=NC=1OC

> <InChI_Code_QSARr>
InChI=1S/C7H10N2O/c1-3-6-7(10-2)9-5-4-8-6/h4-5H,3H2,1-2H3

> <InChI Key_QSARr>
DPCILIMHENXHQX-UHFFFAOYSA-N

> <Salt_Solvent>


> <Salt_Solvent_ID>
0

> <MPID>
102692

> <HL Reference>
BUTTERY,RG ET AL. (1971)

> <HL Temperature>
25

> <LogHL>
-4.832682665251831

> <Tr_1_Tst_0>
0

$$$$
101455
  Mrv171c012241914302D          

 18 20  0  0  0  0            999 V2000
    2.8579   -0.0000    0.0000 C   0  0  0  0  0  0  0  0  0  0  0  0
    3.5724   -0.4125    0.0000 C   0  0  0  0  0  0  0  0  0  0  0  0
    3.5724   -1.2375    0.0000 Cl  0  0  0  0  0  0  0  0  0  0  0  0
    4.2868    0.0000    0.0000 C   0  0  0  0  0  0  0  0  0  0  0  0
    5.0013   -0.4125    0.0000 Cl  0  0  0  0  0  0  0  0  0  0  0  0
    4.2868    0.8250    0.0000 C   0  0  0  0  0  0  0  0  0  0  0  0
    5.0013    1.2375    0.0000 Cl  0  0  0  0  0  0  0  0  0  0  0  0
    3.5724    1.2375    0.0000 C   0  0  0  0  0  0  0  0  0  0  0  0
    3.5724    2.0625    0.0000 Cl  0  0  0  0  0  0  0  0  0  0  0  0
    2.8579    0.8250    0.0000 C   0  0  0  0  0  0  0  0  0  0  0  0
    2.1434    1.2375    0.0000 O   0  0  0  0  0  0  0  0  0  0  0  0
    1.4289    0.8250    0.0000 C   0  0  0  0  0  0  0  0  0  0  0  0
    1.4289    0.0000    0.0000 C   0  0  0  0  0  0  0  0  0  0  0  0
    0.7145   -0.4125    0.0000 C   0  0  0  0  0  0  0  0  0  0  0  0
    0.0000   -0.0000    0.0000 C   0  0  0  0  0  0  0  0  0  0  0  0
    0.0000    0.8250    0.0000 C   0  0  0  0  0  0  0  0  0  0  0  0
    0.7145    1.2375    0.0000 C   0  0  0  0  0  0  0  0  0  0  0  0
    2.1434   -0.4125    0.0000 O   0  0  0  0  0  0  0  0  0  0  0  0
  2  1  1  0  0  0  0
  2  3  1  0  0  0  0
  4  2  2  0  0  0  0
  4  5  1  0  0  0  0
  6  4  1  0  0  0  0
  6  7  1  0  0  0  0
  8  6  2  0  0  0  0
  8  9  1  0  0  0  0
 10  8  1  0  0  0  0
 10  1  2  0  0  0  0
 11 10  1  0  0  0  0
 12 11  1  0  0  0  0
 12 13  1  0  0  0  0
 13 14  2  0  0  0  0
 14 15  1  0  0  0  0
 15 16  2  0  0  0  0
 16 17  1  0  0  0  0
 17 12  2  0  0  0  0
 18 13  1  0  0  0  0
  1 18  1  0  0  0  0
M  END
> <ChemID>
101455

> <CAS>
30746-58-8

> <Original_SMILES>
Clc1c2Oc3ccccc3Oc2c(Cl)c(Cl)c1Cl

> <preferred_name>
1,2,3,4-Tetrachlorodibenzo-p-dioxin

> <dsstox_substance_id>
DTXSID7074030

> <dsstox_compound_id>
DTXCID5038252

> <qc_level>
Public_High

> <Canonical_QSARr>
ClC1C2OC3=CC=CC=C3OC=2C(Cl)=C(Cl)C=1Cl

> <InChI_Code_QSARr>
InChI=1S/C12H4Cl4O2/c13-7-8(14)10(16)12-11(9(7)15)17-5-3-1-2-4-6(5)18-12/h1-4H

> <InChI Key_QSARr>
DJHHDLMTUOLVHY-UHFFFAOYSA-N

> <Salt_Solvent>


> <Salt_Solvent_ID>
0

> <MPID>
102694

> <HL Reference>
SANTL,H ET AL. (1994)

> <HL Temperature>
25

> <LogHL>
-4.698970004336025

> <Tr_1_Tst_0>
1

$$$$
101459
  Mrv171c012241914302D          

 16 17  0  0  0  0            999 V2000
    0.7145    2.0626    0.0000 C   0  0  0  0  0  0  0  0  0  0  0  0
    1.4290    2.4751    0.0000 C   0  0  0  0  0  0  0  0  0  0  0  0
    1.4290    3.3001    0.0000 C   0  0  0  0  0  0  0  0  0  0  0  0
    0.7145    3.7126    0.0000 C   0  0  0  0  0  0  0  0  0  0  0  0
    0.7145    4.5376    0.0000 Cl  0  0  0  0  0  0  0  0  0  0  0  0
    0.0000    3.3001    0.0000 C   0  0  0  0  0  0  0  0  0  0  0  0
   -0.7144    3.7126    0.0000 Cl  0  0  0  0  0  0  0  0  0  0  0  0
    0.0000    2.4751    0.0000 C   0  0  0  0  0  0  0  0  0  0  0  0
    0.7145    1.2376    0.0000 C   0  0  0  0  0  0  0  0  0  0  0  0
    0.0000    0.8251    0.0000 C   0  0  0  0  0  0  0  0  0  0  0  0
    0.0000    0.0001    0.0000 C   0  0  0  0  0  0  0  0  0  0  0  0
    0.7145   -0.4124    0.0000 C   0  0  0  0  0  0  0  0  0  0  0  0
    0.7145   -1.2374    0.0000 Cl  0  0  0  0  0  0  0  0  0  0  0  0
    1.4290    0.0001    0.0000 C   0  0  0  0  0  0  0  0  0  0  0  0
    1.4290    0.8251    0.0000 C   0  0  0  0  0  0  0  0  0  0  0  0
    2.1434    1.2376    0.0000 Cl  0  0  0  0  0  0  0  0  0  0  0  0
  2  1  1  0  0  0  0
  3  2  2  0  0  0  0
  4  3  1  0  0  0  0
  4  5  1  0  0  0  0
  6  4  2  0  0  0  0
  6  7  1  0  0  0  0
  8  6  1  0  0  0  0
  1  8  2  0  0  0  0
  1  9  1  0  0  0  0
 10  9  1  0  0  0  0
 11 10  2  0  0  0  0
 12 11  1  0  0  0  0
 12 13  1  0  0  0  0
 14 12  2  0  0  0  0
 15 14  1  0  0  0  0
  9 15  2  0  0  0  0
 15 16  1  0  0  0  0
M  END
> <ChemID>
101459

> <CAS>
32598-10-0

> <Original_SMILES>
Clc1cc(Cl)c(cc1)-c1cc(Cl)c(Cl)cc1

> <preferred_name>
2,3',4,4'-Tetrachlorobiphenyl

> <dsstox_substance_id>
DTXSID3073472

> <dsstox_compound_id>
DTXCID1038537

> <qc_level>
Public_High

> <Canonical_QSARr>
ClC1=CC(Cl)=C(C=C1)C1=CC(Cl)=C(Cl)C=C1

> <InChI_Code_QSARr>
InChI=1S/C12H6Cl4/c13-8-2-3-9(11(15)6-8)7-1-4-10(14)12(16)5-7/h1-6H

> <InChI Key_QSARr>
RKLLTEAEZIJBAU-UHFFFAOYSA-N

> <Salt_Solvent>


> <Salt_Solvent_ID>
0

> <MPID>
102695

> <HL Reference>
BRUNNER,S ET AL. (1990)

> <HL Temperature>
25

> <LogHL>
-3.920818753952376

> <Tr_1_Tst_0>
0

$$$$
101460
  Mrv171c012241914302D          

 16 17  0  0  0  0            999 V2000
    2.1949   -1.1224    0.0000 C   0  0  0  0  0  0  0  0  0  0  0  0
    2.1949   -0.2974    0.0000 C   0  0  0  0  0  0  0  0  0  0  0  0
    1.4804    0.1151    0.0000 C   0  0  0  0  0  0  0  0  0  0  0  0
    1.4804    0.9401    0.0000 Cl  0  0  0  0  0  0  0  0  0  0  0  0
    0.7659   -0.2974    0.0000 C   0  0  0  0  0  0  0  0  0  0  0  0
    0.7659   -1.1224    0.0000 C   0  0  0  0  0  0  0  0  0  0  0  0
    1.4804   -1.5349    0.0000 C   0  0  0  0  0  0  0  0  0  0  0  0
    1.4804   -2.3599    0.0000 Cl  0  0  0  0  0  0  0  0  0  0  0  0
    2.9093   -1.5349    0.0000 C   0  0  0  0  0  0  0  0  0  0  0  0
    2.9093   -2.3599    0.0000 C   0  0  0  0  0  0  0  0  0  0  0  0
    3.6238   -2.7724    0.0000 C   0  0  0  0  0  0  0  0  0  0  0  0
    4.3383   -2.3599    0.0000 C   0  0  0  0  0  0  0  0  0  0  0  0
    5.0528   -2.7724    0.0000 Cl  0  0  0  0  0  0  0  0  0  0  0  0
    4.3383   -1.5349    0.0000 C   0  0  0  0  0  0  0  0  0  0  0  0
    5.0528   -1.1224    0.0000 Cl  0  0  0  0  0  0  0  0  0  0  0  0
    3.6238   -1.1224    0.0000 C   0  0  0  0  0  0  0  0  0  0  0  0
  2  1  1  0  0  0  0
  3  2  2  0  0  0  0
  3  4  1  0  0  0  0
  5  3  1  0  0  0  0
  6  5  2  0  0  0  0
  7  6  1  0  0  0  0
  1  7  2  0  0  0  0
  7  8  1  0  0  0  0
  1  9  1  0  0  0  0
 10  9  1  0  0  0  0
 11 10  2  0  0  0  0
 12 11  1  0  0  0  0
 12 13  1  0  0  0  0
 14 12  2  0  0  0  0
 14 15  1  0  0  0  0
 16 14  1  0  0  0  0
  9 16  2  0  0  0  0
M  END
> <ChemID>
101460

> <CAS>
32598-11-1

> <Original_SMILES>
Clc1cc(-c2cc(Cl)c(Cl)cc2)c(Cl)cc1

> <preferred_name>
2,3',4',5-Tetrachlorobiphenyl

> <dsstox_substance_id>
DTXSID3038309

> <dsstox_compound_id>
DTXCID1018309

> <qc_level>
DSSTox_Low

> <Canonical_QSARr>
ClC1=CC(C2=CC(Cl)=C(Cl)C=C2)=C(Cl)C=C1

> <InChI_Code_QSARr>
InChI=1S/C12H6Cl4/c13-8-2-4-10(14)9(6-8)7-1-3-11(15)12(16)5-7/h1-6H

> <InChI Key_QSARr>
KENZYIHFBRWMOD-UHFFFAOYSA-N

> <Salt_Solvent>


> <Salt_Solvent_ID>
0

> <MPID>
102696

> <HL Reference>
BRUNNER,S ET AL. (1990)

> <HL Temperature>
25

> <LogHL>
-3.9999999999999987

> <Tr_1_Tst_0>
1

$$$$
101461
  Mrv171c012241914302D          

 16 17  0  0  0  0            999 V2000
    2.8868   -1.0175    0.0000 C   0  0  0  0  0  0  0  0  0  0  0  0
    3.6012   -0.6050    0.0000 C   0  0  0  0  0  0  0  0  0  0  0  0
    3.6012    0.2200    0.0000 C   0  0  0  0  0  0  0  0  0  0  0  0
    2.8868    0.6325    0.0000 C   0  0  0  0  0  0  0  0  0  0  0  0
    2.8868    1.4575    0.0000 Cl  0  0  0  0  0  0  0  0  0  0  0  0
    2.1723    0.2200    0.0000 C   0  0  0  0  0  0  0  0  0  0  0  0
    1.4578    0.6325    0.0000 Cl  0  0  0  0  0  0  0  0  0  0  0  0
    2.1723   -0.6050    0.0000 C   0  0  0  0  0  0  0  0  0  0  0  0
    2.8868   -1.8425    0.0000 C   0  0  0  0  0  0  0  0  0  0  0  0
    2.1723   -2.2550    0.0000 C   0  0  0  0  0  0  0  0  0  0  0  0
    2.1723   -3.0800    0.0000 C   0  0  0  0  0  0  0  0  0  0  0  0
    2.8868   -3.4925    0.0000 C   0  0  0  0  0  0  0  0  0  0  0  0
    2.8868   -4.3175    0.0000 Cl  0  0  0  0  0  0  0  0  0  0  0  0
    3.6012   -3.0800    0.0000 C   0  0  0  0  0  0  0  0  0  0  0  0
    4.3157   -3.4925    0.0000 Cl  0  0  0  0  0  0  0  0  0  0  0  0
    3.6012   -2.2550    0.0000 C   0  0  0  0  0  0  0  0  0  0  0  0
  2  1  1  0  0  0  0
  3  2  2  0  0  0  0
  4  3  1  0  0  0  0
  4  5  1  0  0  0  0
  6  4  2  0  0  0  0
  6  7  1  0  0  0  0
  8  6  1  0  0  0  0
  1  8  2  0  0  0  0
  1  9  1  0  0  0  0
 10  9  1  0  0  0  0
 11 10  2  0  0  0  0
 12 11  1  0  0  0  0
 12 13  1  0  0  0  0
 14 12  2  0  0  0  0
 14 15  1  0  0  0  0
 16 14  1  0  0  0  0
  9 16  2  0  0  0  0
M  END
> <ChemID>
101461

> <CAS>
32598-13-3

> <Original_SMILES>
Clc1ccc(cc1Cl)-c1cc(Cl)c(Cl)cc1

> <preferred_name>
3,3',4,4'-Tetrachlorobinphenyl

> <dsstox_substance_id>
DTXSID5022514

> <dsstox_compound_id>
DTXCID102514

> <qc_level>
DSSTox_Low

> <Canonical_QSARr>
ClC1C=CC(=CC=1Cl)C1=CC(Cl)=C(Cl)C=C1

> <InChI_Code_QSARr>
InChI=1S/C12H6Cl4/c13-9-3-1-7(5-11(9)15)8-2-4-10(14)12(16)6-8/h1-6H

> <InChI Key_QSARr>
UQMGJOKDKOLIDP-UHFFFAOYSA-N

> <Salt_Solvent>


> <Salt_Solvent_ID>
0

> <MPID>
102697

> <HL Reference>
DUNNIVANT,FM ET AL. (1988)

> <HL Temperature>
25

> <LogHL>
-5.026872146400294

> <Tr_1_Tst_0>
1

$$$$
101463
  Mrv171c012241914302D          

 16 17  0  0  0  0            999 V2000
    0.4912    1.9337    0.0000 C   0  0  0  0  0  0  0  0  0  0  0  0
    0.4912    2.7587    0.0000 C   0  0  0  0  0  0  0  0  0  0  0  0
   -0.2232    3.1712    0.0000 C   0  0  0  0  0  0  0  0  0  0  0  0
   -0.2232    3.9962    0.0000 Cl  0  0  0  0  0  0  0  0  0  0  0  0
   -0.9377    2.7587    0.0000 C   0  0  0  0  0  0  0  0  0  0  0  0
   -1.6522    3.1712    0.0000 Cl  0  0  0  0  0  0  0  0  0  0  0  0
   -0.9377    1.9337    0.0000 C   0  0  0  0  0  0  0  0  0  0  0  0
   -0.2232    1.5212    0.0000 C   0  0  0  0  0  0  0  0  0  0  0  0
   -0.2232    0.6962    0.0000 Cl  0  0  0  0  0  0  0  0  0  0  0  0
    1.2057    1.5212    0.0000 C   0  0  0  0  0  0  0  0  0  0  0  0
    1.2057    0.6962    0.0000 C   0  0  0  0  0  0  0  0  0  0  0  0
    1.9202    0.2837    0.0000 C   0  0  0  0  0  0  0  0  0  0  0  0
    2.6346    0.6962    0.0000 C   0  0  0  0  0  0  0  0  0  0  0  0
    3.3491    0.2837    0.0000 Cl  0  0  0  0  0  0  0  0  0  0  0  0
    2.6346    1.5212    0.0000 C   0  0  0  0  0  0  0  0  0  0  0  0
    1.9202    1.9337    0.0000 C   0  0  0  0  0  0  0  0  0  0  0  0
  2  1  1  0  0  0  0
  3  2  2  0  0  0  0
  3  4  1  0  0  0  0
  5  3  1  0  0  0  0
  5  6  1  0  0  0  0
  7  5  2  0  0  0  0
  8  7  1  0  0  0  0
  1  8  2  0  0  0  0
  8  9  1  0  0  0  0
  1 10  1  0  0  0  0
 11 10  1  0  0  0  0
 12 11  2  0  0  0  0
 13 12  1  0  0  0  0
 13 14  1  0  0  0  0
 15 13  2  0  0  0  0
 16 15  1  0  0  0  0
 10 16  2  0  0  0  0
M  END
> <ChemID>
101463

> <CAS>
32690-93-0

> <Original_SMILES>
Clc1ccc(cc1)-c1cc(Cl)c(Cl)cc1Cl

> <preferred_name>
2,4,4',5-Tetrachlorobiphenyl

> <dsstox_substance_id>
DTXSID8073473

> <dsstox_compound_id>
DTXCID4038556

> <qc_level>
Public_High

> <Canonical_QSARr>
ClC1C=C(Cl)C(Cl)=CC=1C1C=CC(Cl)=CC=1

> <InChI_Code_QSARr>
InChI=1S/C12H6Cl4/c13-8-3-1-7(2-4-8)9-5-11(15)12(16)6-10(9)14/h1-6H

> <InChI Key_QSARr>
TULCXSBAPHCWCF-UHFFFAOYSA-N

> <Salt_Solvent>


> <Salt_Solvent_ID>
0

> <MPID>
102698

> <HL Reference>
BRUNNER,S ET AL. (1990)

> <HL Temperature>
25

> <LogHL>
-3.9999999999999987

> <Tr_1_Tst_0>
0

$$$$
101465
  Mrv171c012241914302D          

 22 23  0  0  0  0            999 V2000
    2.8579    0.0000    0.0000 C   0  0  0  0  0  0  0  0  0  0  0  0
    3.5724   -0.4125    0.0000 N   0  0  0  0  0  0  0  0  0  0  0  0
    3.5724   -1.2375    0.0000 C   0  0  0  0  0  0  0  0  0  0  0  0
    4.2868   -1.6500    0.0000 N   0  0  0  0  0  0  0  0  0  0  0  0
    4.2868   -2.4750    0.0000 C   0  0  0  0  0  0  0  0  0  0  0  0
    5.0013   -2.8875    0.0000 C   0  0  0  0  0  0  0  0  0  0  0  0
    5.0013   -3.7125    0.0000 C   0  0  0  0  0  0  0  0  0  0  0  0
    4.2868   -4.1250    0.0000 C   0  0  0  0  0  0  0  0  0  0  0  0
    4.2868   -4.9500    0.0000 C   0  0  0  0  0  0  0  0  0  0  0  0
    3.5724   -3.7125    0.0000 C   0  0  0  0  0  0  0  0  0  0  0  0
    3.5724   -2.8875    0.0000 C   0  0  0  0  0  0  0  0  0  0  0  0
    2.8579   -2.4750    0.0000 C   0  0  0  0  0  0  0  0  0  0  0  0
    4.2868    0.0000    0.0000 C   0  0  0  0  0  0  0  0  0  0  0  0
    4.2868    0.8250    0.0000 N   0  0  0  0  0  0  0  0  0  0  0  0
    5.0013    1.2375    0.0000 C   0  0  0  0  0  0  0  0  0  0  0  0
    5.0013    2.0625    0.0000 C   0  0  0  0  0  0  0  0  0  0  0  0
    5.7158    2.4750    0.0000 C   0  0  0  0  0  0  0  0  0  0  0  0
    6.4302    2.0625    0.0000 C   0  0  0  0  0  0  0  0  0  0  0  0
    7.1447    2.4750    0.0000 C   0  0  0  0  0  0  0  0  0  0  0  0
    6.4302    1.2375    0.0000 C   0  0  0  0  0  0  0  0  0  0  0  0
    5.7158    0.8250    0.0000 C   0  0  0  0  0  0  0  0  0  0  0  0
    5.7158    0.0000    0.0000 C   0  0  0  0  0  0  0  0  0  0  0  0
  1  2  1  0  0  0  0
  3  2  1  4  0  0  0
  3  4  2  0  0  0  0
  4  5  1  0  0  0  0
  5  6  1  0  0  0  0
  6  7  2  0  0  0  0
  7  8  1  0  0  0  0
  8  9  1  0  0  0  0
  8 10  2  0  0  0  0
 10 11  1  0  0  0  0
  5 11  2  0  0  0  0
 11 12  1  0  0  0  0
 13  2  1  4  0  0  0
 13 14  2  0  0  0  0
 14 15  1  0  0  0  0
 15 16  1  0  0  0  0
 16 17  2  0  0  0  0
 17 18  1  0  0  0  0
 18 19  1  0  0  0  0
 18 20  2  0  0  0  0
 20 21  1  0  0  0  0
 15 21  2  0  0  0  0
 21 22  1  0  0  0  0
M  END
> <ChemID>
101465

> <CAS>
33089-61-1

> <Original_SMILES>
CN(/C=N/c1ccc(C)cc1C)/C=N/c1ccc(C)cc1C

> <preferred_name>
Amitraz

> <dsstox_substance_id>
DTXSID5023871

> <dsstox_compound_id>
DTXCID403871

> <qc_level>
DSSTox_Low

> <Canonical_QSARr>
CN(C=NC1C=CC(C)=CC=1C)C=NC1C=CC(C)=CC=1C

> <InChI_Code_QSARr>
InChI=1S/C19H23N3/c1-14-6-8-18(16(3)10-14)20-12-22(5)13-21-19-9-7-15(2)11-17(19)4/h6-13H,1-5H3

> <InChI Key_QSARr>
QXAITBQSYVNQDR-UHFFFAOYSA-N

> <Salt_Solvent>


> <Salt_Solvent_ID>
0

> <MPID>
102699

> <HL Reference>
TOMLIN,C (1997)

> <HL Temperature>
25

> <LogHL>
-5.00568284733037

> <Tr_1_Tst_0>
1

$$$$
101466
  Mrv171c012241914302D          

 14 15  0  0  0  0            999 V2000
    2.0061   -1.0750    0.0000 C   0  0  0  0  0  0  0  0  0  0  0  0
    2.0061   -1.9000    0.0000 C   0  0  0  0  0  0  0  0  0  0  0  0
    1.2916   -2.3125    0.0000 C   0  0  0  0  0  0  0  0  0  0  0  0
    1.2916   -3.1375    0.0000 C   0  0  0  0  0  0  0  0  0  0  0  0
    2.0061   -3.5500    0.0000 C   0  0  0  0  0  0  0  0  0  0  0  0
    2.7206   -3.1375    0.0000 C   0  0  0  0  0  0  0  0  0  0  0  0
    2.7206   -2.3125    0.0000 C   0  0  0  0  0  0  0  0  0  0  0  0
    2.7206   -0.6625    0.0000 C   0  0  0  0  0  0  0  0  0  0  0  0
    3.4351   -1.0750    0.0000 Cl  0  0  0  0  0  0  0  0  0  0  0  0
    2.7206    0.1625    0.0000 C   0  0  0  0  0  0  0  0  0  0  0  0
    2.0061    0.5750    0.0000 C   0  0  0  0  0  0  0  0  0  0  0  0
    1.2916    0.1625    0.0000 C   0  0  0  0  0  0  0  0  0  0  0  0
    1.2916   -0.6625    0.0000 C   0  0  0  0  0  0  0  0  0  0  0  0
    0.5772   -1.0750    0.0000 Cl  0  0  0  0  0  0  0  0  0  0  0  0
  1  2  1  0  0  0  0
  3  2  2  0  0  0  0
  4  3  1  0  0  0  0
  5  4  2  0  0  0  0
  6  5  1  0  0  0  0
  7  6  2  0  0  0  0
  2  7  1  0  0  0  0
  8  1  1  0  0  0  0
  8  9  1  0  0  0  0
 10  8  2  0  0  0  0
 11 10  1  0  0  0  0
 12 11  2  0  0  0  0
 13 12  1  0  0  0  0
  1 13  2  0  0  0  0
 13 14  1  0  0  0  0
M  END
> <ChemID>
101466

> <CAS>
33146-45-1

> <Original_SMILES>
Clc1cccc(Cl)c1-c1ccccc1

> <preferred_name>
2,6-Dichlorobiphenyl

> <dsstox_substance_id>
DTXSID7038313

> <dsstox_compound_id>
DTXCID5018313

> <qc_level>
DSSTox_Low

> <Canonical_QSARr>
ClC1C=CC=C(Cl)C=1C1C=CC=CC=1

> <InChI_Code_QSARr>
InChI=1S/C12H8Cl2/c13-10-7-4-8-11(14)12(10)9-5-2-1-3-6-9/h1-8H

> <InChI Key_QSARr>
IYZWUWBAFUBNCH-UHFFFAOYSA-N

> <Salt_Solvent>


> <Salt_Solvent_ID>
0

> <MPID>
102700

> <HL Reference>
BRUNNER,S ET AL. (1990)

> <HL Temperature>
25

> <LogHL>
-3.638272163982408

> <Tr_1_Tst_0>
1

$$$$
101469
  Mrv171c012241914302D          

 14 15  0  0  0  0            999 V2000
    3.2597   -0.7351    0.0000 C   0  0  0  0  0  0  0  0  0  0  0  0
    3.9742   -1.1476    0.0000 Cl  0  0  0  0  0  0  0  0  0  0  0  0
    3.2597    0.0899    0.0000 C   0  0  0  0  0  0  0  0  0  0  0  0
    2.5452    0.5024    0.0000 C   0  0  0  0  0  0  0  0  0  0  0  0
    2.5452    1.3274    0.0000 Cl  0  0  0  0  0  0  0  0  0  0  0  0
    1.8307    0.0899    0.0000 C   0  0  0  0  0  0  0  0  0  0  0  0
    1.8307   -0.7351    0.0000 C   0  0  0  0  0  0  0  0  0  0  0  0
    2.5452   -1.1476    0.0000 C   0  0  0  0  0  0  0  0  0  0  0  0
    2.5452   -1.9726    0.0000 C   0  0  0  0  0  0  0  0  0  0  0  0
    1.8307   -2.3851    0.0000 C   0  0  0  0  0  0  0  0  0  0  0  0
    1.8307   -3.2101    0.0000 C   0  0  0  0  0  0  0  0  0  0  0  0
    2.5452   -3.6226    0.0000 C   0  0  0  0  0  0  0  0  0  0  0  0
    3.2597   -3.2101    0.0000 C   0  0  0  0  0  0  0  0  0  0  0  0
    3.2597   -2.3851    0.0000 C   0  0  0  0  0  0  0  0  0  0  0  0
  1  2  1  0  0  0  0
  3  1  1  0  0  0  0
  4  3  2  0  0  0  0
  4  5  1  0  0  0  0
  6  4  1  0  0  0  0
  7  6  2  0  0  0  0
  8  7  1  0  0  0  0
  1  8  2  0  0  0  0
  8  9  1  0  0  0  0
 10  9  2  0  0  0  0
 11 10  1  0  0  0  0
 12 11  2  0  0  0  0
 13 12  1  0  0  0  0
 14 13  2  0  0  0  0
  9 14  1  0  0  0  0
M  END
> <ChemID>
101469

> <CAS>
33284-50-3

> <Original_SMILES>
Clc1cc(Cl)c(cc1)-c1ccccc1

> <preferred_name>
2,4-Dichlorobiphenyl

> <dsstox_substance_id>
DTXSID8040301

> <dsstox_compound_id>
DTXCID6020301

> <qc_level>
DSSTox_Low

> <Canonical_QSARr>
ClC1C=C(Cl)C=CC=1C1C=CC=CC=1

> <InChI_Code_QSARr>
InChI=1S/C12H8Cl2/c13-10-6-7-11(12(14)8-10)9-4-2-1-3-5-9/h1-8H

> <InChI Key_QSARr>
WEJZHZJJXPXXMU-UHFFFAOYSA-N

> <Salt_Solvent>


> <Salt_Solvent_ID>
0

> <MPID>
102702

> <HL Reference>
BRUNNER,S ET AL. (1990)

> <HL Temperature>
25

> <LogHL>
-3.552841968657779

> <Tr_1_Tst_0>
1

$$$$
101478
  Mrv171c012241914302D          

 15 15  0  0  0  0            999 V2000
    2.5223   -1.3688    0.0000 C   0  0  0  0  0  0  0  0  0  0  0  0
    2.0373   -2.0362    0.0000 N   0  0  0  0  0  0  0  0  0  0  0  0
    1.2169   -1.9500    0.0000 C   0  0  0  0  0  0  0  0  0  0  0  0
    2.3729   -2.7899    0.0000 C   0  0  0  0  0  0  0  0  0  0  0  0
    1.8880   -3.4574    0.0000 N   0  0  0  0  0  0  0  0  0  0  0  0
    2.2235   -4.2110    0.0000 C   0  0  0  0  0  0  0  0  0  0  0  0
    3.1934   -2.8762    0.0000 O   0  0  0  0  0  0  0  0  0  0  0  0
    3.3473   -1.3688    0.0000 N   0  0  0  0  0  0  0  0  0  0  0  0
    3.6022   -0.5842    0.0000 N   0  0  0  0  0  0  0  0  0  0  0  0
    2.9348   -0.0993    0.0000 C   0  0  0  0  0  0  0  0  0  0  0  0
    2.9348    0.7257    0.0000 C   0  0  0  0  0  0  0  0  0  0  0  0
    2.9348    1.5507    0.0000 C   0  0  0  0  0  0  0  0  0  0  0  0
    3.7598    0.7257    0.0000 C   0  0  0  0  0  0  0  0  0  0  0  0
    2.1098    0.7257    0.0000 C   0  0  0  0  0  0  0  0  0  0  0  0
    2.2673   -0.5842    0.0000 S   0  0  0  0  0  0  0  0  0  0  0  0
  1  2  1  0  0  0  0
  2  3  1  0  0  0  0
  2  4  1  0  0  0  0
  4  5  1  0  0  0  0
  5  6  1  0  0  0  0
  4  7  2  0  0  0  0
  8  1  2  0  0  0  0
  9  8  1  0  0  0  0
 10  9  2  0  0  0  0
 10 11  1  0  0  0  0
 11 12  1  0  0  0  0
 11 13  1  0  0  0  0
 11 14  1  0  0  0  0
 15 10  1  0  0  0  0
  1 15  1  0  0  0  0
M  END
> <ChemID>
101478

> <CAS>
34014-18-1

> <Original_SMILES>
CNC(=O)N(C)c1[n][n]c([s]1)C(C)(C)C

> <preferred_name>
Tebuthiuron

> <dsstox_substance_id>
DTXSID3024316

> <dsstox_compound_id>
DTXCID704316

> <qc_level>
DSSTox_Low

> <Canonical_QSARr>
CNC(=O)N(C)C1=NN=C(S1)C(C)(C)C

> <InChI_Code_QSARr>
InChI=1S/C9H16N4OS/c1-9(2,3)6-11-12-8(15-6)13(5)7(14)10-4/h1-5H3,(H,10,14)

> <InChI Key_QSARr>
HBPDKDSFLXWOAE-UHFFFAOYSA-N

> <Salt_Solvent>


> <Salt_Solvent_ID>
0

> <MPID>
102703

> <HL Reference>
USDA PESTICIDE PROPERTIES DATABASE;(1997)

> <HL Temperature>
25

> <LogHL>
-9.920818753952373

> <Tr_1_Tst_0>
0

$$$$
101484
  Mrv171c012241914302D          

 14 15  0  0  0  0            999 V2000
    0.5103    1.9447    0.0000 C   0  0  0  0  0  0  0  0  0  0  0  0
    0.5103    2.7697    0.0000 C   0  0  0  0  0  0  0  0  0  0  0  0
   -0.2041    3.1822    0.0000 C   0  0  0  0  0  0  0  0  0  0  0  0
   -0.2041    4.0072    0.0000 Cl  0  0  0  0  0  0  0  0  0  0  0  0
   -0.9186    2.7697    0.0000 C   0  0  0  0  0  0  0  0  0  0  0  0
   -0.9186    1.9447    0.0000 C   0  0  0  0  0  0  0  0  0  0  0  0
   -0.2041    1.5322    0.0000 C   0  0  0  0  0  0  0  0  0  0  0  0
   -0.2041    0.7072    0.0000 Cl  0  0  0  0  0  0  0  0  0  0  0  0
    1.2248    1.5322    0.0000 C   0  0  0  0  0  0  0  0  0  0  0  0
    1.2248    0.7072    0.0000 C   0  0  0  0  0  0  0  0  0  0  0  0
    1.9393    0.2947    0.0000 C   0  0  0  0  0  0  0  0  0  0  0  0
    2.6537    0.7072    0.0000 C   0  0  0  0  0  0  0  0  0  0  0  0
    2.6537    1.5322    0.0000 C   0  0  0  0  0  0  0  0  0  0  0  0
    1.9393    1.9447    0.0000 C   0  0  0  0  0  0  0  0  0  0  0  0
  2  1  1  0  0  0  0
  3  2  2  0  0  0  0
  3  4  1  0  0  0  0
  5  3  1  0  0  0  0
  6  5  2  0  0  0  0
  7  6  1  0  0  0  0
  1  7  2  0  0  0  0
  7  8  1  0  0  0  0
  1  9  1  0  0  0  0
 10  9  1  0  0  0  0
 11 10  2  0  0  0  0
 12 11  1  0  0  0  0
 13 12  2  0  0  0  0
 14 13  1  0  0  0  0
  9 14  2  0  0  0  0
M  END
> <ChemID>
101484

> <CAS>
34883-39-1

> <Original_SMILES>
Clc1cc(-c2ccccc2)c(Cl)cc1

> <preferred_name>
2,5-Dichlorobiphenyl

> <dsstox_substance_id>
DTXSID7073480

> <dsstox_compound_id>
DTXCID0038918

> <qc_level>
Public_High

> <Canonical_QSARr>
ClC1C=CC(Cl)=CC=1C1C=CC=CC=1

> <InChI_Code_QSARr>
InChI=1S/C12H8Cl2/c13-10-6-7-12(14)11(8-10)9-4-2-1-3-5-9/h1-8H

> <InChI Key_QSARr>
KKQWHYGECTYFIA-UHFFFAOYSA-N

> <Salt_Solvent>


> <Salt_Solvent_ID>
0

> <MPID>
102704

> <HL Reference>
BRUNNER,S ET AL. (1990)

> <HL Temperature>
25

> <LogHL>
-3.552841968657779

> <Tr_1_Tst_0>
1

$$$$
101486
  Mrv171c012241914302D          

 14 15  0  0  0  0            999 V2000
    3.1655   -1.7074    0.0000 C   0  0  0  0  0  0  0  0  0  0  0  0
    3.1655   -2.5324    0.0000 C   0  0  0  0  0  0  0  0  0  0  0  0
    3.8800   -2.9449    0.0000 C   0  0  0  0  0  0  0  0  0  0  0  0
    4.5945   -2.5324    0.0000 C   0  0  0  0  0  0  0  0  0  0  0  0
    4.5945   -1.7074    0.0000 C   0  0  0  0  0  0  0  0  0  0  0  0
    3.8800   -1.2949    0.0000 C   0  0  0  0  0  0  0  0  0  0  0  0
    3.8800   -0.4699    0.0000 Cl  0  0  0  0  0  0  0  0  0  0  0  0
    2.4510   -1.2949    0.0000 C   0  0  0  0  0  0  0  0  0  0  0  0
    2.4510   -0.4699    0.0000 C   0  0  0  0  0  0  0  0  0  0  0  0
    1.7366   -0.0574    0.0000 C   0  0  0  0  0  0  0  0  0  0  0  0
    1.0221   -0.4699    0.0000 C   0  0  0  0  0  0  0  0  0  0  0  0
    0.3076   -0.0574    0.0000 Cl  0  0  0  0  0  0  0  0  0  0  0  0
    1.0221   -1.2949    0.0000 C   0  0  0  0  0  0  0  0  0  0  0  0
    1.7366   -1.7074    0.0000 C   0  0  0  0  0  0  0  0  0  0  0  0
  2  1  1  0  0  0  0
  3  2  2  0  0  0  0
  4  3  1  0  0  0  0
  5  4  2  0  0  0  0
  6  5  1  0  0  0  0
  1  6  2  0  0  0  0
  6  7  1  0  0  0  0
  1  8  1  0  0  0  0
  9  8  1  0  0  0  0
 10  9  2  0  0  0  0
 11 10  1  0  0  0  0
 11 12  1  0  0  0  0
 13 11  2  0  0  0  0
 14 13  1  0  0  0  0
  8 14  2  0  0  0  0
M  END
> <ChemID>
101486

> <CAS>
34883-43-7

> <Original_SMILES>
Clc1ccc(cc1)-c1ccccc1Cl

> <preferred_name>
2,4'-Dichlorobiphenyl

> <dsstox_substance_id>
DTXSID0022511

> <dsstox_compound_id>
DTXCID902511

> <qc_level>
DSSTox_Low

> <Canonical_QSARr>
ClC1C=CC(=CC=1)C1C=CC=CC=1Cl

> <InChI_Code_QSARr>
InChI=1S/C12H8Cl2/c13-10-7-5-9(6-8-10)11-3-1-2-4-12(11)14/h1-8H

> <InChI Key_QSARr>
UFNIBRDIUNVOMX-UHFFFAOYSA-N

> <Salt_Solvent>


> <Salt_Solvent_ID>
0

> <MPID>
102705

> <HL Reference>
BRUNNER,S ET AL. (1990)

> <HL Temperature>
25

> <LogHL>
-3.638272163982408

> <Tr_1_Tst_0>
1

$$$$
101487
  Mrv171c012241914302D          

 18 19  0  0  0  0            999 V2000
    2.5315   -1.6342    0.0000 C   0  0  0  0  0  0  0  0  0  0  0  0
    1.8170   -1.2217    0.0000 C   0  0  0  0  0  0  0  0  0  0  0  0
    1.8170   -0.3967    0.0000 Cl  0  0  0  0  0  0  0  0  0  0  0  0
    1.1025   -1.6342    0.0000 C   0  0  0  0  0  0  0  0  0  0  0  0
    1.1025   -2.4592    0.0000 C   0  0  0  0  0  0  0  0  0  0  0  0
    0.3881   -2.8717    0.0000 Cl  0  0  0  0  0  0  0  0  0  0  0  0
    1.8170   -2.8717    0.0000 C   0  0  0  0  0  0  0  0  0  0  0  0
    1.8170   -3.6967    0.0000 Cl  0  0  0  0  0  0  0  0  0  0  0  0
    2.5315   -2.4592    0.0000 C   0  0  0  0  0  0  0  0  0  0  0  0
    3.2460   -1.2217    0.0000 C   0  0  0  0  0  0  0  0  0  0  0  0
    3.9604   -1.6342    0.0000 C   0  0  0  0  0  0  0  0  0  0  0  0
    4.6749   -1.2217    0.0000 C   0  0  0  0  0  0  0  0  0  0  0  0
    5.3894   -1.6342    0.0000 Cl  0  0  0  0  0  0  0  0  0  0  0  0
    4.6749   -0.3967    0.0000 C   0  0  0  0  0  0  0  0  0  0  0  0
    5.3894    0.0158    0.0000 Cl  0  0  0  0  0  0  0  0  0  0  0  0
    3.9604    0.0158    0.0000 C   0  0  0  0  0  0  0  0  0  0  0  0
    3.2460   -0.3967    0.0000 C   0  0  0  0  0  0  0  0  0  0  0  0
    2.5315    0.0158    0.0000 Cl  0  0  0  0  0  0  0  0  0  0  0  0
  2  1  1  0  0  0  0
  2  3  1  0  0  0  0
  4  2  2  0  0  0  0
  5  4  1  0  0  0  0
  5  6  1  0  0  0  0
  7  5  2  0  0  0  0
  7  8  1  0  0  0  0
  9  7  1  0  0  0  0
  1  9  2  0  0  0  0
  1 10  1  0  0  0  0
 11 10  1  0  0  0  0
 12 11  2  0  0  0  0
 12 13  1  0  0  0  0
 14 12  1  0  0  0  0
 14 15  1  0  0  0  0
 16 14  2  0  0  0  0
 17 16  1  0  0  0  0
 10 17  2  0  0  0  0
 17 18  1  0  0  0  0
M  END
> <ChemID>
101487

> <CAS>
35065-27-1

> <Original_SMILES>
Clc1cc(Cl)c(Cl)cc1-c1cc(Cl)c(Cl)cc1Cl

> <preferred_name>
2,2',4,4',5,5'-Hexachlorobiphenyl

> <dsstox_substance_id>
DTXSID2032180

> <dsstox_compound_id>
DTXCID0012180

> <qc_level>
DSSTox_Low

> <Canonical_QSARr>
ClC1=CC(Cl)=C(C=C1Cl)C1=CC(Cl)=C(Cl)C=C1Cl

> <InChI_Code_QSARr>
InChI=1S/C12H4Cl6/c13-7-3-11(17)9(15)1-5(7)6-2-10(16)12(18)4-8(6)14/h1-4H

> <InChI Key_QSARr>
MVWHGTYKUMDIHL-UHFFFAOYSA-N

> <Salt_Solvent>


> <Salt_Solvent_ID>
0

> <MPID>
102706

> <HL Reference>
BRUNNER,S ET AL. (1990)

> <HL Temperature>
25

> <LogHL>
-4.638272163982396

> <Tr_1_Tst_0>
0

$$$$
101488
  Mrv171c012241914302D          

 18 19  0  0  0  0            999 V2000
    3.0652   -0.8568    0.0000 C   0  0  0  0  0  0  0  0  0  0  0  0
    3.7796   -0.4443    0.0000 C   0  0  0  0  0  0  0  0  0  0  0  0
    3.7796    0.3807    0.0000 C   0  0  0  0  0  0  0  0  0  0  0  0
    3.0652    0.7932    0.0000 C   0  0  0  0  0  0  0  0  0  0  0  0
    3.0652    1.6182    0.0000 Cl  0  0  0  0  0  0  0  0  0  0  0  0
    2.3507    0.3807    0.0000 C   0  0  0  0  0  0  0  0  0  0  0  0
    1.6362    0.7932    0.0000 Cl  0  0  0  0  0  0  0  0  0  0  0  0
    2.3507   -0.4443    0.0000 C   0  0  0  0  0  0  0  0  0  0  0  0
    1.6362   -0.8568    0.0000 Cl  0  0  0  0  0  0  0  0  0  0  0  0
    3.0652   -1.6818    0.0000 C   0  0  0  0  0  0  0  0  0  0  0  0
    2.3507   -2.0943    0.0000 C   0  0  0  0  0  0  0  0  0  0  0  0
    2.3507   -2.9193    0.0000 C   0  0  0  0  0  0  0  0  0  0  0  0
    1.6362   -3.3318    0.0000 Cl  0  0  0  0  0  0  0  0  0  0  0  0
    3.0652   -3.3318    0.0000 C   0  0  0  0  0  0  0  0  0  0  0  0
    3.0652   -4.1568    0.0000 Cl  0  0  0  0  0  0  0  0  0  0  0  0
    3.7796   -2.9193    0.0000 C   0  0  0  0  0  0  0  0  0  0  0  0
    3.7796   -2.0943    0.0000 C   0  0  0  0  0  0  0  0  0  0  0  0
    4.4941   -1.6818    0.0000 Cl  0  0  0  0  0  0  0  0  0  0  0  0
  2  1  1  0  0  0  0
  3  2  2  0  0  0  0
  4  3  1  0  0  0  0
  4  5  1  0  0  0  0
  6  4  2  0  0  0  0
  6  7  1  0  0  0  0
  8  6  1  0  0  0  0
  1  8  2  0  0  0  0
  8  9  1  0  0  0  0
  1 10  1  0  0  0  0
 11 10  1  0  0  0  0
 12 11  2  0  0  0  0
 12 13  1  0  0  0  0
 14 12  1  0  0  0  0
 14 15  1  0  0  0  0
 16 14  2  0  0  0  0
 17 16  1  0  0  0  0
 10 17  2  0  0  0  0
 17 18  1  0  0  0  0
M  END
> <ChemID>
101488

> <CAS>
35065-28-2

> <Original_SMILES>
Clc1ccc(-c2cc(Cl)c(Cl)cc2Cl)c(Cl)c1Cl

> <preferred_name>
2,2',3,4,4',5'-Hexachlorobiphenyl

> <dsstox_substance_id>
DTXSID8038300

> <dsstox_compound_id>
DTXCID6018300

> <qc_level>
DSSTox_Low

> <Canonical_QSARr>
ClC1C=CC(C2C=C(Cl)C(Cl)=CC=2Cl)=C(Cl)C=1Cl

> <InChI_Code_QSARr>
InChI=1S/C12H4Cl6/c13-7-2-1-5(11(17)12(7)18)6-3-9(15)10(16)4-8(6)14/h1-4H

> <InChI Key_QSARr>
RPUMZMSNLZHIGZ-UHFFFAOYSA-N

> <Salt_Solvent>


> <Salt_Solvent_ID>
0

> <MPID>
102707

> <HL Reference>
BRUNNER,S ET AL. (1990)

> <HL Temperature>
25

> <LogHL>
-4.677780705266102

> <Tr_1_Tst_0>
1

$$$$
101489
  Mrv171c012241914302D          

 19 20  0  0  0  0            999 V2000
    2.5483   -1.2891    0.0000 C   0  0  0  0  0  0  0  0  0  0  0  0
    2.5483   -0.4641    0.0000 C   0  0  0  0  0  0  0  0  0  0  0  0
    1.8338   -0.0516    0.0000 C   0  0  0  0  0  0  0  0  0  0  0  0
    1.8338    0.7734    0.0000 Cl  0  0  0  0  0  0  0  0  0  0  0  0
    1.1194   -0.4641    0.0000 C   0  0  0  0  0  0  0  0  0  0  0  0
    0.4049   -0.0516    0.0000 Cl  0  0  0  0  0  0  0  0  0  0  0  0
    1.1194   -1.2891    0.0000 C   0  0  0  0  0  0  0  0  0  0  0  0
    0.4049   -1.7016    0.0000 Cl  0  0  0  0  0  0  0  0  0  0  0  0
    1.8338   -1.7016    0.0000 C   0  0  0  0  0  0  0  0  0  0  0  0
    1.8338   -2.5266    0.0000 Cl  0  0  0  0  0  0  0  0  0  0  0  0
    3.2628   -1.7016    0.0000 C   0  0  0  0  0  0  0  0  0  0  0  0
    3.2628   -2.5266    0.0000 C   0  0  0  0  0  0  0  0  0  0  0  0
    3.9773   -2.9391    0.0000 C   0  0  0  0  0  0  0  0  0  0  0  0
    3.9773   -3.7641    0.0000 Cl  0  0  0  0  0  0  0  0  0  0  0  0
    4.6917   -2.5266    0.0000 C   0  0  0  0  0  0  0  0  0  0  0  0
    5.4062   -2.9391    0.0000 Cl  0  0  0  0  0  0  0  0  0  0  0  0
    4.6917   -1.7016    0.0000 C   0  0  0  0  0  0  0  0  0  0  0  0
    3.9773   -1.2891    0.0000 C   0  0  0  0  0  0  0  0  0  0  0  0
    3.9773   -0.4641    0.0000 Cl  0  0  0  0  0  0  0  0  0  0  0  0
  2  1  1  0  0  0  0
  3  2  2  0  0  0  0
  3  4  1  0  0  0  0
  5  3  1  0  0  0  0
  5  6  1  0  0  0  0
  7  5  2  0  0  0  0
  7  8  1  0  0  0  0
  9  7  1  0  0  0  0
  1  9  2  0  0  0  0
  9 10  1  0  0  0  0
  1 11  1  0  0  0  0
 12 11  1  0  0  0  0
 13 12  2  0  0  0  0
 13 14  1  0  0  0  0
 15 13  1  0  0  0  0
 15 16  1  0  0  0  0
 17 15  2  0  0  0  0
 18 17  1  0  0  0  0
 11 18  2  0  0  0  0
 18 19  1  0  0  0  0
M  END
> <ChemID>
101489

> <CAS>
35065-29-3

> <Original_SMILES>
Clc1cc(Cl)c(Cl)cc1-c1cc(Cl)c(Cl)c(Cl)c1Cl

> <preferred_name>
2,2',3,4,4',5,5'-Heptachlorobiphenyl

> <dsstox_substance_id>
DTXSID6038299

> <dsstox_compound_id>
DTXCID4018299

> <qc_level>
DSSTox_Low

> <Canonical_QSARr>
ClC1C=C(Cl)C(Cl)=CC=1C1C=C(Cl)C(Cl)=C(Cl)C=1Cl

> <InChI_Code_QSARr>
InChI=1S/C12H3Cl7/c13-6-3-8(15)7(14)1-4(6)5-2-9(16)11(18)12(19)10(5)17/h1-3H

> <InChI Key_QSARr>
WBHQEUPUMONIKF-UHFFFAOYSA-N

> <Salt_Solvent>


> <Salt_Solvent_ID>
0

> <MPID>
102708

> <HL Reference>
BRUNNER,S ET AL. (1990)

> <HL Temperature>
25

> <LogHL>
-4.999999999999988

> <Tr_1_Tst_0>
1

$$$$
101490
  Mrv171c012241914302D          

 19 20  0  0  0  0            999 V2000
    0.4889    1.8455    0.0000 C   0  0  0  0  0  0  0  0  0  0  0  0
    0.4889    2.6705    0.0000 C   0  0  0  0  0  0  0  0  0  0  0  0
   -0.2256    3.0830    0.0000 C   0  0  0  0  0  0  0  0  0  0  0  0
   -0.2256    3.9080    0.0000 Cl  0  0  0  0  0  0  0  0  0  0  0  0
   -0.9401    2.6705    0.0000 C   0  0  0  0  0  0  0  0  0  0  0  0
   -1.6545    3.0830    0.0000 Cl  0  0  0  0  0  0  0  0  0  0  0  0
   -0.9401    1.8455    0.0000 C   0  0  0  0  0  0  0  0  0  0  0  0
   -1.6545    1.4330    0.0000 Cl  0  0  0  0  0  0  0  0  0  0  0  0
   -0.2256    1.4330    0.0000 C   0  0  0  0  0  0  0  0  0  0  0  0
   -0.2256    0.6080    0.0000 Cl  0  0  0  0  0  0  0  0  0  0  0  0
    1.2033    1.4330    0.0000 C   0  0  0  0  0  0  0  0  0  0  0  0
    1.2033    0.6080    0.0000 C   0  0  0  0  0  0  0  0  0  0  0  0
    1.9178    0.1955    0.0000 C   0  0  0  0  0  0  0  0  0  0  0  0
    2.6323    0.6080    0.0000 C   0  0  0  0  0  0  0  0  0  0  0  0
    3.3468    0.1955    0.0000 Cl  0  0  0  0  0  0  0  0  0  0  0  0
    2.6323    1.4330    0.0000 C   0  0  0  0  0  0  0  0  0  0  0  0
    3.3468    1.8455    0.0000 Cl  0  0  0  0  0  0  0  0  0  0  0  0
    1.9178    1.8455    0.0000 C   0  0  0  0  0  0  0  0  0  0  0  0
    1.9178    2.6705    0.0000 Cl  0  0  0  0  0  0  0  0  0  0  0  0
  2  1  1  0  0  0  0
  3  2  2  0  0  0  0
  3  4  1  0  0  0  0
  5  3  1  0  0  0  0
  5  6  1  0  0  0  0
  7  5  2  0  0  0  0
  7  8  1  0  0  0  0
  9  7  1  0  0  0  0
  1  9  2  0  0  0  0
  9 10  1  0  0  0  0
  1 11  1  0  0  0  0
 12 11  1  0  0  0  0
 13 12  2  0  0  0  0
 14 13  1  0  0  0  0
 14 15  1  0  0  0  0
 16 14  2  0  0  0  0
 16 17  1  0  0  0  0
 18 16  1  0  0  0  0
 11 18  2  0  0  0  0
 18 19  1  0  0  0  0
M  END
> <ChemID>
101490

> <CAS>
35065-30-6

> <Original_SMILES>
Clc1c(ccc(Cl)c1Cl)-c1cc(Cl)c(Cl)c(Cl)c1Cl

> <preferred_name>
2,2',3,3',4,4',5-Heptachlorobiphenyl

> <dsstox_substance_id>
DTXSID2073481

> <dsstox_compound_id>
DTXCID8038938

> <qc_level>
Public_High

> <Canonical_QSARr>
ClC1C=CC(C2C=C(Cl)C(Cl)=C(Cl)C=2Cl)=C(Cl)C=1Cl

> <InChI_Code_QSARr>
InChI=1S/C12H3Cl7/c13-6-2-1-4(8(15)10(6)17)5-3-7(14)11(18)12(19)9(5)16/h1-3H

> <InChI Key_QSARr>
RMPWIIKNWPVWNG-UHFFFAOYSA-N

> <Salt_Solvent>


> <Salt_Solvent_ID>
0

> <MPID>
102709

> <HL Reference>
BRUNNER,S ET AL. (1990)

> <HL Temperature>
25

> <LogHL>
-5.045757490560694

> <Tr_1_Tst_0>
1

$$$$
101497
  Mrv171c012241914302D          

 16 17  0  0  0  0            999 V2000
    1.7032   -1.2210    0.0000 C   0  0  0  0  0  0  0  0  0  0  0  0
    1.7032   -0.3960    0.0000 C   0  0  0  0  0  0  0  0  0  0  0  0
    0.9887    0.0165    0.0000 C   0  0  0  0  0  0  0  0  0  0  0  0
    0.9887    0.8415    0.0000 Cl  0  0  0  0  0  0  0  0  0  0  0  0
    0.2743   -0.3960    0.0000 C   0  0  0  0  0  0  0  0  0  0  0  0
    0.2743   -1.2210    0.0000 C   0  0  0  0  0  0  0  0  0  0  0  0
    0.9887   -1.6335    0.0000 C   0  0  0  0  0  0  0  0  0  0  0  0
    0.9887   -2.4585    0.0000 Cl  0  0  0  0  0  0  0  0  0  0  0  0
    2.4177   -1.6335    0.0000 C   0  0  0  0  0  0  0  0  0  0  0  0
    2.4177   -2.4585    0.0000 C   0  0  0  0  0  0  0  0  0  0  0  0
    3.1321   -2.8710    0.0000 C   0  0  0  0  0  0  0  0  0  0  0  0
    3.1321   -3.6960    0.0000 Cl  0  0  0  0  0  0  0  0  0  0  0  0
    3.8466   -2.4585    0.0000 C   0  0  0  0  0  0  0  0  0  0  0  0
    3.8466   -1.6335    0.0000 C   0  0  0  0  0  0  0  0  0  0  0  0
    3.1321   -1.2210    0.0000 C   0  0  0  0  0  0  0  0  0  0  0  0
    3.1321   -0.3960    0.0000 Cl  0  0  0  0  0  0  0  0  0  0  0  0
  2  1  1  0  0  0  0
  3  2  2  0  0  0  0
  3  4  1  0  0  0  0
  5  3  1  0  0  0  0
  6  5  2  0  0  0  0
  7  6  1  0  0  0  0
  1  7  2  0  0  0  0
  7  8  1  0  0  0  0
  1  9  1  0  0  0  0
 10  9  1  0  0  0  0
 11 10  2  0  0  0  0
 11 12  1  0  0  0  0
 13 11  1  0  0  0  0
 14 13  2  0  0  0  0
 15 14  1  0  0  0  0
  9 15  2  0  0  0  0
 15 16  1  0  0  0  0
M  END
> <ChemID>
101497

> <CAS>
35693-99-3

> <Original_SMILES>
Clc1cc(-c2cc(Cl)ccc2Cl)c(Cl)cc1

> <preferred_name>
2,2',5,5'-Tetrachlorobiphenyl

> <dsstox_substance_id>
DTXSID3038305

> <dsstox_compound_id>
DTXCID1018305

> <qc_level>
DSSTox_Low

> <Canonical_QSARr>
ClC1=CC(C2C=C(Cl)C=CC=2Cl)=C(Cl)C=C1

> <InChI_Code_QSARr>
InChI=1S/C12H6Cl4/c13-7-1-3-11(15)9(5-7)10-6-8(14)2-4-12(10)16/h1-6H

> <InChI Key_QSARr>
HCWZEPKLWVAEOV-UHFFFAOYSA-N

> <Salt_Solvent>


> <Salt_Solvent_ID>
0

> <MPID>
102710

> <HL Reference>
BRUNNER,S ET AL. (1990)

> <HL Temperature>
25

> <LogHL>
-3.6989700043360196

> <Tr_1_Tst_0>
1

$$$$
101498
  Mrv171c012241914302D          

 20 21  0  0  0  0            999 V2000
    0.3573    1.8563    0.0000 C   0  0  0  0  0  0  0  0  0  0  0  0
    0.3573    2.6813    0.0000 C   0  0  0  0  0  0  0  0  0  0  0  0
   -0.3572    3.0938    0.0000 C   0  0  0  0  0  0  0  0  0  0  0  0
   -0.3572    3.9188    0.0000 Cl  0  0  0  0  0  0  0  0  0  0  0  0
   -1.0717    2.6813    0.0000 C   0  0  0  0  0  0  0  0  0  0  0  0
   -1.7862    3.0938    0.0000 Cl  0  0  0  0  0  0  0  0  0  0  0  0
   -1.0717    1.8563    0.0000 C   0  0  0  0  0  0  0  0  0  0  0  0
   -1.7862    1.4438    0.0000 Cl  0  0  0  0  0  0  0  0  0  0  0  0
   -0.3572    1.4438    0.0000 C   0  0  0  0  0  0  0  0  0  0  0  0
   -0.3572    0.6188    0.0000 Cl  0  0  0  0  0  0  0  0  0  0  0  0
    1.0717    1.4438    0.0000 C   0  0  0  0  0  0  0  0  0  0  0  0
    1.0717    0.6188    0.0000 C   0  0  0  0  0  0  0  0  0  0  0  0
    1.7862    0.2063    0.0000 C   0  0  0  0  0  0  0  0  0  0  0  0
    1.7862   -0.6187    0.0000 Cl  0  0  0  0  0  0  0  0  0  0  0  0
    2.5007    0.6188    0.0000 C   0  0  0  0  0  0  0  0  0  0  0  0
    3.2151    0.2063    0.0000 Cl  0  0  0  0  0  0  0  0  0  0  0  0
    2.5007    1.4438    0.0000 C   0  0  0  0  0  0  0  0  0  0  0  0
    3.2151    1.8563    0.0000 Cl  0  0  0  0  0  0  0  0  0  0  0  0
    1.7862    1.8563    0.0000 C   0  0  0  0  0  0  0  0  0  0  0  0
    1.7862    2.6813    0.0000 Cl  0  0  0  0  0  0  0  0  0  0  0  0
  2  1  1  0  0  0  0
  3  2  2  0  0  0  0
  3  4  1  0  0  0  0
  5  3  1  0  0  0  0
  5  6  1  0  0  0  0
  7  5  2  0  0  0  0
  7  8  1  0  0  0  0
  9  7  1  0  0  0  0
  1  9  2  0  0  0  0
  9 10  1  0  0  0  0
  1 11  1  0  0  0  0
 12 11  1  0  0  0  0
 13 12  2  0  0  0  0
 13 14  1  0  0  0  0
 15 13  1  0  0  0  0
 15 16  1  0  0  0  0
 17 15  2  0  0  0  0
 17 18  1  0  0  0  0
 19 17  1  0  0  0  0
 11 19  2  0  0  0  0
 19 20  1  0  0  0  0
M  END
> <ChemID>
101498

> <CAS>
35694-08-7

> <Original_SMILES>
Clc1cc(-c2cc(Cl)c(Cl)c(Cl)c2Cl)c(Cl)c(Cl)c1Cl

> <preferred_name>
2,2',3,3',4,4',5,5'-Octachlorobiphenyl

> <dsstox_substance_id>
DTXSID5074139

> <dsstox_compound_id>
DTXCID9039078

> <qc_level>
Public_High

> <Canonical_QSARr>
ClC1=CC(C2C=C(Cl)C(Cl)=C(Cl)C=2Cl)=C(Cl)C(Cl)=C1Cl

> <InChI_Code_QSARr>
InChI=1S/C12H2Cl8/c13-5-1-3(7(15)11(19)9(5)17)4-2-6(14)10(18)12(20)8(4)16/h1-2H

> <InChI Key_QSARr>
DTMRKGRREZAYAP-UHFFFAOYSA-N

> <Salt_Solvent>


> <Salt_Solvent_ID>
0

> <MPID>
102711

> <HL Reference>
BRUNNER,S ET AL. (1990)

> <HL Temperature>
25

> <LogHL>
-4.999999999999988

> <Tr_1_Tst_0>
1

$$$$
101503
  Mrv171c012241914302D          

 16 17  0  0  0  0            999 V2000
    2.5546   -1.1797    0.0000 C   0  0  0  0  0  0  0  0  0  0  0  0
    3.2691   -1.5922    0.0000 C   0  0  0  0  0  0  0  0  0  0  0  0
    3.9835   -1.1797    0.0000 C   0  0  0  0  0  0  0  0  0  0  0  0
    3.9835   -0.3547    0.0000 C   0  0  0  0  0  0  0  0  0  0  0  0
    3.2691    0.0578    0.0000 C   0  0  0  0  0  0  0  0  0  0  0  0
    3.2691    0.8828    0.0000 Cl  0  0  0  0  0  0  0  0  0  0  0  0
    2.5546   -0.3547    0.0000 C   0  0  0  0  0  0  0  0  0  0  0  0
    1.8401    0.0578    0.0000 Cl  0  0  0  0  0  0  0  0  0  0  0  0
    1.8401   -1.5922    0.0000 C   0  0  0  0  0  0  0  0  0  0  0  0
    1.1256   -1.1797    0.0000 C   0  0  0  0  0  0  0  0  0  0  0  0
    0.4112   -1.5922    0.0000 C   0  0  0  0  0  0  0  0  0  0  0  0
    0.4112   -2.4172    0.0000 C   0  0  0  0  0  0  0  0  0  0  0  0
   -0.3033   -2.8297    0.0000 Cl  0  0  0  0  0  0  0  0  0  0  0  0
    1.1256   -2.8297    0.0000 C   0  0  0  0  0  0  0  0  0  0  0  0
    1.8401   -2.4172    0.0000 C   0  0  0  0  0  0  0  0  0  0  0  0
    2.5546   -2.8297    0.0000 Cl  0  0  0  0  0  0  0  0  0  0  0  0
  2  1  1  0  0  0  0
  3  2  2  0  0  0  0
  4  3  1  0  0  0  0
  5  4  2  0  0  0  0
  5  6  1  0  0  0  0
  7  5  1  0  0  0  0
  1  7  2  0  0  0  0
  7  8  1  0  0  0  0
  1  9  1  0  0  0  0
 10  9  1  0  0  0  0
 11 10  2  0  0  0  0
 12 11  1  0  0  0  0
 12 13  1  0  0  0  0
 14 12  2  0  0  0  0
 15 14  1  0  0  0  0
  9 15  2  0  0  0  0
 15 16  1  0  0  0  0
M  END
> <ChemID>
101503

> <CAS>
36559-22-5

> <Original_SMILES>
Clc1cc(Cl)c(cc1)-c1cccc(Cl)c1Cl

> <preferred_name>
Aroclor 1242

> <dsstox_substance_id>
DTXSID80873557

> <dsstox_compound_id>
DTXCID1020223

> <qc_level>
DSSTox_High

> <Canonical_QSARr>
ClC1C=C(Cl)C=CC=1C1C=CC=C(Cl)C=1Cl

> <InChI_Code_QSARr>
InChI=1S/C12H6Cl4/c13-7-4-5-8(11(15)6-7)9-2-1-3-10(14)12(9)16/h1-6H

> <InChI Key_QSARr>
ALFHIHDQSYXSGP-UHFFFAOYSA-N

> <Salt_Solvent>


> <Salt_Solvent_ID>
0

> <MPID>
102712

> <HL Reference>
BRUNNER,S ET AL. (1990)

> <HL Temperature>
25

> <LogHL>
-3.8538719643217614

> <Tr_1_Tst_0>
1

$$$$
101505
  Mrv171c012241914302D          

 21 22  0  0  0  0            999 V2000
    4.1746   -2.3035    0.0000 N   0  0  0  0  0  0  0  0  0  0  0  0
    4.4296   -1.5189    0.0000 C   0  0  0  0  0  0  0  0  0  0  0  0
    3.7621   -1.0340    0.0000 C   0  0  0  0  0  0  0  0  0  0  0  0
    3.7621   -0.2090    0.0000 O   0  0  0  0  0  0  0  0  0  0  0  0
    3.0947   -1.5189    0.0000 N   0  0  0  0  0  0  0  0  0  0  0  0
    2.3101   -1.2640    0.0000 C   0  0  0  0  0  0  0  0  0  0  0  0
    2.1385   -0.4570    0.0000 C   0  0  0  0  0  0  0  0  0  0  0  0
    1.3539   -0.2021    0.0000 C   0  0  0  0  0  0  0  0  0  0  0  0
    1.1824    0.6049    0.0000 Cl  0  0  0  0  0  0  0  0  0  0  0  0
    0.7408   -0.7541    0.0000 C   0  0  0  0  0  0  0  0  0  0  0  0
    0.9123   -1.5611    0.0000 C   0  0  0  0  0  0  0  0  0  0  0  0
    0.2992   -2.1131    0.0000 Cl  0  0  0  0  0  0  0  0  0  0  0  0
    1.6970   -1.8160    0.0000 C   0  0  0  0  0  0  0  0  0  0  0  0
    3.3496   -2.3035    0.0000 C   0  0  0  0  0  0  0  0  0  0  0  0
    2.8647   -2.9710    0.0000 O   0  0  0  0  0  0  0  0  0  0  0  0
    4.6595   -2.9710    0.0000 C   0  0  0  0  0  0  0  0  0  0  0  0
    4.3240   -3.7247    0.0000 O   0  0  0  0  0  0  0  0  0  0  0  0
    5.4800   -2.8847    0.0000 N   0  0  0  0  0  0  0  0  0  0  0  0
    5.9649   -3.5522    0.0000 C   0  0  0  0  0  0  0  0  0  0  0  0
    6.7854   -3.4659    0.0000 C   0  0  0  0  0  0  0  0  0  0  0  0
    5.6294   -4.3059    0.0000 C   0  0  0  0  0  0  0  0  0  0  0  0
  2  1  1  0  0  0  0
  3  2  1  0  0  0  0
  3  4  2  0  0  0  0
  5  3  1  0  0  0  0
  5  6  1  0  0  0  0
  7  6  2  0  0  0  0
  8  7  1  0  0  0  0
  8  9  1  0  0  0  0
 10  8  2  0  0  0  0
 11 10  1  0  0  0  0
 11 12  1  0  0  0  0
 13 11  2  0  0  0  0
  6 13  1  0  0  0  0
 14  5  1  0  0  0  0
  1 14  1  0  0  0  0
 14 15  2  0  0  0  0
  1 16  1  0  0  0  0
 16 17  2  0  0  0  0
 16 18  1  0  0  0  0
 18 19  1  0  0  0  0
 19 20  1  0  0  0  0
 19 21  1  0  0  0  0
M  END
> <ChemID>
101505

> <CAS>
36734-19-7

> <Original_SMILES>
CC(C)NC(=O)N1CC(=O)N(c2cc(Cl)cc(Cl)c2)C1=O

> <preferred_name>
Iprodione

> <dsstox_substance_id>
DTXSID3024154

> <dsstox_compound_id>
DTXCID704154

> <qc_level>
DSSTox_High

> <Canonical_QSARr>
CC(C)NC(=O)N1CC(=O)N(C2C=C(Cl)C=C(Cl)C=2)C1=O

> <InChI_Code_QSARr>
InChI=1S/C13H13Cl2N3O3/c1-7(2)16-12(20)17-6-11(19)18(13(17)21)10-4-8(14)3-9(15)5-10/h3-5,7H,6H2,1-2H3,(H,16,20)

> <InChI Key_QSARr>
ONUFESLQCSAYKA-UHFFFAOYSA-N

> <Salt_Solvent>


> <Salt_Solvent_ID>
0

> <MPID>
102713

> <HL Reference>
USDA PESTICIDE PROPERTIES DATABASE

> <HL Temperature>
25

> <LogHL>
-8.505845405981548

> <Tr_1_Tst_0>
1

$$$$
101506
  Mrv171c012241914302D          

 15 16  0  0  0  0            999 V2000
    0.5239    1.8425    0.0000 C   0  0  0  0  0  0  0  0  0  0  0  0
    0.5239    2.6675    0.0000 C   0  0  0  0  0  0  0  0  0  0  0  0
   -0.1905    3.0800    0.0000 C   0  0  0  0  0  0  0  0  0  0  0  0
   -0.1905    3.9050    0.0000 Cl  0  0  0  0  0  0  0  0  0  0  0  0
   -0.9050    2.6675    0.0000 C   0  0  0  0  0  0  0  0  0  0  0  0
   -0.9050    1.8425    0.0000 C   0  0  0  0  0  0  0  0  0  0  0  0
   -0.1905    1.4300    0.0000 C   0  0  0  0  0  0  0  0  0  0  0  0
   -0.1905    0.6050    0.0000 Cl  0  0  0  0  0  0  0  0  0  0  0  0
    1.2384    1.4300    0.0000 C   0  0  0  0  0  0  0  0  0  0  0  0
    1.2384    0.6050    0.0000 C   0  0  0  0  0  0  0  0  0  0  0  0
    1.9529    0.1925    0.0000 C   0  0  0  0  0  0  0  0  0  0  0  0
    2.6673    0.6050    0.0000 C   0  0  0  0  0  0  0  0  0  0  0  0
    2.6673    1.4300    0.0000 C   0  0  0  0  0  0  0  0  0  0  0  0
    1.9529    1.8425    0.0000 C   0  0  0  0  0  0  0  0  0  0  0  0
    1.9529    2.6675    0.0000 Cl  0  0  0  0  0  0  0  0  0  0  0  0
  2  1  1  0  0  0  0
  3  2  2  0  0  0  0
  3  4  1  0  0  0  0
  5  3  1  0  0  0  0
  6  5  2  0  0  0  0
  7  6  1  0  0  0  0
  1  7  2  0  0  0  0
  7  8  1  0  0  0  0
  1  9  1  0  0  0  0
 10  9  1  0  0  0  0
 11 10  2  0  0  0  0
 12 11  1  0  0  0  0
 13 12  2  0  0  0  0
 14 13  1  0  0  0  0
  9 14  2  0  0  0  0
 14 15  1  0  0  0  0
M  END
> <ChemID>
101506

> <CAS>
37680-65-2

> <Original_SMILES>
Clc1cc(-c2ccccc2Cl)c(Cl)cc1

> <preferred_name>
2,2',5-Trichlorobiphenyl

> <dsstox_substance_id>
DTXSID6073491

> <dsstox_compound_id>
DTXCID7039383

> <qc_level>
Public_High

> <Canonical_QSARr>
ClC1=CC(C2C=CC=CC=2Cl)=C(Cl)C=C1

> <InChI_Code_QSARr>
InChI=1S/C12H7Cl3/c13-8-5-6-12(15)10(7-8)9-3-1-2-4-11(9)14/h1-7H

> <InChI Key_QSARr>
DCMURXAZTZQAFB-UHFFFAOYSA-N

> <Salt_Solvent>


> <Salt_Solvent_ID>
0

> <MPID>
102714

> <HL Reference>
BRUNNER,S ET AL. (1990)

> <HL Temperature>
25

> <LogHL>
-3.602059991327963

> <Tr_1_Tst_0>
1

$$$$
101507
  Mrv171c012241914302D          

 15 16  0  0  0  0            999 V2000
    0.6192    1.8975    0.0000 C   0  0  0  0  0  0  0  0  0  0  0  0
    0.6192    2.7225    0.0000 C   0  0  0  0  0  0  0  0  0  0  0  0
   -0.0953    3.1350    0.0000 C   0  0  0  0  0  0  0  0  0  0  0  0
   -0.0953    3.9600    0.0000 Cl  0  0  0  0  0  0  0  0  0  0  0  0
   -0.8097    2.7225    0.0000 C   0  0  0  0  0  0  0  0  0  0  0  0
   -0.8097    1.8975    0.0000 C   0  0  0  0  0  0  0  0  0  0  0  0
   -1.5242    1.4850    0.0000 Cl  0  0  0  0  0  0  0  0  0  0  0  0
   -0.0953    1.4850    0.0000 C   0  0  0  0  0  0  0  0  0  0  0  0
    1.3337    1.4850    0.0000 C   0  0  0  0  0  0  0  0  0  0  0  0
    1.3337    0.6600    0.0000 C   0  0  0  0  0  0  0  0  0  0  0  0
    2.0481    0.2475    0.0000 C   0  0  0  0  0  0  0  0  0  0  0  0
    2.7626    0.6600    0.0000 C   0  0  0  0  0  0  0  0  0  0  0  0
    2.7626    1.4850    0.0000 C   0  0  0  0  0  0  0  0  0  0  0  0
    2.0481    1.8975    0.0000 C   0  0  0  0  0  0  0  0  0  0  0  0
    2.0481    2.7225    0.0000 Cl  0  0  0  0  0  0  0  0  0  0  0  0
  2  1  1  0  0  0  0
  3  2  2  0  0  0  0
  3  4  1  0  0  0  0
  5  3  1  0  0  0  0
  6  5  2  0  0  0  0
  6  7  1  0  0  0  0
  8  6  1  0  0  0  0
  1  8  2  0  0  0  0
  1  9  1  0  0  0  0
 10  9  1  0  0  0  0
 11 10  2  0  0  0  0
 12 11  1  0  0  0  0
 13 12  2  0  0  0  0
 14 13  1  0  0  0  0
  9 14  2  0  0  0  0
 14 15  1  0  0  0  0
M  END
> <ChemID>
101507

> <CAS>
37680-68-5

> <Original_SMILES>
Clc1ccccc1-c1cc(Cl)cc(Cl)c1

> <preferred_name>
2,3',5'-Trichlorobiphenyl

> <dsstox_substance_id>
DTXSID4074140

> <dsstox_compound_id>
DTXCID7039385

> <qc_level>
Public_High

> <Canonical_QSARr>
ClC1=CC(=CC(Cl)=C1)C1C=CC=CC=1Cl

> <InChI_Code_QSARr>
InChI=1S/C12H7Cl3/c13-9-5-8(6-10(14)7-9)11-3-1-2-4-12(11)15/h1-7H

> <InChI Key_QSARr>
GXVMAQACUOSFJF-UHFFFAOYSA-N

> <Salt_Solvent>


> <Salt_Solvent_ID>
0

> <MPID>
102715

> <HL Reference>
BRUNNER,S ET AL. (1990)

> <HL Temperature>
25

> <LogHL>
-3.6989700043360196

> <Tr_1_Tst_0>
1

$$$$
101508
  Mrv171c012241914302D          

 17 18  0  0  0  0            999 V2000
    2.5007   -1.3053    0.0000 C   0  0  0  0  0  0  0  0  0  0  0  0
    2.5007   -0.4803    0.0000 C   0  0  0  0  0  0  0  0  0  0  0  0
    1.7862   -0.0678    0.0000 C   0  0  0  0  0  0  0  0  0  0  0  0
    1.7862    0.7572    0.0000 Cl  0  0  0  0  0  0  0  0  0  0  0  0
    1.0718   -0.4803    0.0000 C   0  0  0  0  0  0  0  0  0  0  0  0
    0.3573   -0.0678    0.0000 Cl  0  0  0  0  0  0  0  0  0  0  0  0
    1.0718   -1.3053    0.0000 C   0  0  0  0  0  0  0  0  0  0  0  0
    1.7862   -1.7178    0.0000 C   0  0  0  0  0  0  0  0  0  0  0  0
    1.7862   -2.5428    0.0000 Cl  0  0  0  0  0  0  0  0  0  0  0  0
    3.2152   -1.7178    0.0000 C   0  0  0  0  0  0  0  0  0  0  0  0
    3.2152   -2.5428    0.0000 C   0  0  0  0  0  0  0  0  0  0  0  0
    3.9296   -2.9553    0.0000 C   0  0  0  0  0  0  0  0  0  0  0  0
    3.9296   -3.7803    0.0000 Cl  0  0  0  0  0  0  0  0  0  0  0  0
    4.6441   -2.5428    0.0000 C   0  0  0  0  0  0  0  0  0  0  0  0
    4.6441   -1.7178    0.0000 C   0  0  0  0  0  0  0  0  0  0  0  0
    3.9296   -1.3053    0.0000 C   0  0  0  0  0  0  0  0  0  0  0  0
    3.9296   -0.4803    0.0000 Cl  0  0  0  0  0  0  0  0  0  0  0  0
  2  1  1  0  0  0  0
  3  2  2  0  0  0  0
  3  4  1  0  0  0  0
  5  3  1  0  0  0  0
  5  6  1  0  0  0  0
  7  5  2  0  0  0  0
  8  7  1  0  0  0  0
  1  8  2  0  0  0  0
  8  9  1  0  0  0  0
  1 10  1  0  0  0  0
 11 10  1  0  0  0  0
 12 11  2  0  0  0  0
 12 13  1  0  0  0  0
 14 12  1  0  0  0  0
 15 14  2  0  0  0  0
 16 15  1  0  0  0  0
 10 16  2  0  0  0  0
 16 17  1  0  0  0  0
M  END
> <ChemID>
101508

> <CAS>
37680-73-2

> <Original_SMILES>
Clc1cc(-c2cc(Cl)c(Cl)cc2Cl)c(Cl)cc1

> <preferred_name>
2,2,4,5,5'-Pentochlorobiphenyl

> <dsstox_substance_id>
DTXSID8038304

> <dsstox_compound_id>
DTXCID6018304

> <qc_level>
DSSTox_Low

> <Canonical_QSARr>
ClC1=CC(C2C=C(Cl)C(Cl)=CC=2Cl)=C(Cl)C=C1

> <InChI_Code_QSARr>
InChI=1S/C12H5Cl5/c13-6-1-2-9(14)7(3-6)8-4-11(16)12(17)5-10(8)15/h1-5H

> <InChI Key_QSARr>
LAHWLEDBADHJGA-UHFFFAOYSA-N

> <Salt_Solvent>


> <Salt_Solvent_ID>
0

> <MPID>
102716

> <HL Reference>
BRUNNER,S ET AL. (1990)

> <HL Temperature>
25

> <LogHL>
-4.045757490560676

> <Tr_1_Tst_0>
0

$$$$
101513
  Mrv171c012241914302D          

 17 18  0  0  0  0            999 V2000
    1.6581   -1.4656    0.0000 C   0  0  0  0  0  0  0  0  0  0  0  0
    0.9436   -1.0531    0.0000 C   0  0  0  0  0  0  0  0  0  0  0  0
    0.9436   -0.2281    0.0000 Cl  0  0  0  0  0  0  0  0  0  0  0  0
    0.2291   -1.4656    0.0000 C   0  0  0  0  0  0  0  0  0  0  0  0
    0.2291   -2.2906    0.0000 C   0  0  0  0  0  0  0  0  0  0  0  0
    0.9436   -2.7031    0.0000 C   0  0  0  0  0  0  0  0  0  0  0  0
    0.9436   -3.5281    0.0000 Cl  0  0  0  0  0  0  0  0  0  0  0  0
    1.6581   -2.2906    0.0000 C   0  0  0  0  0  0  0  0  0  0  0  0
    2.3725   -2.7031    0.0000 Cl  0  0  0  0  0  0  0  0  0  0  0  0
    2.3725   -1.0531    0.0000 C   0  0  0  0  0  0  0  0  0  0  0  0
    3.0870   -1.4656    0.0000 C   0  0  0  0  0  0  0  0  0  0  0  0
    3.8015   -1.0531    0.0000 C   0  0  0  0  0  0  0  0  0  0  0  0
    4.5160   -1.4656    0.0000 Cl  0  0  0  0  0  0  0  0  0  0  0  0
    3.8015   -0.2281    0.0000 C   0  0  0  0  0  0  0  0  0  0  0  0
    3.0870    0.1844    0.0000 C   0  0  0  0  0  0  0  0  0  0  0  0
    2.3725   -0.2281    0.0000 C   0  0  0  0  0  0  0  0  0  0  0  0
    1.6581    0.1844    0.0000 Cl  0  0  0  0  0  0  0  0  0  0  0  0
  2  1  1  0  0  0  0
  2  3  1  0  0  0  0
  4  2  2  0  0  0  0
  5  4  1  0  0  0  0
  6  5  2  0  0  0  0
  6  7  1  0  0  0  0
  8  6  1  0  0  0  0
  1  8  2  0  0  0  0
  8  9  1  0  0  0  0
  1 10  1  0  0  0  0
 11 10  1  0  0  0  0
 12 11  2  0  0  0  0
 12 13  1  0  0  0  0
 14 12  1  0  0  0  0
 15 14  2  0  0  0  0
 16 15  1  0  0  0  0
 10 16  2  0  0  0  0
 16 17  1  0  0  0  0
M  END
> <ChemID>
101513

> <CAS>
38379-99-6

> <Original_SMILES>
Clc1cc(-c2c(Cl)c(Cl)ccc2Cl)c(Cl)cc1

> <preferred_name>
2,2',3,5',6-Pentachlorobiphenyl

> <dsstox_substance_id>
DTXSID3038301

> <dsstox_compound_id>
DTXCID1018301

> <qc_level>
DSSTox_Low

> <Canonical_QSARr>
ClC1C=CC(Cl)=CC=1C1=C(Cl)C(Cl)=CC=C1Cl

> <InChI_Code_QSARr>
InChI=1S/C12H5Cl5/c13-6-1-2-8(14)7(5-6)11-9(15)3-4-10(16)12(11)17/h1-5H

> <InChI Key_QSARr>
GXNNLIMMEXHBKV-UHFFFAOYSA-N

> <Salt_Solvent>


> <Salt_Solvent_ID>
0

> <MPID>
102717

> <HL Reference>
BRUNNER,S ET AL. (1990)

> <HL Temperature>
25

> <LogHL>
-3.920818753952376

> <Tr_1_Tst_0>
0

$$$$
101514
  Mrv171c012241914302D          

 17 18  0  0  0  0            999 V2000
    0.5044    1.8442    0.0000 C   0  0  0  0  0  0  0  0  0  0  0  0
    0.5044    2.6692    0.0000 C   0  0  0  0  0  0  0  0  0  0  0  0
   -0.2101    3.0817    0.0000 C   0  0  0  0  0  0  0  0  0  0  0  0
   -0.2101    3.9067    0.0000 Cl  0  0  0  0  0  0  0  0  0  0  0  0
   -0.9246    2.6692    0.0000 C   0  0  0  0  0  0  0  0  0  0  0  0
   -1.6391    3.0817    0.0000 Cl  0  0  0  0  0  0  0  0  0  0  0  0
   -0.9246    1.8442    0.0000 C   0  0  0  0  0  0  0  0  0  0  0  0
   -0.2101    1.4317    0.0000 C   0  0  0  0  0  0  0  0  0  0  0  0
   -0.2101    0.6067    0.0000 Cl  0  0  0  0  0  0  0  0  0  0  0  0
    1.2188    1.4317    0.0000 C   0  0  0  0  0  0  0  0  0  0  0  0
    1.2188    0.6067    0.0000 C   0  0  0  0  0  0  0  0  0  0  0  0
    1.9333    0.1942    0.0000 C   0  0  0  0  0  0  0  0  0  0  0  0
    2.6478    0.6067    0.0000 C   0  0  0  0  0  0  0  0  0  0  0  0
    3.3622    0.1942    0.0000 Cl  0  0  0  0  0  0  0  0  0  0  0  0
    2.6478    1.4317    0.0000 C   0  0  0  0  0  0  0  0  0  0  0  0
    1.9333    1.8442    0.0000 C   0  0  0  0  0  0  0  0  0  0  0  0
    1.9333    2.6692    0.0000 Cl  0  0  0  0  0  0  0  0  0  0  0  0
  2  1  1  0  0  0  0
  3  2  2  0  0  0  0
  3  4  1  0  0  0  0
  5  3  1  0  0  0  0
  5  6  1  0  0  0  0
  7  5  2  0  0  0  0
  8  7  1  0  0  0  0
  1  8  2  0  0  0  0
  8  9  1  0  0  0  0
  1 10  1  0  0  0  0
 11 10  1  0  0  0  0
 12 11  2  0  0  0  0
 13 12  1  0  0  0  0
 13 14  1  0  0  0  0
 15 13  2  0  0  0  0
 16 15  1  0  0  0  0
 10 16  2  0  0  0  0
 16 17  1  0  0  0  0
M  END
> <ChemID>
101514

> <CAS>
38380-01-7

> <Original_SMILES>
Clc1cc(Cl)c(cc1)-c1cc(Cl)c(Cl)cc1Cl

> <preferred_name>
2,2',4,4',5-Pentachlorobiphenyl

> <dsstox_substance_id>
DTXSID1073496

> <dsstox_compound_id>
DTXCID0039483

> <qc_level>
Public_High

> <Canonical_QSARr>
ClC1=CC(Cl)=C(C=C1)C1C=C(Cl)C(Cl)=CC=1Cl

> <InChI_Code_QSARr>
InChI=1S/C12H5Cl5/c13-6-1-2-7(9(14)3-6)8-4-11(16)12(17)5-10(8)15/h1-5H

> <InChI Key_QSARr>
LMQJBFRGXHMNOX-UHFFFAOYSA-N

> <Salt_Solvent>


> <Salt_Solvent_ID>
0

> <MPID>
102718

> <HL Reference>
BRUNNER,S ET AL. (1990)

> <HL Temperature>
25

> <LogHL>
-4.107905397309517

> <Tr_1_Tst_0>
1

$$$$
101515
  Mrv171c012241914302D          

 17 18  0  0  0  0            999 V2000
    0.7145    2.0625    0.0000 C   0  0  0  0  0  0  0  0  0  0  0  0
    1.4289    2.4750    0.0000 C   0  0  0  0  0  0  0  0  0  0  0  0
    1.4289    3.3000    0.0000 C   0  0  0  0  0  0  0  0  0  0  0  0
    0.7145    3.7125    0.0000 C   0  0  0  0  0  0  0  0  0  0  0  0
    0.7145    4.5375    0.0000 Cl  0  0  0  0  0  0  0  0  0  0  0  0
   -0.0000    3.3000    0.0000 C   0  0  0  0  0  0  0  0  0  0  0  0
   -0.7145    3.7125    0.0000 Cl  0  0  0  0  0  0  0  0  0  0  0  0
   -0.0000    2.4750    0.0000 C   0  0  0  0  0  0  0  0  0  0  0  0
   -0.7145    2.0625    0.0000 Cl  0  0  0  0  0  0  0  0  0  0  0  0
    0.7145    1.2375    0.0000 C   0  0  0  0  0  0  0  0  0  0  0  0
   -0.0000    0.8250    0.0000 C   0  0  0  0  0  0  0  0  0  0  0  0
   -0.0000    0.0000    0.0000 C   0  0  0  0  0  0  0  0  0  0  0  0
   -0.7145   -0.4125    0.0000 Cl  0  0  0  0  0  0  0  0  0  0  0  0
    0.7145   -0.4125    0.0000 C   0  0  0  0  0  0  0  0  0  0  0  0
    1.4289    0.0000    0.0000 C   0  0  0  0  0  0  0  0  0  0  0  0
    1.4289    0.8250    0.0000 C   0  0  0  0  0  0  0  0  0  0  0  0
    2.1434    1.2375    0.0000 Cl  0  0  0  0  0  0  0  0  0  0  0  0
  2  1  1  0  0  0  0
  3  2  2  0  0  0  0
  4  3  1  0  0  0  0
  4  5  1  0  0  0  0
  6  4  2  0  0  0  0
  6  7  1  0  0  0  0
  8  6  1  0  0  0  0
  1  8  2  0  0  0  0
  8  9  1  0  0  0  0
  1 10  1  0  0  0  0
 11 10  1  0  0  0  0
 12 11  2  0  0  0  0
 12 13  1  0  0  0  0
 14 12  1  0  0  0  0
 15 14  2  0  0  0  0
 16 15  1  0  0  0  0
 10 16  2  0  0  0  0
 16 17  1  0  0  0  0
M  END
> <ChemID>
101515

> <CAS>
38380-02-8

> <Original_SMILES>
Clc1cc(-c2ccc(Cl)c(Cl)c2Cl)c(Cl)cc1

> <preferred_name>
2,2',3,4,5'-Pentachlorobiphenyl

> <dsstox_substance_id>
DTXSID6073497

> <dsstox_compound_id>
DTXCID5039484

> <qc_level>
Public_High

> <Canonical_QSARr>
ClC1=CC(C2C=CC(Cl)=C(Cl)C=2Cl)=C(Cl)C=C1

> <InChI_Code_QSARr>
InChI=1S/C12H5Cl5/c13-6-1-3-9(14)8(5-6)7-2-4-10(15)12(17)11(7)16/h1-5H

> <InChI Key_QSARr>
OPKYDBFRKPQCBS-UHFFFAOYSA-N

> <Salt_Solvent>


> <Salt_Solvent_ID>
0

> <MPID>
102719

> <HL Reference>
BRUNNER,S ET AL. (1990)

> <HL Temperature>
25

> <LogHL>
-4.130768280269022

> <Tr_1_Tst_0>
1

$$$$
101517
  Mrv171c012241914302D          

 18 19  0  0  0  0            999 V2000
    0.3572    1.1688    0.0000 C   0  0  0  0  0  0  0  0  0  0  0  0
   -0.3572    1.5813    0.0000 C   0  0  0  0  0  0  0  0  0  0  0  0
   -0.3572    2.4063    0.0000 Cl  0  0  0  0  0  0  0  0  0  0  0  0
   -1.0717    1.1688    0.0000 C   0  0  0  0  0  0  0  0  0  0  0  0
   -1.0717    0.3438    0.0000 C   0  0  0  0  0  0  0  0  0  0  0  0
   -0.3572   -0.0687    0.0000 C   0  0  0  0  0  0  0  0  0  0  0  0
   -0.3572   -0.8937    0.0000 Cl  0  0  0  0  0  0  0  0  0  0  0  0
    0.3572    0.3438    0.0000 C   0  0  0  0  0  0  0  0  0  0  0  0
    1.0717   -0.0687    0.0000 Cl  0  0  0  0  0  0  0  0  0  0  0  0
    1.0717    1.5813    0.0000 C   0  0  0  0  0  0  0  0  0  0  0  0
    1.7862    1.1688    0.0000 C   0  0  0  0  0  0  0  0  0  0  0  0
    2.5006    1.5813    0.0000 C   0  0  0  0  0  0  0  0  0  0  0  0
    2.5006    2.4063    0.0000 C   0  0  0  0  0  0  0  0  0  0  0  0
    3.2151    2.8188    0.0000 Cl  0  0  0  0  0  0  0  0  0  0  0  0
    1.7862    2.8188    0.0000 C   0  0  0  0  0  0  0  0  0  0  0  0
    1.7862    3.6438    0.0000 Cl  0  0  0  0  0  0  0  0  0  0  0  0
    1.0717    2.4063    0.0000 C   0  0  0  0  0  0  0  0  0  0  0  0
    0.3572    2.8188    0.0000 Cl  0  0  0  0  0  0  0  0  0  0  0  0
  2  1  1  0  0  0  0
  2  3  1  0  0  0  0
  4  2  2  0  0  0  0
  5  4  1  0  0  0  0
  6  5  2  0  0  0  0
  6  7  1  0  0  0  0
  8  6  1  0  0  0  0
  1  8  2  0  0  0  0
  8  9  1  0  0  0  0
  1 10  1  0  0  0  0
 11 10  1  0  0  0  0
 12 11  2  0  0  0  0
 13 12  1  0  0  0  0
 13 14  1  0  0  0  0
 15 13  2  0  0  0  0
 15 16  1  0  0  0  0
 17 15  1  0  0  0  0
 10 17  2  0  0  0  0
 17 18  1  0  0  0  0
M  END
> <ChemID>
101517

> <CAS>
38380-05-1

> <Original_SMILES>
Clc1ccc(Cl)c(-c2ccc(Cl)c(Cl)c2Cl)c1Cl

> <preferred_name>
2,2',3,3',4,6'-Hexachlorobiphenyl

> <dsstox_substance_id>
DTXSID9074141

> <dsstox_compound_id>
DTXCID5039486

> <qc_level>
Public_High

> <Canonical_QSARr>
ClC1C=CC(C2=C(Cl)C(Cl)=CC=C2Cl)=C(Cl)C=1Cl

> <InChI_Code_QSARr>
InChI=1S/C12H4Cl6/c13-6-3-4-7(14)11(17)9(6)5-1-2-8(15)12(18)10(5)16/h1-4H

> <InChI Key_QSARr>
OKBJVIVEFXPEOU-UHFFFAOYSA-N

> <Salt_Solvent>


> <Salt_Solvent_ID>
0

> <MPID>
102720

> <HL Reference>
BRUNNER,S ET AL. (1990)

> <HL Temperature>
25

> <LogHL>
-4.356547323513807

> <Tr_1_Tst_0>
0

$$$$
101518
  Mrv171c012241914302D          

 18 19  0  0  0  0            999 V2000
    0.0000    0.4115    0.0000 C   0  0  0  0  0  0  0  0  0  0  0  0
    0.7145    0.8240    0.0000 C   0  0  0  0  0  0  0  0  0  0  0  0
    0.7145    1.6490    0.0000 C   0  0  0  0  0  0  0  0  0  0  0  0
    0.0000    2.0615    0.0000 C   0  0  0  0  0  0  0  0  0  0  0  0
    0.0000    2.8865    0.0000 Cl  0  0  0  0  0  0  0  0  0  0  0  0
   -0.7145    1.6490    0.0000 C   0  0  0  0  0  0  0  0  0  0  0  0
   -1.4289    2.0615    0.0000 Cl  0  0  0  0  0  0  0  0  0  0  0  0
   -0.7145    0.8240    0.0000 C   0  0  0  0  0  0  0  0  0  0  0  0
   -1.4289    0.4115    0.0000 Cl  0  0  0  0  0  0  0  0  0  0  0  0
    0.0000   -0.4135    0.0000 C   0  0  0  0  0  0  0  0  0  0  0  0
   -0.7145   -0.8260    0.0000 C   0  0  0  0  0  0  0  0  0  0  0  0
   -0.7145   -1.6510    0.0000 C   0  0  0  0  0  0  0  0  0  0  0  0
    0.0000   -2.0635    0.0000 C   0  0  0  0  0  0  0  0  0  0  0  0
    0.0000   -2.8885    0.0000 Cl  0  0  0  0  0  0  0  0  0  0  0  0
    0.7145   -1.6510    0.0000 C   0  0  0  0  0  0  0  0  0  0  0  0
    1.4290   -2.0635    0.0000 Cl  0  0  0  0  0  0  0  0  0  0  0  0
    0.7145   -0.8260    0.0000 C   0  0  0  0  0  0  0  0  0  0  0  0
    1.4290   -0.4135    0.0000 Cl  0  0  0  0  0  0  0  0  0  0  0  0
  2  1  1  0  0  0  0
  3  2  2  0  0  0  0
  4  3  1  0  0  0  0
  4  5  1  0  0  0  0
  6  4  2  0  0  0  0
  6  7  1  0  0  0  0
  8  6  1  0  0  0  0
  1  8  2  0  0  0  0
  8  9  1  0  0  0  0
  1 10  1  0  0  0  0
 11 10  1  0  0  0  0
 12 11  2  0  0  0  0
 13 12  1  0  0  0  0
 13 14  1  0  0  0  0
 15 13  2  0  0  0  0
 15 16  1  0  0  0  0
 17 15  1  0  0  0  0
 10 17  2  0  0  0  0
 17 18  1  0  0  0  0
M  END
> <ChemID>
101518

> <CAS>
38380-07-3

> <Original_SMILES>
Clc1ccc(-c2ccc(Cl)c(Cl)c2Cl)c(Cl)c1Cl

> <preferred_name>
2,2',3,3',4,4'-Hexachlorobiphenyl

> <dsstox_substance_id>
DTXSID50858932

> <dsstox_compound_id>
DTXCID40101

> <qc_level>
DSSTox_High

> <Canonical_QSARr>
ClC1C=CC(C2C=CC(Cl)=C(Cl)C=2Cl)=C(Cl)C=1Cl

> <InChI_Code_QSARr>
InChI=1S/C12H4Cl6/c13-7-3-1-5(9(15)11(7)17)6-2-4-8(14)12(18)10(6)16/h1-4H

> <InChI Key_QSARr>
BTAGRXWGMYTPBY-UHFFFAOYSA-N

> <Salt_Solvent>


> <Salt_Solvent_ID>
0

> <MPID>
102721

> <HL Reference>
BRUNNER,S ET AL. (1990)

> <HL Temperature>
25

> <LogHL>
-4.886056647693146

> <Tr_1_Tst_0>
1

$$$$
101520
  Mrv171c012241914302D          

 18 19  0  0  0  0            999 V2000
    0.3572    1.4438    0.0000 C   0  0  0  0  0  0  0  0  0  0  0  0
   -0.3572    1.8563    0.0000 C   0  0  0  0  0  0  0  0  0  0  0  0
   -0.3572    2.6813    0.0000 Cl  0  0  0  0  0  0  0  0  0  0  0  0
   -1.0717    1.4438    0.0000 C   0  0  0  0  0  0  0  0  0  0  0  0
   -1.0717    0.6188    0.0000 C   0  0  0  0  0  0  0  0  0  0  0  0
   -0.3572    0.2063    0.0000 C   0  0  0  0  0  0  0  0  0  0  0  0
   -0.3572   -0.6187    0.0000 Cl  0  0  0  0  0  0  0  0  0  0  0  0
    0.3572    0.6188    0.0000 C   0  0  0  0  0  0  0  0  0  0  0  0
    1.0717    0.2063    0.0000 Cl  0  0  0  0  0  0  0  0  0  0  0  0
    1.0717    1.8563    0.0000 C   0  0  0  0  0  0  0  0  0  0  0  0
    1.7862    1.4438    0.0000 C   0  0  0  0  0  0  0  0  0  0  0  0
    1.7862    0.6188    0.0000 Cl  0  0  0  0  0  0  0  0  0  0  0  0
    2.5006    1.8563    0.0000 C   0  0  0  0  0  0  0  0  0  0  0  0
    2.5006    2.6813    0.0000 C   0  0  0  0  0  0  0  0  0  0  0  0
    1.7862    3.0938    0.0000 C   0  0  0  0  0  0  0  0  0  0  0  0
    1.7862    3.9188    0.0000 Cl  0  0  0  0  0  0  0  0  0  0  0  0
    1.0717    2.6813    0.0000 C   0  0  0  0  0  0  0  0  0  0  0  0
    0.3572    3.0938    0.0000 Cl  0  0  0  0  0  0  0  0  0  0  0  0
  2  1  1  0  0  0  0
  2  3  1  0  0  0  0
  4  2  2  0  0  0  0
  5  4  1  0  0  0  0
  6  5  2  0  0  0  0
  6  7  1  0  0  0  0
  8  6  1  0  0  0  0
  1  8  2  0  0  0  0
  8  9  1  0  0  0  0
  1 10  1  0  0  0  0
 11 10  1  0  0  0  0
 11 12  1  0  0  0  0
 13 11  2  0  0  0  0
 14 13  1  0  0  0  0
 15 14  2  0  0  0  0
 15 16  1  0  0  0  0
 17 15  1  0  0  0  0
 10 17  2  0  0  0  0
 17 18  1  0  0  0  0
M  END
> <ChemID>
101520

> <CAS>
38411-22-2

> <Original_SMILES>
Clc1ccc(Cl)c(Cl)c1-c1c(Cl)c(Cl)ccc1Cl

> <preferred_name>
2,2',3,3',6,6'-Hexachlorobiphenyl

> <dsstox_substance_id>
DTXSID6073499

> <dsstox_compound_id>
DTXCID9039490

> <qc_level>
Public_High

> <Canonical_QSARr>
ClC1=CC=C(Cl)C(Cl)=C1C1=C(Cl)C(Cl)=CC=C1Cl

> <InChI_Code_QSARr>
InChI=1S/C12H4Cl6/c13-5-1-3-7(15)11(17)9(5)10-6(14)2-4-8(16)12(10)18/h1-4H

> <InChI Key_QSARr>
FZFUUSROAHKTTF-UHFFFAOYSA-N

> <Salt_Solvent>


> <Salt_Solvent_ID>
0

> <MPID>
102722

> <HL Reference>
BRUNNER,S ET AL. (1990)

> <HL Temperature>
25

> <LogHL>
-4.055517327849832

> <Tr_1_Tst_0>
1

$$$$
101521
  Mrv171c012241914302D          

 19 20  0  0  0  0            999 V2000
    0.1504    1.0855    0.0000 C   0  0  0  0  0  0  0  0  0  0  0  0
   -0.5641    1.4980    0.0000 C   0  0  0  0  0  0  0  0  0  0  0  0
   -0.5641    2.3230    0.0000 Cl  0  0  0  0  0  0  0  0  0  0  0  0
   -1.2785    1.0855    0.0000 C   0  0  0  0  0  0  0  0  0  0  0  0
   -1.2785    0.2605    0.0000 C   0  0  0  0  0  0  0  0  0  0  0  0
   -0.5641   -0.1520    0.0000 C   0  0  0  0  0  0  0  0  0  0  0  0
   -0.5641   -0.9770    0.0000 Cl  0  0  0  0  0  0  0  0  0  0  0  0
    0.1504    0.2605    0.0000 C   0  0  0  0  0  0  0  0  0  0  0  0
    0.8649   -0.1520    0.0000 Cl  0  0  0  0  0  0  0  0  0  0  0  0
    0.8649    1.4980    0.0000 C   0  0  0  0  0  0  0  0  0  0  0  0
    1.5793    1.0855    0.0000 C   0  0  0  0  0  0  0  0  0  0  0  0
    2.2938    1.4980    0.0000 C   0  0  0  0  0  0  0  0  0  0  0  0
    3.0083    1.0855    0.0000 Cl  0  0  0  0  0  0  0  0  0  0  0  0
    2.2938    2.3230    0.0000 C   0  0  0  0  0  0  0  0  0  0  0  0
    3.0083    2.7355    0.0000 Cl  0  0  0  0  0  0  0  0  0  0  0  0
    1.5793    2.7355    0.0000 C   0  0  0  0  0  0  0  0  0  0  0  0
    1.5793    3.5605    0.0000 Cl  0  0  0  0  0  0  0  0  0  0  0  0
    0.8649    2.3230    0.0000 C   0  0  0  0  0  0  0  0  0  0  0  0
    0.1504    2.7355    0.0000 Cl  0  0  0  0  0  0  0  0  0  0  0  0
  2  1  1  0  0  0  0
  2  3  1  0  0  0  0
  4  2  2  0  0  0  0
  5  4  1  0  0  0  0
  6  5  2  0  0  0  0
  6  7  1  0  0  0  0
  8  6  1  0  0  0  0
  1  8  2  0  0  0  0
  8  9  1  0  0  0  0
  1 10  1  0  0  0  0
 11 10  1  0  0  0  0
 12 11  2  0  0  0  0
 12 13  1  0  0  0  0
 14 12  1  0  0  0  0
 14 15  1  0  0  0  0
 16 14  2  0  0  0  0
 16 17  1  0  0  0  0
 18 16  1  0  0  0  0
 10 18  2  0  0  0  0
 18 19  1  0  0  0  0
M  END
> <ChemID>
101521

> <CAS>
38411-25-5

> <Original_SMILES>
Clc1c(cc(Cl)c(Cl)c1Cl)-c1c(Cl)c(Cl)ccc1Cl

> <preferred_name>
2,2',3,3',4,5,6'-Heptachlorobiphenyl

> <dsstox_substance_id>
DTXSID4074142

> <dsstox_compound_id>
DTXCID4039491

> <qc_level>
Public_High

> <Canonical_QSARr>
ClC1=C(C=C(Cl)C(Cl)=C1Cl)C1=C(Cl)C(Cl)=CC=C1Cl

> <InChI_Code_QSARr>
InChI=1S/C12H3Cl7/c13-5-1-2-6(14)10(17)8(5)4-3-7(15)11(18)12(19)9(4)16/h1-3H

> <InChI Key_QSARr>
ZDLMBNHYTPHDLF-UHFFFAOYSA-N

> <Salt_Solvent>


> <Salt_Solvent_ID>
0

> <MPID>
102723

> <HL Reference>
BRUNNER,S ET AL. (1990)

> <HL Temperature>
25

> <LogHL>
-4.853871964321755

> <Tr_1_Tst_0>
0

$$$$
101522
  Mrv171c012241914302D          

 15 16  0  0  0  0            999 V2000
    0.5239    1.4025    0.0000 C   0  0  0  0  0  0  0  0  0  0  0  0
   -0.1905    1.8150    0.0000 C   0  0  0  0  0  0  0  0  0  0  0  0
   -0.1905    2.6400    0.0000 Cl  0  0  0  0  0  0  0  0  0  0  0  0
   -0.9050    1.4025    0.0000 C   0  0  0  0  0  0  0  0  0  0  0  0
   -0.9050    0.5775    0.0000 C   0  0  0  0  0  0  0  0  0  0  0  0
   -0.1905    0.1650    0.0000 C   0  0  0  0  0  0  0  0  0  0  0  0
    0.5239    0.5775    0.0000 C   0  0  0  0  0  0  0  0  0  0  0  0
    1.2384    0.1650    0.0000 Cl  0  0  0  0  0  0  0  0  0  0  0  0
    1.2384    1.8150    0.0000 C   0  0  0  0  0  0  0  0  0  0  0  0
    1.9529    1.4025    0.0000 C   0  0  0  0  0  0  0  0  0  0  0  0
    2.6673    1.8150    0.0000 C   0  0  0  0  0  0  0  0  0  0  0  0
    2.6673    2.6400    0.0000 C   0  0  0  0  0  0  0  0  0  0  0  0
    1.9529    3.0525    0.0000 C   0  0  0  0  0  0  0  0  0  0  0  0
    1.2384    2.6400    0.0000 C   0  0  0  0  0  0  0  0  0  0  0  0
    0.5239    3.0525    0.0000 Cl  0  0  0  0  0  0  0  0  0  0  0  0
  2  1  1  0  0  0  0
  2  3  1  0  0  0  0
  4  2  2  0  0  0  0
  5  4  1  0  0  0  0
  6  5  2  0  0  0  0
  7  6  1  0  0  0  0
  1  7  2  0  0  0  0
  7  8  1  0  0  0  0
  1  9  1  0  0  0  0
 10  9  1  0  0  0  0
 11 10  2  0  0  0  0
 12 11  1  0  0  0  0
 13 12  2  0  0  0  0
 14 13  1  0  0  0  0
  9 14  2  0  0  0  0
 14 15  1  0  0  0  0
M  END
> <ChemID>
101522

> <CAS>
38444-73-4

> <Original_SMILES>
Clc1ccccc1-c1c(Cl)cccc1Cl

> <preferred_name>
PCB 019

> <dsstox_substance_id>
DTXSID9074777

> <dsstox_compound_id>
DTXCID6039502

> <qc_level>
Public_High

> <Canonical_QSARr>
ClC1C=CC=CC=1C1C(Cl)=CC=CC=1Cl

> <InChI_Code_QSARr>
InChI=1S/C12H7Cl3/c13-9-5-2-1-4-8(9)12-10(14)6-3-7-11(12)15/h1-7H

> <InChI Key_QSARr>
MVXIJRBBCDLNLX-UHFFFAOYSA-N

> <Salt_Solvent>


> <Salt_Solvent_ID>
0

> <MPID>
102724

> <HL Reference>
BRUNNER,S ET AL. (1990)

> <HL Temperature>
25

> <LogHL>
-3.638272163982408

> <Tr_1_Tst_0>
1

$$$$
101523
  Mrv171c012241914302D          

 15 16  0  0  0  0            999 V2000
    0.2382    1.2375    0.0000 C   0  0  0  0  0  0  0  0  0  0  0  0
   -0.4763    1.6500    0.0000 C   0  0  0  0  0  0  0  0  0  0  0  0
   -0.4763    2.4750    0.0000 Cl  0  0  0  0  0  0  0  0  0  0  0  0
   -1.1908    1.2375    0.0000 C   0  0  0  0  0  0  0  0  0  0  0  0
   -1.1908    0.4125    0.0000 C   0  0  0  0  0  0  0  0  0  0  0  0
   -0.4763    0.0000    0.0000 C   0  0  0  0  0  0  0  0  0  0  0  0
    0.2382    0.4125    0.0000 C   0  0  0  0  0  0  0  0  0  0  0  0
    0.9526    0.0000    0.0000 Cl  0  0  0  0  0  0  0  0  0  0  0  0
    0.9526    1.6500    0.0000 C   0  0  0  0  0  0  0  0  0  0  0  0
    1.6671    1.2375    0.0000 C   0  0  0  0  0  0  0  0  0  0  0  0
    2.3816    1.6500    0.0000 C   0  0  0  0  0  0  0  0  0  0  0  0
    2.3816    2.4750    0.0000 C   0  0  0  0  0  0  0  0  0  0  0  0
    3.0960    2.8875    0.0000 Cl  0  0  0  0  0  0  0  0  0  0  0  0
    1.6671    2.8875    0.0000 C   0  0  0  0  0  0  0  0  0  0  0  0
    0.9526    2.4750    0.0000 C   0  0  0  0  0  0  0  0  0  0  0  0
  2  1  1  0  0  0  0
  2  3  1  0  0  0  0
  4  2  2  0  0  0  0
  5  4  1  0  0  0  0
  6  5  2  0  0  0  0
  7  6  1  0  0  0  0
  1  7  2  0  0  0  0
  7  8  1  0  0  0  0
  1  9  1  0  0  0  0
 10  9  1  0  0  0  0
 11 10  2  0  0  0  0
 12 11  1  0  0  0  0
 12 13  1  0  0  0  0
 14 12  2  0  0  0  0
 15 14  1  0  0  0  0
  9 15  2  0  0  0  0
M  END
> <ChemID>
101523

> <CAS>
38444-77-8

> <Original_SMILES>
Clc1ccc(cc1)-c1c(Cl)cccc1Cl

> <preferred_name>
2,4',6-Trichlorobiphenyl

> <dsstox_substance_id>
DTXSID8073500

> <dsstox_compound_id>
DTXCID6039504

> <qc_level>
Public_High

> <Canonical_QSARr>
ClC1C=CC=C(Cl)C=1C1C=CC(Cl)=CC=1

> <InChI_Code_QSARr>
InChI=1S/C12H7Cl3/c13-9-6-4-8(5-7-9)12-10(14)2-1-3-11(12)15/h1-7H

> <InChI Key_QSARr>
IHIDFKLAWYPTKB-UHFFFAOYSA-N

> <Salt_Solvent>


> <Salt_Solvent_ID>
0

> <MPID>
102725

> <HL Reference>
BRUNNER,S ET AL. (1990)

> <HL Temperature>
25

> <LogHL>
-3.6989700043360196

> <Tr_1_Tst_0>
1

$$$$
101524
  Mrv171c012241914302D          

 15 16  0  0  0  0            999 V2000
    0.9050    1.8425    0.0000 C   0  0  0  0  0  0  0  0  0  0  0  0
    1.6195    1.4300    0.0000 C   0  0  0  0  0  0  0  0  0  0  0  0
    2.3339    1.8425    0.0000 C   0  0  0  0  0  0  0  0  0  0  0  0
    2.3339    2.6675    0.0000 C   0  0  0  0  0  0  0  0  0  0  0  0
    1.6195    3.0800    0.0000 C   0  0  0  0  0  0  0  0  0  0  0  0
    1.6195    3.9050    0.0000 Cl  0  0  0  0  0  0  0  0  0  0  0  0
    0.9050    2.6675    0.0000 C   0  0  0  0  0  0  0  0  0  0  0  0
    0.1905    3.0800    0.0000 Cl  0  0  0  0  0  0  0  0  0  0  0  0
    0.1905    1.4300    0.0000 C   0  0  0  0  0  0  0  0  0  0  0  0
   -0.5240    1.8425    0.0000 C   0  0  0  0  0  0  0  0  0  0  0  0
   -1.2384    1.4300    0.0000 C   0  0  0  0  0  0  0  0  0  0  0  0
   -1.2384    0.6050    0.0000 C   0  0  0  0  0  0  0  0  0  0  0  0
   -0.5240    0.1925    0.0000 C   0  0  0  0  0  0  0  0  0  0  0  0
    0.1905    0.6050    0.0000 C   0  0  0  0  0  0  0  0  0  0  0  0
    0.9050    0.1925    0.0000 Cl  0  0  0  0  0  0  0  0  0  0  0  0
  2  1  1  0  0  0  0
  3  2  2  0  0  0  0
  4  3  1  0  0  0  0
  5  4  2  0  0  0  0
  5  6  1  0  0  0  0
  7  5  1  0  0  0  0
  1  7  2  0  0  0  0
  7  8  1  0  0  0  0
  1  9  1  0  0  0  0
 10  9  1  0  0  0  0
 11 10  2  0  0  0  0
 12 11  1  0  0  0  0
 13 12  2  0  0  0  0
 14 13  1  0  0  0  0
  9 14  2  0  0  0  0
 14 15  1  0  0  0  0
M  END
> <ChemID>
101524

> <CAS>
38444-78-9

> <Original_SMILES>
Clc1ccccc1-c1cccc(Cl)c1Cl

> <preferred_name>
2,2',3-Trichlorobiphenyl

> <dsstox_substance_id>
DTXSID3073501

> <dsstox_compound_id>
DTXCID1039505

> <qc_level>
Public_High

> <Canonical_QSARr>
ClC1C=CC=CC=1C1C=CC=C(Cl)C=1Cl

> <InChI_Code_QSARr>
InChI=1S/C12H7Cl3/c13-10-6-2-1-4-8(10)9-5-3-7-11(14)12(9)15/h1-7H

> <InChI Key_QSARr>
XVIZMMSINIOIQP-UHFFFAOYSA-N

> <Salt_Solvent>


> <Salt_Solvent_ID>
0

> <MPID>
102726

> <HL Reference>
BRUNNER,S ET AL. (1990)

> <HL Temperature>
25

> <LogHL>
-3.6989700043360196

> <Tr_1_Tst_0>
1

$$$$
101525
  Mrv171c012241914302D          

 15 16  0  0  0  0            999 V2000
    1.0479    1.7600    0.0000 C   0  0  0  0  0  0  0  0  0  0  0  0
    1.7624    1.3475    0.0000 C   0  0  0  0  0  0  0  0  0  0  0  0
    2.4768    1.7600    0.0000 C   0  0  0  0  0  0  0  0  0  0  0  0
    2.4768    2.5850    0.0000 C   0  0  0  0  0  0  0  0  0  0  0  0
    1.7624    2.9975    0.0000 C   0  0  0  0  0  0  0  0  0  0  0  0
    1.7624    3.8225    0.0000 Cl  0  0  0  0  0  0  0  0  0  0  0  0
    1.0479    2.5850    0.0000 C   0  0  0  0  0  0  0  0  0  0  0  0
    0.3334    1.3475    0.0000 C   0  0  0  0  0  0  0  0  0  0  0  0
   -0.3811    1.7600    0.0000 C   0  0  0  0  0  0  0  0  0  0  0  0
   -1.0955    1.3475    0.0000 C   0  0  0  0  0  0  0  0  0  0  0  0
   -1.8100    1.7600    0.0000 Cl  0  0  0  0  0  0  0  0  0  0  0  0
   -1.0955    0.5225    0.0000 C   0  0  0  0  0  0  0  0  0  0  0  0
   -0.3811    0.1100    0.0000 C   0  0  0  0  0  0  0  0  0  0  0  0
    0.3334    0.5225    0.0000 C   0  0  0  0  0  0  0  0  0  0  0  0
    1.0479    0.1100    0.0000 Cl  0  0  0  0  0  0  0  0  0  0  0  0
  2  1  1  0  0  0  0
  3  2  2  0  0  0  0
  4  3  1  0  0  0  0
  5  4  2  0  0  0  0
  5  6  1  0  0  0  0
  7  5  1  0  0  0  0
  1  7  2  0  0  0  0
  1  8  1  0  0  0  0
  9  8  1  0  0  0  0
 10  9  2  0  0  0  0
 10 11  1  0  0  0  0
 12 10  1  0  0  0  0
 13 12  2  0  0  0  0
 14 13  1  0  0  0  0
  8 14  2  0  0  0  0
 14 15  1  0  0  0  0
M  END
> <ChemID>
101525

> <CAS>
38444-81-4

> <Original_SMILES>
Clc1cc(-c2cc(Cl)ccc2)c(Cl)cc1

> <preferred_name>
PCB 026

> <dsstox_substance_id>
DTXSID4074778

> <dsstox_compound_id>
DTXCID6039506

> <qc_level>
Public_High

> <Canonical_QSARr>
ClC1=CC(C2=CC(Cl)=CC=C2)=C(Cl)C=C1

> <InChI_Code_QSARr>
InChI=1S/C12H7Cl3/c13-9-3-1-2-8(6-9)11-7-10(14)4-5-12(11)15/h1-7H

> <InChI Key_QSARr>
ONNCPBRWFSKDMQ-UHFFFAOYSA-N

> <Salt_Solvent>


> <Salt_Solvent_ID>
0

> <MPID>
102727

> <HL Reference>
BRUNNER,S ET AL. (1990)

> <HL Temperature>
25

> <LogHL>
-3.6989700043360196

> <Tr_1_Tst_0>
0

$$$$
101526
  Mrv171c012241914302D          

 15 16  0  0  0  0            999 V2000
    1.1431    1.9250    0.0000 C   0  0  0  0  0  0  0  0  0  0  0  0
    1.8576    1.5125    0.0000 C   0  0  0  0  0  0  0  0  0  0  0  0
    2.5721    1.9250    0.0000 C   0  0  0  0  0  0  0  0  0  0  0  0
    2.5721    2.7500    0.0000 C   0  0  0  0  0  0  0  0  0  0  0  0
    1.8576    3.1625    0.0000 C   0  0  0  0  0  0  0  0  0  0  0  0
    1.8576    3.9875    0.0000 Cl  0  0  0  0  0  0  0  0  0  0  0  0
    1.1431    2.7500    0.0000 C   0  0  0  0  0  0  0  0  0  0  0  0
    0.4287    1.5125    0.0000 C   0  0  0  0  0  0  0  0  0  0  0  0
   -0.2858    1.9250    0.0000 C   0  0  0  0  0  0  0  0  0  0  0  0
   -1.0003    1.5125    0.0000 C   0  0  0  0  0  0  0  0  0  0  0  0
   -1.0003    0.6875    0.0000 C   0  0  0  0  0  0  0  0  0  0  0  0
   -0.2858    0.2750    0.0000 C   0  0  0  0  0  0  0  0  0  0  0  0
   -0.2858   -0.5500    0.0000 Cl  0  0  0  0  0  0  0  0  0  0  0  0
    0.4287    0.6875    0.0000 C   0  0  0  0  0  0  0  0  0  0  0  0
    1.1431    0.2750    0.0000 Cl  0  0  0  0  0  0  0  0  0  0  0  0
  2  1  1  0  0  0  0
  3  2  2  0  0  0  0
  4  3  1  0  0  0  0
  5  4  2  0  0  0  0
  5  6  1  0  0  0  0
  7  5  1  0  0  0  0
  1  7  2  0  0  0  0
  1  8  1  0  0  0  0
  9  8  1  0  0  0  0
 10  9  2  0  0  0  0
 11 10  1  0  0  0  0
 12 11  2  0  0  0  0
 12 13  1  0  0  0  0
 14 12  1  0  0  0  0
  8 14  2  0  0  0  0
 14 15  1  0  0  0  0
M  END
> <ChemID>
101526

> <CAS>
38444-84-7

> <Original_SMILES>
Clc1cc(ccc1)-c1cccc(Cl)c1Cl

> <preferred_name>
2,3,3'-Trichlorobiphenyl

> <dsstox_substance_id>
DTXSID8073502

> <dsstox_compound_id>
DTXCID1039507

> <qc_level>
Public_High

> <Canonical_QSARr>
ClC1C=C(C=CC=1)C1C=CC=C(Cl)C=1Cl

> <InChI_Code_QSARr>
InChI=1S/C12H7Cl3/c13-9-4-1-3-8(7-9)10-5-2-6-11(14)12(10)15/h1-7H

> <InChI Key_QSARr>
SXHLTVKPNQVZGL-UHFFFAOYSA-N

> <Salt_Solvent>


> <Salt_Solvent_ID>
0

> <MPID>
102728

> <HL Reference>
BRUNNER,S ET AL. (1990)

> <HL Temperature>
25

> <LogHL>
-3.7958800173440763

> <Tr_1_Tst_0>
1

$$$$
101527
  Mrv171c012241914302D          

 15 16  0  0  0  0            999 V2000
    0.1586   -0.5771    0.0000 C   0  0  0  0  0  0  0  0  0  0  0  0
   -0.5559   -0.1646    0.0000 C   0  0  0  0  0  0  0  0  0  0  0  0
   -0.5559    0.6604    0.0000 Cl  0  0  0  0  0  0  0  0  0  0  0  0
   -1.2704   -0.5771    0.0000 C   0  0  0  0  0  0  0  0  0  0  0  0
   -1.9848   -0.1646    0.0000 Cl  0  0  0  0  0  0  0  0  0  0  0  0
   -1.2704   -1.4021    0.0000 C   0  0  0  0  0  0  0  0  0  0  0  0
   -0.5559   -1.8146    0.0000 C   0  0  0  0  0  0  0  0  0  0  0  0
    0.1586   -1.4021    0.0000 C   0  0  0  0  0  0  0  0  0  0  0  0
    0.8730   -0.1646    0.0000 C   0  0  0  0  0  0  0  0  0  0  0  0
    1.5875   -0.5771    0.0000 C   0  0  0  0  0  0  0  0  0  0  0  0
    2.3020   -0.1646    0.0000 C   0  0  0  0  0  0  0  0  0  0  0  0
    2.3020    0.6604    0.0000 C   0  0  0  0  0  0  0  0  0  0  0  0
    3.0165    1.0729    0.0000 Cl  0  0  0  0  0  0  0  0  0  0  0  0
    1.5875    1.0729    0.0000 C   0  0  0  0  0  0  0  0  0  0  0  0
    0.8730    0.6604    0.0000 C   0  0  0  0  0  0  0  0  0  0  0  0
  2  1  2  0  0  0  0
  2  3  1  0  0  0  0
  4  2  1  0  0  0  0
  4  5  1  0  0  0  0
  6  4  2  0  0  0  0
  7  6  1  0  0  0  0
  8  7  2  0  0  0  0
  1  8  1  0  0  0  0
  1  9  1  0  0  0  0
 10  9  1  0  0  0  0
 11 10  2  0  0  0  0
 12 11  1  0  0  0  0
 12 13  1  0  0  0  0
 14 12  2  0  0  0  0
 15 14  1  0  0  0  0
  9 15  2  0  0  0  0
M  END
> <ChemID>
101527

> <CAS>
38444-85-8

> <Original_SMILES>
Clc1ccc(cc1)-c1cccc(Cl)c1Cl

> <preferred_name>
2,3,4'-Trichlorobiphenyl

> <dsstox_substance_id>
DTXSID7091549

> <dsstox_compound_id>
DTXCID9065231

> <qc_level>
DSSTox_Low

> <Canonical_QSARr>
ClC1C=CC(=CC=1)C1C=CC=C(Cl)C=1Cl

> <InChI_Code_QSARr>
InChI=1S/C12H7Cl3/c13-9-6-4-8(5-7-9)10-2-1-3-11(14)12(10)15/h1-7H

> <InChI Key_QSARr>
ZMHWQAHZKUPENF-UHFFFAOYSA-N

> <Salt_Solvent>


> <Salt_Solvent_ID>
0

> <MPID>
102729

> <HL Reference>
BRUNNER,S ET AL. (1990)

> <HL Temperature>
25

> <LogHL>
-3.8538719643217614

> <Tr_1_Tst_0>
1

$$$$
101528
  Mrv171c012241914302D          

 15 16  0  0  0  0            999 V2000
    4.1368   -2.2132    0.0000 C   0  0  0  0  0  0  0  0  0  0  0  0
    4.8512   -1.8007    0.0000 C   0  0  0  0  0  0  0  0  0  0  0  0
    4.8512   -0.9757    0.0000 C   0  0  0  0  0  0  0  0  0  0  0  0
    4.1368   -0.5632    0.0000 C   0  0  0  0  0  0  0  0  0  0  0  0
    4.1368    0.2618    0.0000 Cl  0  0  0  0  0  0  0  0  0  0  0  0
    3.4223   -0.9757    0.0000 C   0  0  0  0  0  0  0  0  0  0  0  0
    2.7078   -0.5632    0.0000 Cl  0  0  0  0  0  0  0  0  0  0  0  0
    3.4223   -1.8007    0.0000 C   0  0  0  0  0  0  0  0  0  0  0  0
    4.1368   -3.0382    0.0000 C   0  0  0  0  0  0  0  0  0  0  0  0
    3.4223   -3.4507    0.0000 C   0  0  0  0  0  0  0  0  0  0  0  0
    3.4223   -4.2757    0.0000 C   0  0  0  0  0  0  0  0  0  0  0  0
    4.1368   -4.6882    0.0000 C   0  0  0  0  0  0  0  0  0  0  0  0
    4.8512   -4.2757    0.0000 C   0  0  0  0  0  0  0  0  0  0  0  0
    4.8512   -3.4507    0.0000 C   0  0  0  0  0  0  0  0  0  0  0  0
    5.5657   -3.0382    0.0000 Cl  0  0  0  0  0  0  0  0  0  0  0  0
  2  1  1  0  0  0  0
  3  2  2  0  0  0  0
  4  3  1  0  0  0  0
  4  5  1  0  0  0  0
  6  4  2  0  0  0  0
  6  7  1  0  0  0  0
  8  6  1  0  0  0  0
  1  8  2  0  0  0  0
  1  9  1  0  0  0  0
 10  9  1  0  0  0  0
 11 10  2  0  0  0  0
 12 11  1  0  0  0  0
 13 12  2  0  0  0  0
 14 13  1  0  0  0  0
  9 14  2  0  0  0  0
 14 15  1  0  0  0  0
M  END
> <ChemID>
101528

> <CAS>
38444-86-9

> <Original_SMILES>
Clc1cc(ccc1Cl)-c1ccccc1Cl

> <preferred_name>
2',3,4-Trichlorobiphenyl

> <dsstox_substance_id>
DTXSID8040303

> <dsstox_compound_id>
DTXCID6020303

> <qc_level>
DSSTox_Low

> <Canonical_QSARr>
ClC1C=C(C=CC=1Cl)C1C=CC=CC=1Cl

> <InChI_Code_QSARr>
InChI=1S/C12H7Cl3/c13-10-4-2-1-3-9(10)8-5-6-11(14)12(15)7-8/h1-7H

> <InChI Key_QSARr>
RIMXLXBUOQMDHV-UHFFFAOYSA-N

> <Salt_Solvent>


> <Salt_Solvent_ID>
0

> <MPID>
102730

> <HL Reference>
BRUNNER,S ET AL. (1990)

> <HL Temperature>
25

> <LogHL>
-3.7958800173440763

> <Tr_1_Tst_0>
1

$$$$
101529
  Mrv171c012241914302D          

 15 16  0  0  0  0            999 V2000
    0.2386   -0.3716    0.0000 C   0  0  0  0  0  0  0  0  0  0  0  0
   -0.4759    0.0409    0.0000 C   0  0  0  0  0  0  0  0  0  0  0  0
   -0.4759    0.8659    0.0000 C   0  0  0  0  0  0  0  0  0  0  0  0
   -1.1904    1.2784    0.0000 C   0  0  0  0  0  0  0  0  0  0  0  0
   -1.1904    2.1034    0.0000 Cl  0  0  0  0  0  0  0  0  0  0  0  0
   -1.9049    0.8659    0.0000 C   0  0  0  0  0  0  0  0  0  0  0  0
   -1.9049    0.0409    0.0000 C   0  0  0  0  0  0  0  0  0  0  0  0
   -2.6193   -0.3716    0.0000 Cl  0  0  0  0  0  0  0  0  0  0  0  0
   -1.1904   -0.3716    0.0000 C   0  0  0  0  0  0  0  0  0  0  0  0
    0.2386   -1.1966    0.0000 C   0  0  0  0  0  0  0  0  0  0  0  0
    0.9530   -1.6091    0.0000 C   0  0  0  0  0  0  0  0  0  0  0  0
    1.6675   -1.1966    0.0000 C   0  0  0  0  0  0  0  0  0  0  0  0
    1.6675   -0.3716    0.0000 C   0  0  0  0  0  0  0  0  0  0  0  0
    2.3820    0.0409    0.0000 Cl  0  0  0  0  0  0  0  0  0  0  0  0
    0.9530    0.0409    0.0000 C   0  0  0  0  0  0  0  0  0  0  0  0
  1  2  1  0  0  0  0
  3  2  2  0  0  0  0
  4  3  1  0  0  0  0
  4  5  1  0  0  0  0
  6  4  2  0  0  0  0
  7  6  1  0  0  0  0
  7  8  1  0  0  0  0
  9  7  2  0  0  0  0
  2  9  1  0  0  0  0
 10  1  2  0  0  0  0
 11 10  1  0  0  0  0
 12 11  2  0  0  0  0
 13 12  1  0  0  0  0
 13 14  1  0  0  0  0
 15 13  2  0  0  0  0
  1 15  1  0  0  0  0
M  END
> <ChemID>
101529

> <CAS>
38444-87-0

> <Original_SMILES>
Clc1cc(ccc1)-c1cc(Cl)cc(Cl)c1

> <preferred_name>
3,3',5-Trichlorobiphenyl

> <dsstox_substance_id>
DTXSID50858937

> <dsstox_compound_id>
DTXCID503883

> <qc_level>
DSSTox_Low

> <Canonical_QSARr>
ClC1=CC(=CC(Cl)=C1)C1C=C(Cl)C=CC=1

> <InChI_Code_QSARr>
InChI=1S/C12H7Cl3/c13-10-3-1-2-8(4-10)9-5-11(14)7-12(15)6-9/h1-7H

> <InChI Key_QSARr>
RIBGNAJQTOXRDK-UHFFFAOYSA-N

> <Salt_Solvent>


> <Salt_Solvent_ID>
0

> <MPID>
102731

> <HL Reference>
BRUNNER,S ET AL. (1990)

> <HL Temperature>
25

> <LogHL>
-3.7695510786217246

> <Tr_1_Tst_0>
0

$$$$
101530
  Mrv171c012241914302D          

 15 16  0  0  0  0            999 V2000
    2.8280   -1.0600    0.0000 C   0  0  0  0  0  0  0  0  0  0  0  0
    3.5424   -0.6475    0.0000 C   0  0  0  0  0  0  0  0  0  0  0  0
    3.5424    0.1775    0.0000 C   0  0  0  0  0  0  0  0  0  0  0  0
    2.8280    0.5900    0.0000 C   0  0  0  0  0  0  0  0  0  0  0  0
    2.8280    1.4150    0.0000 Cl  0  0  0  0  0  0  0  0  0  0  0  0
    2.1135    0.1775    0.0000 C   0  0  0  0  0  0  0  0  0  0  0  0
    1.3990    0.5900    0.0000 Cl  0  0  0  0  0  0  0  0  0  0  0  0
    2.1135   -0.6475    0.0000 C   0  0  0  0  0  0  0  0  0  0  0  0
    2.8280   -1.8850    0.0000 C   0  0  0  0  0  0  0  0  0  0  0  0
    2.1135   -2.2975    0.0000 C   0  0  0  0  0  0  0  0  0  0  0  0
    2.1135   -3.1225    0.0000 C   0  0  0  0  0  0  0  0  0  0  0  0
    2.8280   -3.5350    0.0000 C   0  0  0  0  0  0  0  0  0  0  0  0
    2.8280   -4.3600    0.0000 Cl  0  0  0  0  0  0  0  0  0  0  0  0
    3.5424   -3.1225    0.0000 C   0  0  0  0  0  0  0  0  0  0  0  0
    3.5424   -2.2975    0.0000 C   0  0  0  0  0  0  0  0  0  0  0  0
  2  1  1  0  0  0  0
  3  2  2  0  0  0  0
  4  3  1  0  0  0  0
  4  5  1  0  0  0  0
  6  4  2  0  0  0  0
  6  7  1  0  0  0  0
  8  6  1  0  0  0  0
  1  8  2  0  0  0  0
  1  9  1  0  0  0  0
 10  9  1  0  0  0  0
 11 10  2  0  0  0  0
 12 11  1  0  0  0  0
 12 13  1  0  0  0  0
 14 12  2  0  0  0  0
 15 14  1  0  0  0  0
  9 15  2  0  0  0  0
M  END
> <ChemID>
101530

> <CAS>
38444-90-5

> <Original_SMILES>
Clc1ccc(cc1)-c1cc(Cl)c(Cl)cc1

> <preferred_name>


> <dsstox_substance_id>
DTXSID00865914

> <dsstox_compound_id>
DTXCID80814268

> <qc_level>


> <Canonical_QSARr>
ClC1C=CC(=CC=1)C1=CC(Cl)=C(Cl)C=C1

> <InChI_Code_QSARr>
InChI=1S/C12H7Cl3/c13-10-4-1-8(2-5-10)9-3-6-11(14)12(15)7-9/h1-7H

> <InChI Key_QSARr>
YZANRISAORXTHU-UHFFFAOYSA-N

> <Salt_Solvent>


> <Salt_Solvent_ID>
0

> <MPID>
102732

> <HL Reference>
BRUNNER,S ET AL. (1990)

> <HL Temperature>
25

> <LogHL>
-3.9999999999999987

> <Tr_1_Tst_0>
1

$$$$
101531
  Mrv171c012241914302D          

 16 17  0  0  0  0            999 V2000
    1.0717    1.8563    0.0000 C   0  0  0  0  0  0  0  0  0  0  0  0
    1.7862    1.4438    0.0000 C   0  0  0  0  0  0  0  0  0  0  0  0
    2.5006    1.8563    0.0000 C   0  0  0  0  0  0  0  0  0  0  0  0
    2.5006    2.6813    0.0000 C   0  0  0  0  0  0  0  0  0  0  0  0
    1.7862    3.0938    0.0000 C   0  0  0  0  0  0  0  0  0  0  0  0
    1.7862    3.9188    0.0000 Cl  0  0  0  0  0  0  0  0  0  0  0  0
    1.0717    2.6813    0.0000 C   0  0  0  0  0  0  0  0  0  0  0  0
    0.3572    3.0938    0.0000 Cl  0  0  0  0  0  0  0  0  0  0  0  0
    0.3572    1.4438    0.0000 C   0  0  0  0  0  0  0  0  0  0  0  0
   -0.3572    1.8563    0.0000 C   0  0  0  0  0  0  0  0  0  0  0  0
   -1.0717    1.4438    0.0000 C   0  0  0  0  0  0  0  0  0  0  0  0
   -1.0717    0.6188    0.0000 C   0  0  0  0  0  0  0  0  0  0  0  0
   -0.3572    0.2063    0.0000 C   0  0  0  0  0  0  0  0  0  0  0  0
   -0.3572   -0.6187    0.0000 Cl  0  0  0  0  0  0  0  0  0  0  0  0
    0.3572    0.6188    0.0000 C   0  0  0  0  0  0  0  0  0  0  0  0
    1.0717    0.2063    0.0000 Cl  0  0  0  0  0  0  0  0  0  0  0  0
  2  1  1  0  0  0  0
  3  2  2  0  0  0  0
  4  3  1  0  0  0  0
  5  4  2  0  0  0  0
  5  6  1  0  0  0  0
  7  5  1  0  0  0  0
  1  7  2  0  0  0  0
  7  8  1  0  0  0  0
  1  9  1  0  0  0  0
 10  9  1  0  0  0  0
 11 10  2  0  0  0  0
 12 11  1  0  0  0  0
 13 12  2  0  0  0  0
 13 14  1  0  0  0  0
 15 13  1  0  0  0  0
  9 15  2  0  0  0  0
 15 16  1  0  0  0  0
M  END
> <ChemID>
101531

> <CAS>
38444-93-8

> <Original_SMILES>
Clc1cccc(-c2cccc(Cl)c2Cl)c1Cl

> <preferred_name>
2,2',3,3'-Tetrachlorobiphenyl

> <dsstox_substance_id>
DTXSID3073503

> <dsstox_compound_id>
DTXCID6039508

> <qc_level>
Public_High

> <Canonical_QSARr>
ClC1=CC=CC(C2C=CC=C(Cl)C=2Cl)=C1Cl

> <InChI_Code_QSARr>
InChI=1S/C12H6Cl4/c13-9-5-1-3-7(11(9)15)8-4-2-6-10(14)12(8)16/h1-6H

> <InChI Key_QSARr>
VTLYHLREPCPDKX-UHFFFAOYSA-N

> <Salt_Solvent>


> <Salt_Solvent_ID>
0

> <MPID>
102733

> <HL Reference>
BRUNNER,S ET AL. (1990)

> <HL Temperature>
25

> <LogHL>
-3.9999999999999987

> <Tr_1_Tst_0>
1

$$$$
101539
  Mrv171c012241914302D          

 17 19  0  0  0  0            999 V2000
    5.1158    1.6492    0.0000 Cl  0  0  0  0  0  0  0  0  0  0  0  0
    5.1158    0.8242    0.0000 C   0  0  0  0  0  0  0  0  0  0  0  0
    5.8303    0.4117    0.0000 C   0  0  0  0  0  0  0  0  0  0  0  0
    6.5447    0.8242    0.0000 Cl  0  0  0  0  0  0  0  0  0  0  0  0
    5.8303   -0.4133    0.0000 C   0  0  0  0  0  0  0  0  0  0  0  0
    5.1158   -0.8258    0.0000 C   0  0  0  0  0  0  0  0  0  0  0  0
    5.1158   -1.6508    0.0000 Cl  0  0  0  0  0  0  0  0  0  0  0  0
    4.4013   -0.4133    0.0000 C   0  0  0  0  0  0  0  0  0  0  0  0
    4.4013    0.4117    0.0000 C   0  0  0  0  0  0  0  0  0  0  0  0
    3.6868    0.8242    0.0000 O   0  0  0  0  0  0  0  0  0  0  0  0
    2.9724    0.4117    0.0000 C   0  0  0  0  0  0  0  0  0  0  0  0
    2.2579    0.8242    0.0000 C   0  0  0  0  0  0  0  0  0  0  0  0
    1.5434    0.4117    0.0000 C   0  0  0  0  0  0  0  0  0  0  0  0
    1.5434   -0.4133    0.0000 C   0  0  0  0  0  0  0  0  0  0  0  0
    2.2579   -0.8258    0.0000 C   0  0  0  0  0  0  0  0  0  0  0  0
    2.9724   -0.4133    0.0000 C   0  0  0  0  0  0  0  0  0  0  0  0
    3.6868   -0.8258    0.0000 O   0  0  0  0  0  0  0  0  0  0  0  0
  1  2  1  0  0  0  0
  3  2  2  0  0  0  0
  3  4  1  0  0  0  0
  5  3  1  0  0  0  0
  6  5  2  0  0  0  0
  6  7  1  0  0  0  0
  8  6  1  0  0  0  0
  8  9  2  0  0  0  0
  2  9  1  0  0  0  0
  9 10  1  0  0  0  0
 10 11  1  0  0  0  0
 12 11  2  0  0  0  0
 13 12  1  0  0  0  0
 14 13  2  0  0  0  0
 15 14  1  0  0  0  0
 16 15  2  0  0  0  0
 11 16  1  0  0  0  0
 16 17  1  0  0  0  0
 17  8  1  0  0  0  0
M  END
> <ChemID>
101539

> <CAS>
39227-58-2

> <Original_SMILES>
Clc1cc(Cl)c(Cl)c2Oc3ccccc3Oc12

> <preferred_name>
1,2,4-Trichlorodibenzo-1,4-dioxin

> <dsstox_substance_id>
DTXSID50192489

> <dsstox_compound_id>
DTXCID10114980

> <qc_level>
Public_Medium

> <Canonical_QSARr>
ClC1C=C(Cl)C2OC3=CC=CC=C3OC=2C=1Cl

> <InChI_Code_QSARr>
InChI=1S/C12H5Cl3O2/c13-6-5-7(14)11-12(10(6)15)17-9-4-2-1-3-8(9)16-11/h1-5H

> <InChI Key_QSARr>
HRVUKLBFRPWXPJ-UHFFFAOYSA-N

> <Salt_Solvent>


> <Salt_Solvent_ID>
0

> <MPID>
102734

> <HL Reference>
SANTL,H ET AL. (1994)

> <HL Temperature>
25

> <LogHL>
-4.444905551421662

> <Tr_1_Tst_0>
1

$$$$
101543
  Mrv171c012241914302D          

 18 19  0  0  0  0            999 V2000
    0.9526   -1.1917    0.0000 C   0  0  0  0  0  0  0  0  0  0  0  0
    0.2381   -0.7792    0.0000 C   0  0  0  0  0  0  0  0  0  0  0  0
    0.2381    0.0458    0.0000 C   0  0  0  0  0  0  0  0  0  0  0  0
   -0.4763    0.4583    0.0000 C   0  0  0  0  0  0  0  0  0  0  0  0
   -0.4763    1.2833    0.0000 Cl  0  0  0  0  0  0  0  0  0  0  0  0
   -1.1908    0.0458    0.0000 C   0  0  0  0  0  0  0  0  0  0  0  0
   -1.1908   -0.7792    0.0000 C   0  0  0  0  0  0  0  0  0  0  0  0
   -1.9053   -1.1917    0.0000 Cl  0  0  0  0  0  0  0  0  0  0  0  0
   -0.4763   -1.1917    0.0000 C   0  0  0  0  0  0  0  0  0  0  0  0
    0.9526   -2.0167    0.0000 C   0  0  0  0  0  0  0  0  0  0  0  0
    1.6671   -2.4292    0.0000 C   0  0  0  0  0  0  0  0  0  0  0  0
    1.6671   -3.2542    0.0000 Cl  0  0  0  0  0  0  0  0  0  0  0  0
    2.3816   -2.0167    0.0000 C   0  0  0  0  0  0  0  0  0  0  0  0
    3.0960   -2.4292    0.0000 Cl  0  0  0  0  0  0  0  0  0  0  0  0
    2.3816   -1.1917    0.0000 C   0  0  0  0  0  0  0  0  0  0  0  0
    3.0960   -0.7792    0.0000 Cl  0  0  0  0  0  0  0  0  0  0  0  0
    1.6671   -0.7792    0.0000 C   0  0  0  0  0  0  0  0  0  0  0  0
    1.6671    0.0458    0.0000 Cl  0  0  0  0  0  0  0  0  0  0  0  0
  1  2  1  0  0  0  0
  3  2  1  0  0  0  0
  4  3  2  0  0  0  0
  4  5  1  0  0  0  0
  6  4  1  0  0  0  0
  7  6  2  0  0  0  0
  7  8  1  0  0  0  0
  9  7  1  0  0  0  0
  2  9  2  0  0  0  0
 10  1  1  0  0  0  0
 11 10  2  0  0  0  0
 11 12  1  0  0  0  0
 13 11  1  0  0  0  0
 13 14  1  0  0  0  0
 15 13  2  0  0  0  0
 15 16  1  0  0  0  0
 17 15  1  0  0  0  0
  1 17  2  0  0  0  0
 17 18  1  0  0  0  0
M  END
> <ChemID>
101543

> <CAS>
39635-35-3

> <Original_SMILES>
Clc1cc(-c2cc(Cl)cc(Cl)c2)c(Cl)c(Cl)c1Cl

> <preferred_name>
2,3,3',4,5,5'-Hexachlorobiphenyl

> <dsstox_substance_id>
DTXSID4074146

> <dsstox_compound_id>
DTXCID8039663

> <qc_level>
Public_High

> <Canonical_QSARr>
ClC1=CC(C2C=C(Cl)C=C(Cl)C=2)=C(Cl)C(Cl)=C1Cl

> <InChI_Code_QSARr>
InChI=1S/C12H4Cl6/c13-6-1-5(2-7(14)3-6)8-4-9(15)11(17)12(18)10(8)16/h1-4H

> <InChI Key_QSARr>
YZKLGRAIIIGOHB-UHFFFAOYSA-N

> <Salt_Solvent>


> <Salt_Solvent_ID>
0

> <MPID>
102735

> <HL Reference>
BRUNNER,S ET AL. (1990)

> <HL Temperature>
25

> <LogHL>
-4.698970004336025

> <Tr_1_Tst_0>
0

$$$$
101545
  Mrv171c012241914302D          

 20 21  0  0  0  0            999 V2000
    0.2858    1.5675    0.0000 C   0  0  0  0  0  0  0  0  0  0  0  0
   -0.4287    1.9800    0.0000 C   0  0  0  0  0  0  0  0  0  0  0  0
   -0.4287    2.8050    0.0000 Cl  0  0  0  0  0  0  0  0  0  0  0  0
   -1.1432    1.5675    0.0000 C   0  0  0  0  0  0  0  0  0  0  0  0
   -1.1432    0.7425    0.0000 C   0  0  0  0  0  0  0  0  0  0  0  0
   -1.8576    0.3300    0.0000 Cl  0  0  0  0  0  0  0  0  0  0  0  0
   -0.4287    0.3300    0.0000 C   0  0  0  0  0  0  0  0  0  0  0  0
   -0.4287   -0.4950    0.0000 Cl  0  0  0  0  0  0  0  0  0  0  0  0
    0.2858    0.7425    0.0000 C   0  0  0  0  0  0  0  0  0  0  0  0
    1.0003    0.3300    0.0000 Cl  0  0  0  0  0  0  0  0  0  0  0  0
    1.0003    1.9800    0.0000 C   0  0  0  0  0  0  0  0  0  0  0  0
    1.7147    1.5675    0.0000 C   0  0  0  0  0  0  0  0  0  0  0  0
    1.7147    0.7425    0.0000 Cl  0  0  0  0  0  0  0  0  0  0  0  0
    2.4292    1.9800    0.0000 C   0  0  0  0  0  0  0  0  0  0  0  0
    3.1437    1.5675    0.0000 Cl  0  0  0  0  0  0  0  0  0  0  0  0
    2.4292    2.8050    0.0000 C   0  0  0  0  0  0  0  0  0  0  0  0
    1.7147    3.2175    0.0000 C   0  0  0  0  0  0  0  0  0  0  0  0
    1.7147    4.0425    0.0000 Cl  0  0  0  0  0  0  0  0  0  0  0  0
    1.0003    2.8050    0.0000 C   0  0  0  0  0  0  0  0  0  0  0  0
    0.2858    3.2175    0.0000 Cl  0  0  0  0  0  0  0  0  0  0  0  0
  2  1  1  0  0  0  0
  2  3  1  0  0  0  0
  4  2  2  0  0  0  0
  5  4  1  0  0  0  0
  5  6  1  0  0  0  0
  7  5  2  0  0  0  0
  7  8  1  0  0  0  0
  9  7  1  0  0  0  0
  1  9  2  0  0  0  0
  9 10  1  0  0  0  0
  1 11  1  0  0  0  0
 12 11  1  0  0  0  0
 12 13  1  0  0  0  0
 14 12  2  0  0  0  0
 14 15  1  0  0  0  0
 16 14  1  0  0  0  0
 17 16  2  0  0  0  0
 17 18  1  0  0  0  0
 19 17  1  0  0  0  0
 11 19  2  0  0  0  0
 19 20  1  0  0  0  0
M  END
> <ChemID>
101545

> <CAS>
40186-71-8

> <Original_SMILES>
Clc1cc(Cl)c(Cl)c(Cl)c1-c1c(Cl)c(Cl)cc(Cl)c1Cl

> <preferred_name>
2,2',3,3',4,5',6,6'-Octachlorobiphenyl

> <dsstox_substance_id>
DTXSID4074148

> <dsstox_compound_id>
DTXCID0039728

> <qc_level>
Public_High

> <Canonical_QSARr>
ClC1C(C2=C(Cl)C(Cl)=C(Cl)C=C2Cl)=C(Cl)C(Cl)=CC=1Cl

> <InChI_Code_QSARr>
InChI=1S/C12H2Cl8/c13-3-1-6(16)11(19)12(20)7(3)8-9(17)4(14)2-5(15)10(8)18/h1-2H

> <InChI Key_QSARr>
LJQOBQLZTUSEJA-UHFFFAOYSA-N

> <Salt_Solvent>


> <Salt_Solvent_ID>
0

> <MPID>
102736

> <HL Reference>
BRUNNER,S ET AL. (1990)

> <HL Temperature>
25

> <LogHL>
-4.769551078621744

> <Tr_1_Tst_0>
1

$$$$
101551
  Mrv171c012241914302D          

 18 19  0  0  0  0            999 V2000
    2.5250   -1.6215    0.0000 C   0  0  0  0  0  0  0  0  0  0  0  0
    1.8105   -1.2090    0.0000 C   0  0  0  0  0  0  0  0  0  0  0  0
    1.8105   -0.3840    0.0000 Cl  0  0  0  0  0  0  0  0  0  0  0  0
    1.0960   -1.6215    0.0000 C   0  0  0  0  0  0  0  0  0  0  0  0
    0.3816   -1.2090    0.0000 Cl  0  0  0  0  0  0  0  0  0  0  0  0
    1.0960   -2.4465    0.0000 C   0  0  0  0  0  0  0  0  0  0  0  0
    0.3816   -2.8590    0.0000 Cl  0  0  0  0  0  0  0  0  0  0  0  0
    1.8105   -2.8590    0.0000 C   0  0  0  0  0  0  0  0  0  0  0  0
    1.8105   -3.6840    0.0000 Cl  0  0  0  0  0  0  0  0  0  0  0  0
    2.5250   -2.4465    0.0000 C   0  0  0  0  0  0  0  0  0  0  0  0
    3.2394   -2.8590    0.0000 Cl  0  0  0  0  0  0  0  0  0  0  0  0
    3.2394   -1.2090    0.0000 C   0  0  0  0  0  0  0  0  0  0  0  0
    3.9539   -1.6215    0.0000 C   0  0  0  0  0  0  0  0  0  0  0  0
    4.6684   -1.2090    0.0000 C   0  0  0  0  0  0  0  0  0  0  0  0
    4.6684   -0.3840    0.0000 C   0  0  0  0  0  0  0  0  0  0  0  0
    3.9539    0.0285    0.0000 C   0  0  0  0  0  0  0  0  0  0  0  0
    3.9539    0.8535    0.0000 Cl  0  0  0  0  0  0  0  0  0  0  0  0
    3.2394   -0.3840    0.0000 C   0  0  0  0  0  0  0  0  0  0  0  0
  2  1  1  0  0  0  0
  2  3  1  0  0  0  0
  4  2  2  0  0  0  0
  4  5  1  0  0  0  0
  6  4  1  0  0  0  0
  6  7  1  0  0  0  0
  8  6  2  0  0  0  0
  8  9  1  0  0  0  0
 10  8  1  0  0  0  0
  1 10  2  0  0  0  0
 10 11  1  0  0  0  0
  1 12  1  0  0  0  0
 13 12  1  0  0  0  0
 14 13  2  0  0  0  0
 15 14  1  0  0  0  0
 16 15  2  0  0  0  0
 16 17  1  0  0  0  0
 18 16  1  0  0  0  0
 12 18  2  0  0  0  0
M  END
> <ChemID>
101551

> <CAS>
41411-62-5

> <Original_SMILES>
Clc1cc(ccc1)-c1c(Cl)c(Cl)c(Cl)c(Cl)c1Cl

> <preferred_name>


> <dsstox_substance_id>
DTXSID20866044

> <dsstox_compound_id>
DTXCID80814384

> <qc_level>


> <Canonical_QSARr>
ClC1=C(C2=CC(Cl)=CC=C2)C(Cl)=C(Cl)C(Cl)=C1Cl

> <InChI_Code_QSARr>
InChI=1S/C12H4Cl6/c13-6-3-1-2-5(4-6)7-8(14)10(16)12(18)11(17)9(7)15/h1-4H

> <InChI Key_QSARr>
JHJMZCXLJXRCHK-UHFFFAOYSA-N

> <Salt_Solvent>


> <Salt_Solvent_ID>
0

> <MPID>
102737

> <HL Reference>
BRUNNER,S ET AL. (1990)

> <HL Temperature>
25

> <LogHL>
-4.698970004336025

> <Tr_1_Tst_0>
1

$$$$
101553
  Mrv171c012241914302D          

 16 17  0  0  0  0            999 V2000
    2.5069   -1.1993    0.0000 C   0  0  0  0  0  0  0  0  0  0  0  0
    3.2214   -1.6118    0.0000 C   0  0  0  0  0  0  0  0  0  0  0  0
    3.9359   -1.1993    0.0000 C   0  0  0  0  0  0  0  0  0  0  0  0
    3.9359   -0.3743    0.0000 C   0  0  0  0  0  0  0  0  0  0  0  0
    3.2214    0.0382    0.0000 C   0  0  0  0  0  0  0  0  0  0  0  0
    3.2214    0.8632    0.0000 Cl  0  0  0  0  0  0  0  0  0  0  0  0
    2.5069   -0.3743    0.0000 C   0  0  0  0  0  0  0  0  0  0  0  0
    1.7924    0.0382    0.0000 Cl  0  0  0  0  0  0  0  0  0  0  0  0
    1.7924   -1.6118    0.0000 C   0  0  0  0  0  0  0  0  0  0  0  0
    1.0780   -1.1993    0.0000 C   0  0  0  0  0  0  0  0  0  0  0  0
    0.3635   -1.6118    0.0000 C   0  0  0  0  0  0  0  0  0  0  0  0
   -0.3510   -1.1993    0.0000 Cl  0  0  0  0  0  0  0  0  0  0  0  0
    0.3635   -2.4368    0.0000 C   0  0  0  0  0  0  0  0  0  0  0  0
    1.0780   -2.8493    0.0000 C   0  0  0  0  0  0  0  0  0  0  0  0
    1.7924   -2.4368    0.0000 C   0  0  0  0  0  0  0  0  0  0  0  0
    2.5069   -2.8493    0.0000 Cl  0  0  0  0  0  0  0  0  0  0  0  0
  2  1  1  0  0  0  0
  3  2  2  0  0  0  0
  4  3  1  0  0  0  0
  5  4  2  0  0  0  0
  5  6  1  0  0  0  0
  7  5  1  0  0  0  0
  1  7  2  0  0  0  0
  7  8  1  0  0  0  0
  1  9  1  0  0  0  0
 10  9  1  0  0  0  0
 11 10  2  0  0  0  0
 11 12  1  0  0  0  0
 13 11  1  0  0  0  0
 14 13  2  0  0  0  0
 15 14  1  0  0  0  0
  9 15  2  0  0  0  0
 15 16  1  0  0  0  0
M  END
> <ChemID>
101553

> <CAS>
41464-39-5

> <Original_SMILES>
Clc1cc(-c2cccc(Cl)c2Cl)c(Cl)cc1

> <preferred_name>
2,2',3,5'-tetrachlorobiphenyl

> <dsstox_substance_id>
DTXSID8038302

> <dsstox_compound_id>
DTXCID6018302

> <qc_level>
DSSTox_Low

> <Canonical_QSARr>
ClC1C=CC(Cl)=CC=1C1C=CC=C(Cl)C=1Cl

> <InChI_Code_QSARr>
InChI=1S/C12H6Cl4/c13-7-4-5-10(14)9(6-7)8-2-1-3-11(15)12(8)16/h1-6H

> <InChI Key_QSARr>
ALDJIKXAHSDLLB-UHFFFAOYSA-N

> <Salt_Solvent>


> <Salt_Solvent_ID>
0

> <MPID>
102738

> <HL Reference>
BRUNNER,S ET AL. (1990)

> <HL Temperature>
25

> <LogHL>
-3.8538719643217614

> <Tr_1_Tst_0>
1

$$$$
101554
  Mrv171c012241914302D          

 16 17  0  0  0  0            999 V2000
    0.3572    1.7531    0.0000 C   0  0  0  0  0  0  0  0  0  0  0  0
    0.3572    2.5781    0.0000 C   0  0  0  0  0  0  0  0  0  0  0  0
   -0.3572    2.9906    0.0000 C   0  0  0  0  0  0  0  0  0  0  0  0
   -0.3572    3.8156    0.0000 Cl  0  0  0  0  0  0  0  0  0  0  0  0
   -1.0717    2.5781    0.0000 C   0  0  0  0  0  0  0  0  0  0  0  0
   -1.0717    1.7531    0.0000 C   0  0  0  0  0  0  0  0  0  0  0  0
   -0.3572    1.3406    0.0000 C   0  0  0  0  0  0  0  0  0  0  0  0
   -0.3572    0.5156    0.0000 Cl  0  0  0  0  0  0  0  0  0  0  0  0
    1.0717    1.3406    0.0000 C   0  0  0  0  0  0  0  0  0  0  0  0
    1.0717    0.5156    0.0000 C   0  0  0  0  0  0  0  0  0  0  0  0
    1.7862    0.1031    0.0000 C   0  0  0  0  0  0  0  0  0  0  0  0
    2.5006    0.5156    0.0000 C   0  0  0  0  0  0  0  0  0  0  0  0
    3.2151    0.1031    0.0000 Cl  0  0  0  0  0  0  0  0  0  0  0  0
    2.5006    1.3406    0.0000 C   0  0  0  0  0  0  0  0  0  0  0  0
    1.7862    1.7531    0.0000 C   0  0  0  0  0  0  0  0  0  0  0  0
    1.7862    2.5781    0.0000 Cl  0  0  0  0  0  0  0  0  0  0  0  0
  2  1  1  0  0  0  0
  3  2  2  0  0  0  0
  3  4  1  0  0  0  0
  5  3  1  0  0  0  0
  6  5  2  0  0  0  0
  7  6  1  0  0  0  0
  1  7  2  0  0  0  0
  7  8  1  0  0  0  0
  1  9  1  0  0  0  0
 10  9  1  0  0  0  0
 11 10  2  0  0  0  0
 12 11  1  0  0  0  0
 12 13  1  0  0  0  0
 14 12  2  0  0  0  0
 15 14  1  0  0  0  0
  9 15  2  0  0  0  0
 15 16  1  0  0  0  0
M  END
> <ChemID>
101554

> <CAS>
41464-40-8

> <Original_SMILES>
Clc1cc(Cl)ccc1-c1cc(Cl)ccc1Cl

> <preferred_name>
2,2',4,5'-Tetrachlorobiphenyl

> <dsstox_substance_id>
DTXSID8073508

> <dsstox_compound_id>
DTXCID6039922

> <qc_level>
Public_High

> <Canonical_QSARr>
ClC1C=C(Cl)C=CC=1C1C=C(Cl)C=CC=1Cl

> <InChI_Code_QSARr>
InChI=1S/C12H6Cl4/c13-7-2-4-11(15)10(5-7)9-3-1-8(14)6-12(9)16/h1-6H

> <InChI Key_QSARr>
ZWPVHELAQPIZHO-UHFFFAOYSA-N

> <Salt_Solvent>


> <Salt_Solvent_ID>
0

> <MPID>
102739

> <HL Reference>
BRUNNER,S ET AL. (1990)

> <HL Temperature>
25

> <LogHL>
-3.6777807052660823

> <Tr_1_Tst_0>
1

$$$$
101556
  Mrv171c012241914302D          

 16 17  0  0  0  0            999 V2000
    1.4289   -1.6500    0.0000 C   0  0  0  0  0  0  0  0  0  0  0  0
    0.7145   -1.2375    0.0000 C   0  0  0  0  0  0  0  0  0  0  0  0
    0.7145   -0.4125    0.0000 Cl  0  0  0  0  0  0  0  0  0  0  0  0
    0.0000   -1.6500    0.0000 C   0  0  0  0  0  0  0  0  0  0  0  0
    0.0000   -2.4750    0.0000 C   0  0  0  0  0  0  0  0  0  0  0  0
   -0.7145   -2.8875    0.0000 C   0  0  0  0  0  0  0  0  0  0  0  0
   -1.4289   -2.4750    0.0000 C   0  0  0  0  0  0  0  0  0  0  0  0
   -2.1434   -2.8875    0.0000 C   0  0  0  0  0  0  0  0  0  0  0  0
   -2.8579   -2.4750    0.0000 Cl  0  0  0  0  0  0  0  0  0  0  0  0
   -2.1434   -3.7125    0.0000 C   0  0  0  0  0  0  0  0  0  0  0  0
   -2.8579   -4.1250    0.0000 Cl  0  0  0  0  0  0  0  0  0  0  0  0
   -1.4289   -4.1250    0.0000 C   0  0  0  0  0  0  0  0  0  0  0  0
   -0.7145   -3.7125    0.0000 C   0  0  0  0  0  0  0  0  0  0  0  0
    0.7145   -2.8875    0.0000 C   0  0  0  0  0  0  0  0  0  0  0  0
    1.4289   -2.4750    0.0000 C   0  0  0  0  0  0  0  0  0  0  0  0
    2.1434   -2.8875    0.0000 Cl  0  0  0  0  0  0  0  0  0  0  0  0
  2  1  1  0  0  0  0
  2  3  1  0  0  0  0
  4  2  2  0  0  0  0
  5  4  1  0  0  0  0
  5  6  1  0  0  0  0
  7  6  1  0  0  0  0
  8  7  2  0  0  0  0
  8  9  1  0  0  0  0
 10  8  1  0  0  0  0
 10 11  1  0  0  0  0
 12 10  2  0  0  0  0
 13 12  1  0  0  0  0
  6 13  2  0  0  0  0
 14  5  2  0  0  0  0
 15 14  1  0  0  0  0
  1 15  2  0  0  0  0
 15 16  1  0  0  0  0
M  END
> <ChemID>
101556

> <CAS>
41464-48-6

> <Original_SMILES>
Clc1ccc(cc1Cl)-c1cc(Cl)cc(Cl)c1

> <preferred_name>
3,3',4,5'-Tetrachlorobiphenyl

> <dsstox_substance_id>
DTXSID3074155

> <dsstox_compound_id>
DTXCID1039927

> <qc_level>
Public_High

> <Canonical_QSARr>
ClC1=CC=C(C=C1Cl)C1C=C(Cl)C=C(Cl)C=1

> <InChI_Code_QSARr>
InChI=1S/C12H6Cl4/c13-9-3-8(4-10(14)6-9)7-1-2-11(15)12(16)5-7/h1-6H

> <InChI Key_QSARr>
QLCTXEMDCZGPCG-UHFFFAOYSA-N

> <Salt_Solvent>


> <Salt_Solvent_ID>
0

> <MPID>
102740

> <HL Reference>
BRUNNER,S ET AL. (1990)

> <HL Temperature>
25

> <LogHL>
-4.045757490560676

> <Tr_1_Tst_0>
0

$$$$
101557
  Mrv171c012241914302D          

 17 18  0  0  0  0            999 V2000
    1.1347    1.6257    0.0000 C   0  0  0  0  0  0  0  0  0  0  0  0
    1.8492    1.2132    0.0000 C   0  0  0  0  0  0  0  0  0  0  0  0
    2.5637    1.6257    0.0000 C   0  0  0  0  0  0  0  0  0  0  0  0
    2.5637    2.4507    0.0000 C   0  0  0  0  0  0  0  0  0  0  0  0
    1.8492    2.8632    0.0000 C   0  0  0  0  0  0  0  0  0  0  0  0
    1.8492    3.6882    0.0000 Cl  0  0  0  0  0  0  0  0  0  0  0  0
    1.1347    2.4507    0.0000 C   0  0  0  0  0  0  0  0  0  0  0  0
    0.4203    2.8632    0.0000 Cl  0  0  0  0  0  0  0  0  0  0  0  0
    0.4203    1.2132    0.0000 C   0  0  0  0  0  0  0  0  0  0  0  0
   -0.2942    1.6257    0.0000 C   0  0  0  0  0  0  0  0  0  0  0  0
   -1.0087    1.2132    0.0000 C   0  0  0  0  0  0  0  0  0  0  0  0
   -1.7231    1.6257    0.0000 Cl  0  0  0  0  0  0  0  0  0  0  0  0
   -1.0087    0.3882    0.0000 C   0  0  0  0  0  0  0  0  0  0  0  0
   -1.7231   -0.0243    0.0000 Cl  0  0  0  0  0  0  0  0  0  0  0  0
   -0.2942   -0.0243    0.0000 C   0  0  0  0  0  0  0  0  0  0  0  0
    0.4203    0.3882    0.0000 C   0  0  0  0  0  0  0  0  0  0  0  0
    1.1347   -0.0243    0.0000 Cl  0  0  0  0  0  0  0  0  0  0  0  0
  2  1  1  0  0  0  0
  3  2  2  0  0  0  0
  4  3  1  0  0  0  0
  5  4  2  0  0  0  0
  5  6  1  0  0  0  0
  7  5  1  0  0  0  0
  1  7  2  0  0  0  0
  7  8  1  0  0  0  0
  1  9  1  0  0  0  0
 10  9  1  0  0  0  0
 11 10  2  0  0  0  0
 11 12  1  0  0  0  0
 13 11  1  0  0  0  0
 13 14  1  0  0  0  0
 15 13  2  0  0  0  0
 16 15  1  0  0  0  0
  9 16  2  0  0  0  0
 16 17  1  0  0  0  0
M  END
> <ChemID>
101557

> <CAS>
41464-51-1

> <Original_SMILES>
Clc1cc(Cl)c(Cl)cc1-c1cccc(Cl)c1Cl

> <preferred_name>
2,2',3,4',5'-Pentachlorobiphenyl

> <dsstox_substance_id>
DTXSID2073510

> <dsstox_compound_id>
DTXCID1039929

> <qc_level>
Public_High

> <Canonical_QSARr>
ClC1C=C(Cl)C(Cl)=CC=1C1C=CC=C(Cl)C=1Cl

> <InChI_Code_QSARr>
InChI=1S/C12H5Cl5/c13-8-3-1-2-6(12(8)17)7-4-10(15)11(16)5-9(7)14/h1-5H

> <InChI Key_QSARr>
JTUSORDQZVOEAZ-UHFFFAOYSA-N

> <Salt_Solvent>


> <Salt_Solvent_ID>
0

> <MPID>
102741

> <HL Reference>
BRUNNER,S ET AL. (1990)

> <HL Temperature>
25

> <LogHL>
-4.130768280269022

> <Tr_1_Tst_0>
1

$$$$
101563
  Mrv171c012241914302D          

 20 21  0  0  0  0            999 V2000
    0.2858    1.3201    0.0000 C   0  0  0  0  0  0  0  0  0  0  0  0
   -0.4287    1.7326    0.0000 C   0  0  0  0  0  0  0  0  0  0  0  0
   -0.4287    2.5576    0.0000 Cl  0  0  0  0  0  0  0  0  0  0  0  0
   -1.1431    1.3201    0.0000 C   0  0  0  0  0  0  0  0  0  0  0  0
   -1.1431    0.4951    0.0000 C   0  0  0  0  0  0  0  0  0  0  0  0
   -1.8576    0.0826    0.0000 Cl  0  0  0  0  0  0  0  0  0  0  0  0
   -0.4287    0.0826    0.0000 C   0  0  0  0  0  0  0  0  0  0  0  0
   -0.4287   -0.7424    0.0000 Cl  0  0  0  0  0  0  0  0  0  0  0  0
    0.2858    0.4951    0.0000 C   0  0  0  0  0  0  0  0  0  0  0  0
    1.0003    0.0826    0.0000 Cl  0  0  0  0  0  0  0  0  0  0  0  0
    1.0003    1.7326    0.0000 C   0  0  0  0  0  0  0  0  0  0  0  0
    1.7148    1.3201    0.0000 C   0  0  0  0  0  0  0  0  0  0  0  0
    2.4292    1.7326    0.0000 C   0  0  0  0  0  0  0  0  0  0  0  0
    3.1437    1.3201    0.0000 Cl  0  0  0  0  0  0  0  0  0  0  0  0
    2.4292    2.5576    0.0000 C   0  0  0  0  0  0  0  0  0  0  0  0
    3.1437    2.9701    0.0000 Cl  0  0  0  0  0  0  0  0  0  0  0  0
    1.7148    2.9701    0.0000 C   0  0  0  0  0  0  0  0  0  0  0  0
    1.7148    3.7951    0.0000 Cl  0  0  0  0  0  0  0  0  0  0  0  0
    1.0003    2.5576    0.0000 C   0  0  0  0  0  0  0  0  0  0  0  0
    0.2858    2.9701    0.0000 Cl  0  0  0  0  0  0  0  0  0  0  0  0
  2  1  1  0  0  0  0
  2  3  1  0  0  0  0
  4  2  2  0  0  0  0
  5  4  1  0  0  0  0
  5  6  1  0  0  0  0
  7  5  2  0  0  0  0
  7  8  1  0  0  0  0
  9  7  1  0  0  0  0
  1  9  2  0  0  0  0
  9 10  1  0  0  0  0
  1 11  1  0  0  0  0
 12 11  1  0  0  0  0
 13 12  2  0  0  0  0
 13 14  1  0  0  0  0
 15 13  1  0  0  0  0
 15 16  1  0  0  0  0
 17 15  2  0  0  0  0
 17 18  1  0  0  0  0
 19 17  1  0  0  0  0
 11 19  2  0  0  0  0
 19 20  1  0  0  0  0
M  END
> <ChemID>
101563

> <CAS>
42740-50-1

> <Original_SMILES>
Clc1cc(-c2c(Cl)c(Cl)c(Cl)cc2Cl)c(Cl)c(Cl)c1Cl

> <preferred_name>
2,2',3,3',4,4',5,6'-Octachlorobiphenyl

> <dsstox_substance_id>
DTXSID3074157

> <dsstox_compound_id>
DTXCID7040150

> <qc_level>
Public_High

> <Canonical_QSARr>
ClC1C=C(Cl)C(C2C=C(Cl)C(Cl)=C(Cl)C=2Cl)=C(Cl)C=1Cl

> <InChI_Code_QSARr>
InChI=1S/C12H2Cl8/c13-4-2-6(15)9(17)11(19)7(4)3-1-5(14)10(18)12(20)8(3)16/h1-2H

> <InChI Key_QSARr>
BQFCCUSDZLKBJG-UHFFFAOYSA-N

> <Salt_Solvent>


> <Salt_Solvent_ID>
0

> <MPID>
102742

> <HL Reference>
BRUNNER,S ET AL. (1990)

> <HL Temperature>
25

> <LogHL>
-4.999999999999988

> <Tr_1_Tst_0>
1

$$$$
101566
  Mrv171c012241914302D          

 11 11  0  0  0  0            999 V2000
    3.9882    0.6562    0.0000 Cl  0  0  0  0  0  0  0  0  0  0  0  0
    3.2737    0.2437    0.0000 C   0  0  0  0  0  0  0  0  0  0  0  0
    2.5593    0.6562    0.0000 C   0  0  0  0  0  0  0  0  0  0  0  0
    2.5593    1.4812    0.0000 Cl  0  0  0  0  0  0  0  0  0  0  0  0
    1.8448    0.2437    0.0000 C   0  0  0  0  0  0  0  0  0  0  0  0
    1.8448   -0.5813    0.0000 C   0  0  0  0  0  0  0  0  0  0  0  0
    2.5593   -0.9938    0.0000 C   0  0  0  0  0  0  0  0  0  0  0  0
    2.5593   -1.8188    0.0000 Cl  0  0  0  0  0  0  0  0  0  0  0  0
    3.2737   -0.5813    0.0000 C   0  0  0  0  0  0  0  0  0  0  0  0
    3.9882   -0.9938    0.0000 O   0  0  0  0  0  0  0  0  0  0  0  0
    4.7027   -0.5813    0.0000 C   0  0  0  0  0  0  0  0  0  0  0  0
  1  2  1  0  0  0  0
  3  2  2  0  0  0  0
  3  4  1  0  0  0  0
  5  3  1  0  0  0  0
  6  5  2  0  0  0  0
  7  6  1  0  0  0  0
  7  8  1  0  0  0  0
  9  7  2  0  0  0  0
  2  9  1  0  0  0  0
  9 10  1  0  0  0  0
 10 11  1  0  0  0  0
M  END
> <ChemID>
101566

> <CAS>
50375-10-5

> <Original_SMILES>
COc1c(Cl)c(Cl)ccc1Cl

> <preferred_name>
2,3,6-Trichloroanisole

> <dsstox_substance_id>
DTXSID60198432

> <dsstox_compound_id>
DTXCID90120923

> <qc_level>
Public_Medium

> <Canonical_QSARr>
COC1C(Cl)=C(Cl)C=CC=1Cl

> <InChI_Code_QSARr>
InChI=1S/C7H5Cl3O/c1-11-7-5(9)3-2-4(8)6(7)10/h2-3H,1H3

> <InChI Key_QSARr>
OTFNCXLUCRUNCH-UHFFFAOYSA-N

> <Salt_Solvent>


> <Salt_Solvent_ID>
0

> <MPID>
102743

> <HL Reference>
LALEZARY,S ET AL. (1984)

> <HL Temperature>
20

> <LogHL>
-3.54060751224077

> <Tr_1_Tst_0>
1

$$$$
101571
  Mrv171c012241914302D          

 17 19  0  0  0  0            999 V2000
    2.1642   -1.7855    0.0000 C   0  0  0  0  0  0  0  0  0  0  0  0
    2.8316   -2.2704    0.0000 O   0  0  0  0  0  0  0  0  0  0  0  0
    3.4991   -1.7855    0.0000 C   0  0  0  0  0  0  0  0  0  0  0  0
    4.3060   -1.9570    0.0000 C   0  0  0  0  0  0  0  0  0  0  0  0
    4.8581   -1.3439    0.0000 C   0  0  0  0  0  0  0  0  0  0  0  0
    4.6031   -0.5593    0.0000 C   0  0  0  0  0  0  0  0  0  0  0  0
    3.7962   -0.3877    0.0000 C   0  0  0  0  0  0  0  0  0  0  0  0
    3.2441   -1.0008    0.0000 C   0  0  0  0  0  0  0  0  0  0  0  0
    2.4191   -1.0008    0.0000 C   0  0  0  0  0  0  0  0  0  0  0  0
    1.8671   -0.3877    0.0000 C   0  0  0  0  0  0  0  0  0  0  0  0
    1.0601   -0.5593    0.0000 C   0  0  0  0  0  0  0  0  0  0  0  0
    0.5081    0.0538    0.0000 Cl  0  0  0  0  0  0  0  0  0  0  0  0
    0.8052   -1.3439    0.0000 C   0  0  0  0  0  0  0  0  0  0  0  0
   -0.0018   -1.5154    0.0000 Cl  0  0  0  0  0  0  0  0  0  0  0  0
    1.3572   -1.9570    0.0000 C   0  0  0  0  0  0  0  0  0  0  0  0
    5.1552    0.0538    0.0000 Cl  0  0  0  0  0  0  0  0  0  0  0  0
    5.6650   -1.5154    0.0000 Cl  0  0  0  0  0  0  0  0  0  0  0  0
  2  1  1  0  0  0  0
  3  2  1  0  0  0  0
  3  4  1  0  0  0  0
  4  5  2  0  0  0  0
  5  6  1  0  0  0  0
  6  7  2  0  0  0  0
  7  8  1  0  0  0  0
  8  3  2  0  0  0  0
  9  8  1  0  0  0  0
  9  1  1  0  0  0  0
 10  9  2  0  0  0  0
 11 10  1  0  0  0  0
 11 12  1  0  0  0  0
 13 11  2  0  0  0  0
 13 14  1  0  0  0  0
 15 13  1  0  0  0  0
  1 15  2  0  0  0  0
  6 16  1  0  0  0  0
  5 17  1  0  0  0  0
M  END
> <ChemID>
101571

> <CAS>
51207-31-9

> <Original_SMILES>
Clc1cc2c(cc1Cl)oc1cc(Cl)c(Cl)cc21

> <preferred_name>
2,3,7,8-Tetrachlorodibenzofuran

> <dsstox_substance_id>
DTXSID3052147

> <dsstox_compound_id>
DTXCID8030716

> <qc_level>
DSSTox_High

> <Canonical_QSARr>
ClC1=CC2OC3=CC(Cl)=C(Cl)C=C3C=2C=C1Cl

> <InChI_Code_QSARr>
InChI=1S/C12H4Cl4O/c13-7-1-5-6-2-8(14)10(16)4-12(6)17-11(5)3-9(7)15/h1-4H

> <InChI Key_QSARr>
KSMVNVHUTQZITP-UHFFFAOYSA-N

> <Salt_Solvent>


> <Salt_Solvent_ID>
0

> <MPID>
102744

> <HL Reference>
FRIESEN,KJ ET AL. (1993)

> <HL Temperature>
25

> <LogHL>
-4.777283528852432

> <Tr_1_Tst_0>
1

$$$$
101572
  Mrv171c012241914302D          

 19 19  0  0  0  0            999 V2000
    1.8871   -2.6677    0.0000 N   0  0  0  0  0  0  0  0  0  0  0  0
    1.0621   -2.6677    0.0000 C   0  0  0  0  0  0  0  0  0  0  0  0
    0.6496   -1.9532    0.0000 C   0  0  0  0  0  0  0  0  0  0  0  0
    0.6496   -3.3821    0.0000 C   0  0  0  0  0  0  0  0  0  0  0  0
   -0.1754   -3.3821    0.0000 O   0  0  0  0  0  0  0  0  0  0  0  0
   -0.5879   -4.0966    0.0000 C   0  0  0  0  0  0  0  0  0  0  0  0
    2.2996   -3.3821    0.0000 C   0  0  0  0  0  0  0  0  0  0  0  0
    3.1246   -3.3821    0.0000 C   0  0  0  0  0  0  0  0  0  0  0  0
    3.5371   -4.0966    0.0000 Cl  0  0  0  0  0  0  0  0  0  0  0  0
    1.8871   -4.0966    0.0000 O   0  0  0  0  0  0  0  0  0  0  0  0
    2.2996   -1.9532    0.0000 C   0  0  0  0  0  0  0  0  0  0  0  0
    3.1246   -1.9532    0.0000 C   0  0  0  0  0  0  0  0  0  0  0  0
    3.5371   -2.6677    0.0000 C   0  0  0  0  0  0  0  0  0  0  0  0
    4.3621   -2.6677    0.0000 C   0  0  0  0  0  0  0  0  0  0  0  0
    3.5371   -1.2387    0.0000 C   0  0  0  0  0  0  0  0  0  0  0  0
    3.1246   -0.5242    0.0000 C   0  0  0  0  0  0  0  0  0  0  0  0
    2.2996   -0.5242    0.0000 C   0  0  0  0  0  0  0  0  0  0  0  0
    1.8871   -1.2387    0.0000 C   0  0  0  0  0  0  0  0  0  0  0  0
    1.0621   -1.2387    0.0000 C   0  0  0  0  0  0  0  0  0  0  0  0
  1  2  1  0  0  0  0
  2  3  1  0  0  0  0
  2  4  1  0  0  0  0
  4  5  1  0  0  0  0
  5  6  1  0  0  0  0
  1  7  1  0  0  0  0
  7  8  1  0  0  0  0
  8  9  1  0  0  0  0
  7 10  2  0  0  0  0
  1 11  1  0  0  0  0
 12 11  2  0  0  0  0
 12 13  1  0  0  0  0
 13 14  1  0  0  0  0
 15 12  1  0  0  0  0
 16 15  2  0  0  0  0
 17 16  1  0  0  0  0
 18 17  2  0  0  0  0
 11 18  1  0  0  0  0
 18 19  1  0  0  0  0
M  END
> <ChemID>
101572

> <CAS>
51218-45-2

> <Original_SMILES>
Cc1cccc(CC)c1N(C(C)COC)C(=O)CCl

> <preferred_name>
Metolachlor

> <dsstox_substance_id>
DTXSID4022448

> <dsstox_compound_id>
DTXCID402448

> <qc_level>
DSSTox_High

> <Canonical_QSARr>
CC1=CC=CC(CC)=C1N(C(C)COC)C(=O)CCl

> <InChI_Code_QSARr>
InChI=1S/C15H22ClNO2/c1-5-13-8-6-7-11(2)15(13)17(14(18)9-16)12(3)10-19-4/h6-8,12H,5,9-10H2,1-4H3

> <InChI Key_QSARr>
WVQBLGZPHOPPFO-UHFFFAOYSA-N

> <Salt_Solvent>


> <Salt_Solvent_ID>
0

> <MPID>
102745

> <HL Reference>
CHESTERS,G ET AL. (1989)

> <HL Temperature>
20

> <LogHL>
-8.045757490560678

> <Tr_1_Tst_0>
0

$$$$
101573
  Mrv171c012241914302D          

 21 21  0  0  0  0            999 V2000
   -0.3157   -3.4118    0.0000 C   0  0  0  0  0  0  0  0  0  0  0  0
    0.2243   -2.7882    0.0000 C   0  0  0  0  0  0  0  0  0  0  0  0
    1.0345   -2.9441    0.0000 C   0  0  0  0  0  0  0  0  0  0  0  0
    1.5746   -2.3204    0.0000 O   0  0  0  0  0  0  0  0  0  0  0  0
    2.3847   -2.4764    0.0000 C   0  0  0  0  0  0  0  0  0  0  0  0
    2.9248   -1.8527    0.0000 C   0  0  0  0  0  0  0  0  0  0  0  0
    3.7349   -2.0086    0.0000 N   0  0  0  0  0  0  0  0  0  0  0  0
    4.2750   -1.3850    0.0000 C   0  0  0  0  0  0  0  0  0  0  0  0
    5.0851   -1.5409    0.0000 C   0  0  0  0  0  0  0  0  0  0  0  0
    5.3552   -2.3204    0.0000 C   0  0  0  0  0  0  0  0  0  0  0  0
    6.1653   -2.4764    0.0000 C   0  0  0  0  0  0  0  0  0  0  0  0
    5.6252   -0.9173    0.0000 C   0  0  0  0  0  0  0  0  0  0  0  0
    5.3552   -0.1377    0.0000 C   0  0  0  0  0  0  0  0  0  0  0  0
    4.5451    0.0182    0.0000 C   0  0  0  0  0  0  0  0  0  0  0  0
    4.0050   -0.6054    0.0000 C   0  0  0  0  0  0  0  0  0  0  0  0
    3.1948   -0.4495    0.0000 C   0  0  0  0  0  0  0  0  0  0  0  0
    2.6547   -1.0732    0.0000 C   0  0  0  0  0  0  0  0  0  0  0  0
    4.0050   -2.7882    0.0000 C   0  0  0  0  0  0  0  0  0  0  0  0
    3.4649   -3.4118    0.0000 O   0  0  0  0  0  0  0  0  0  0  0  0
    4.8151   -2.9441    0.0000 C   0  0  0  0  0  0  0  0  0  0  0  0
    5.0851   -3.7236    0.0000 Cl  0  0  0  0  0  0  0  0  0  0  0  0
  1  2  1  0  0  0  0
  2  3  1  0  0  0  0
  3  4  1  0  0  0  0
  4  5  1  0  0  0  0
  5  6  1  0  0  0  0
  6  7  1  0  0  0  0
  7  8  1  0  0  0  0
  9  8  1  0  0  0  0
  9 10  1  0  0  0  0
 10 11  1  0  0  0  0
 12  9  2  0  0  0  0
 13 12  1  0  0  0  0
 14 13  2  0  0  0  0
 15 14  1  0  0  0  0
  8 15  2  0  0  0  0
 15 16  1  0  0  0  0
 16 17  1  0  0  0  0
  7 18  1  0  0  0  0
 18 19  2  0  0  0  0
 18 20  1  0  0  0  0
 20 21  1  0  0  0  0
M  END
> <ChemID>
101573

> <CAS>
51218-49-6

> <Original_SMILES>
CCCOCCN(C(=O)CCl)c1c(CC)cccc1CC

> <preferred_name>
Pretilachlor

> <dsstox_substance_id>
DTXSID8058112

> <dsstox_compound_id>
DTXCID1031880

> <qc_level>
DSSTox_High

> <Canonical_QSARr>
CCCOCCN(C(=O)CCl)C1C(CC)=CC=CC=1CC

> <InChI_Code_QSARr>
InChI=1S/C17H26ClNO2/c1-4-11-21-12-10-19(16(20)13-18)17-14(5-2)8-7-9-15(17)6-3/h7-9H,4-6,10-13H2,1-3H3

> <InChI Key_QSARr>
YLPGTOIOYRQOHV-UHFFFAOYSA-N

> <Salt_Solvent>


> <Salt_Solvent_ID>
0

> <MPID>
102746

> <HL Reference>
TOMLIN,C (1997)

> <HL Temperature>
20

> <LogHL>
-8.096910013008067

> <Tr_1_Tst_0>
1

$$$$
101578
  Mrv171c012241914302D          

 18 19  0  0  0  0            999 V2000
    0.2778    1.9021    0.0000 C   0  0  0  0  0  0  0  0  0  0  0  0
    0.2778    2.7271    0.0000 C   0  0  0  0  0  0  0  0  0  0  0  0
   -0.4366    3.1396    0.0000 C   0  0  0  0  0  0  0  0  0  0  0  0
   -0.4366    3.9646    0.0000 Cl  0  0  0  0  0  0  0  0  0  0  0  0
   -1.1511    2.7271    0.0000 C   0  0  0  0  0  0  0  0  0  0  0  0
   -1.1511    1.9021    0.0000 C   0  0  0  0  0  0  0  0  0  0  0  0
   -1.8656    1.4896    0.0000 Cl  0  0  0  0  0  0  0  0  0  0  0  0
   -0.4366    1.4896    0.0000 C   0  0  0  0  0  0  0  0  0  0  0  0
   -0.4366    0.6646    0.0000 Cl  0  0  0  0  0  0  0  0  0  0  0  0
    0.9923    1.4896    0.0000 C   0  0  0  0  0  0  0  0  0  0  0  0
    0.9923    0.6646    0.0000 C   0  0  0  0  0  0  0  0  0  0  0  0
    1.7068    0.2521    0.0000 C   0  0  0  0  0  0  0  0  0  0  0  0
    1.7068   -0.5729    0.0000 Cl  0  0  0  0  0  0  0  0  0  0  0  0
    2.4213    0.6646    0.0000 C   0  0  0  0  0  0  0  0  0  0  0  0
    3.1357    0.2521    0.0000 Cl  0  0  0  0  0  0  0  0  0  0  0  0
    2.4213    1.4896    0.0000 C   0  0  0  0  0  0  0  0  0  0  0  0
    1.7068    1.9021    0.0000 C   0  0  0  0  0  0  0  0  0  0  0  0
    1.7068    2.7271    0.0000 Cl  0  0  0  0  0  0  0  0  0  0  0  0
  2  1  1  0  0  0  0
  3  2  2  0  0  0  0
  3  4  1  0  0  0  0
  5  3  1  0  0  0  0
  6  5  2  0  0  0  0
  6  7  1  0  0  0  0
  8  6  1  0  0  0  0
  1  8  2  0  0  0  0
  8  9  1  0  0  0  0
  1 10  1  0  0  0  0
 11 10  1  0  0  0  0
 12 11  2  0  0  0  0
 12 13  1  0  0  0  0
 14 12  1  0  0  0  0
 14 15  1  0  0  0  0
 16 14  2  0  0  0  0
 17 16  1  0  0  0  0
 10 17  2  0  0  0  0
 17 18  1  0  0  0  0
M  END
> <ChemID>
101578

> <CAS>
51908-16-8

> <Original_SMILES>
Clc1cc(-c2cc(Cl)c(Cl)cc2Cl)c(Cl)c(Cl)c1

> <preferred_name>
2,2',3,4',5,5'-Hexachlorobiphenyl

> <dsstox_substance_id>
DTXSID8074158

> <dsstox_compound_id>
DTXCID4041101

> <qc_level>
Public_High

> <Canonical_QSARr>
ClC1C=C(Cl)C(Cl)=CC=1C1C=C(Cl)C=C(Cl)C=1Cl

> <InChI_Code_QSARr>
InChI=1S/C12H4Cl6/c13-5-1-7(12(18)11(17)2-5)6-3-9(15)10(16)4-8(6)14/h1-4H

> <InChI Key_QSARr>
BQHCQAQLTCQFJZ-UHFFFAOYSA-N

> <Salt_Solvent>


> <Salt_Solvent_ID>
0

> <MPID>
102747

> <HL Reference>
BRUNNER,S ET AL. (1990)

> <HL Temperature>
25

> <LogHL>
-4.602059991327973

> <Tr_1_Tst_0>
1

$$$$
101583
  Mrv171c012241914302D          

 16 17  0  0  0  0            999 V2000
    0.5358   -5.3625    0.0000 C   0  0  0  0  0  0  0  0  0  0  0  0
    0.5358   -6.1875    0.0000 Cl  0  0  0  0  0  0  0  0  0  0  0  0
    1.2503   -4.9500    0.0000 C   0  0  0  0  0  0  0  0  0  0  0  0
    1.2503   -4.1250    0.0000 C   0  0  0  0  0  0  0  0  0  0  0  0
    0.5358   -3.7125    0.0000 C   0  0  0  0  0  0  0  0  0  0  0  0
    0.5358   -2.8875    0.0000 C   0  0  0  0  0  0  0  0  0  0  0  0
    1.2503   -2.4750    0.0000 C   0  0  0  0  0  0  0  0  0  0  0  0
    1.9648   -2.8875    0.0000 Cl  0  0  0  0  0  0  0  0  0  0  0  0
    1.2503   -1.6500    0.0000 C   0  0  0  0  0  0  0  0  0  0  0  0
    1.9648   -1.2375    0.0000 Cl  0  0  0  0  0  0  0  0  0  0  0  0
    0.5358   -1.2375    0.0000 C   0  0  0  0  0  0  0  0  0  0  0  0
   -0.1786   -1.6500    0.0000 C   0  0  0  0  0  0  0  0  0  0  0  0
   -0.1786   -2.4750    0.0000 C   0  0  0  0  0  0  0  0  0  0  0  0
   -0.8931   -2.8875    0.0000 Cl  0  0  0  0  0  0  0  0  0  0  0  0
   -0.1786   -4.1250    0.0000 C   0  0  0  0  0  0  0  0  0  0  0  0
   -0.1786   -4.9500    0.0000 C   0  0  0  0  0  0  0  0  0  0  0  0
  1  2  1  0  0  0  0
  3  1  1  0  0  0  0
  4  3  2  0  0  0  0
  5  4  1  0  0  0  0
  5  6  1  0  0  0  0
  7  6  1  0  0  0  0
  7  8  1  0  0  0  0
  9  7  2  0  0  0  0
  9 10  1  0  0  0  0
 11  9  1  0  0  0  0
 12 11  2  0  0  0  0
 13 12  1  0  0  0  0
  6 13  2  0  0  0  0
 13 14  1  0  0  0  0
 15  5  2  0  0  0  0
 16 15  1  0  0  0  0
  1 16  2  0  0  0  0
M  END
> <ChemID>
101583

> <CAS>
52663-58-8

> <Original_SMILES>
Clc1ccc(cc1)-c1c(Cl)c(Cl)ccc1Cl

> <preferred_name>
2,3,4',6-Tetrachlorobiphenyl

> <dsstox_substance_id>
DTXSID3074159

> <dsstox_compound_id>
DTXCID4041232

> <qc_level>
Public_High

> <Canonical_QSARr>
ClC1C=CC(=CC=1)C1C(Cl)=C(Cl)C=CC=1Cl

> <InChI_Code_QSARr>
InChI=1S/C12H6Cl4/c13-8-3-1-7(2-4-8)11-9(14)5-6-10(15)12(11)16/h1-6H

> <InChI Key_QSARr>
FXRXQYZZALWWGA-UHFFFAOYSA-N

> <Salt_Solvent>


> <Salt_Solvent_ID>
0

> <MPID>
102748

> <HL Reference>
BRUNNER,S ET AL. (1990)

> <HL Temperature>
25

> <LogHL>
-3.8538719643217614

> <Tr_1_Tst_0>
1

$$$$
101584
  Mrv171c012241914302D          

 16 17  0  0  0  0            999 V2000
    0.7145    2.0625    0.0000 C   0  0  0  0  0  0  0  0  0  0  0  0
    1.4289    2.4750    0.0000 C   0  0  0  0  0  0  0  0  0  0  0  0
    1.4289    3.3000    0.0000 C   0  0  0  0  0  0  0  0  0  0  0  0
    0.7145    3.7125    0.0000 C   0  0  0  0  0  0  0  0  0  0  0  0
    0.7145    4.5375    0.0000 Cl  0  0  0  0  0  0  0  0  0  0  0  0
   -0.0000    3.3000    0.0000 C   0  0  0  0  0  0  0  0  0  0  0  0
   -0.7145    3.7125    0.0000 Cl  0  0  0  0  0  0  0  0  0  0  0  0
   -0.0000    2.4750    0.0000 C   0  0  0  0  0  0  0  0  0  0  0  0
   -0.7145    2.0625    0.0000 Cl  0  0  0  0  0  0  0  0  0  0  0  0
    0.7145    1.2375    0.0000 C   0  0  0  0  0  0  0  0  0  0  0  0
   -0.0000    0.8250    0.0000 C   0  0  0  0  0  0  0  0  0  0  0  0
   -0.0000    0.0000    0.0000 C   0  0  0  0  0  0  0  0  0  0  0  0
    0.7145   -0.4125    0.0000 C   0  0  0  0  0  0  0  0  0  0  0  0
    1.4289    0.0000    0.0000 C   0  0  0  0  0  0  0  0  0  0  0  0
    1.4289    0.8250    0.0000 C   0  0  0  0  0  0  0  0  0  0  0  0
    2.1434    1.2375    0.0000 Cl  0  0  0  0  0  0  0  0  0  0  0  0
  2  1  1  0  0  0  0
  3  2  2  0  0  0  0
  4  3  1  0  0  0  0
  4  5  1  0  0  0  0
  6  4  2  0  0  0  0
  6  7  1  0  0  0  0
  8  6  1  0  0  0  0
  1  8  2  0  0  0  0
  8  9  1  0  0  0  0
  1 10  1  0  0  0  0
 11 10  1  0  0  0  0
 12 11  2  0  0  0  0
 13 12  1  0  0  0  0
 14 13  2  0  0  0  0
 15 14  1  0  0  0  0
 10 15  2  0  0  0  0
 15 16  1  0  0  0  0
M  END
> <ChemID>
101584

> <CAS>
52663-59-9

> <Original_SMILES>
Clc1ccccc1-c1ccc(Cl)c(Cl)c1Cl

> <preferred_name>
2,2',3,4-Tetrachlorobiphenyl

> <dsstox_substance_id>
DTXSID5073535

> <dsstox_compound_id>
DTXCID9041233

> <qc_level>
Public_High

> <Canonical_QSARr>
ClC1C=CC=CC=1C1C=CC(Cl)=C(Cl)C=1Cl

> <InChI_Code_QSARr>
InChI=1S/C12H6Cl4/c13-9-4-2-1-3-7(9)8-5-6-10(14)12(16)11(8)15/h1-6H

> <InChI Key_QSARr>
SEWHDNLIHDBVDZ-UHFFFAOYSA-N

> <Salt_Solvent>


> <Salt_Solvent_ID>
0

> <MPID>
102749

> <HL Reference>
BRUNNER,S ET AL. (1990)

> <HL Temperature>
25

> <LogHL>
-3.8538719643217614

> <Tr_1_Tst_0>
0

$$$$
101585
  Mrv171c012241914302D          

 18 19  0  0  0  0            999 V2000
    0.4763    1.6500    0.0000 C   0  0  0  0  0  0  0  0  0  0  0  0
   -0.2382    2.0625    0.0000 C   0  0  0  0  0  0  0  0  0  0  0  0
   -0.2382    2.8875    0.0000 Cl  0  0  0  0  0  0  0  0  0  0  0  0
   -0.9526    1.6500    0.0000 C   0  0  0  0  0  0  0  0  0  0  0  0
   -1.6671    2.0625    0.0000 Cl  0  0  0  0  0  0  0  0  0  0  0  0
   -0.9526    0.8250    0.0000 C   0  0  0  0  0  0  0  0  0  0  0  0
   -0.2382    0.4125    0.0000 C   0  0  0  0  0  0  0  0  0  0  0  0
   -0.2382   -0.4125    0.0000 Cl  0  0  0  0  0  0  0  0  0  0  0  0
    0.4763    0.8250    0.0000 C   0  0  0  0  0  0  0  0  0  0  0  0
    1.1908    0.4125    0.0000 Cl  0  0  0  0  0  0  0  0  0  0  0  0
    1.1908    2.0625    0.0000 C   0  0  0  0  0  0  0  0  0  0  0  0
    1.9052    1.6500    0.0000 C   0  0  0  0  0  0  0  0  0  0  0  0
    2.6197    2.0625    0.0000 C   0  0  0  0  0  0  0  0  0  0  0  0
    3.3342    1.6500    0.0000 Cl  0  0  0  0  0  0  0  0  0  0  0  0
    2.6197    2.8875    0.0000 C   0  0  0  0  0  0  0  0  0  0  0  0
    1.9052    3.3000    0.0000 C   0  0  0  0  0  0  0  0  0  0  0  0
    1.1908    2.8875    0.0000 C   0  0  0  0  0  0  0  0  0  0  0  0
    0.4763    3.3000    0.0000 Cl  0  0  0  0  0  0  0  0  0  0  0  0
  2  1  1  0  0  0  0
  2  3  1  0  0  0  0
  4  2  2  0  0  0  0
  4  5  1  0  0  0  0
  6  4  1  0  0  0  0
  7  6  2  0  0  0  0
  7  8  1  0  0  0  0
  9  7  1  0  0  0  0
  1  9  2  0  0  0  0
  9 10  1  0  0  0  0
  1 11  1  0  0  0  0
 12 11  1  0  0  0  0
 13 12  2  0  0  0  0
 13 14  1  0  0  0  0
 15 13  1  0  0  0  0
 16 15  2  0  0  0  0
 17 16  1  0  0  0  0
 11 17  2  0  0  0  0
 17 18  1  0  0  0  0
M  END
> <ChemID>
101585

> <CAS>
52663-63-5

> <Original_SMILES>
Clc1cc(-c2c(Cl)c(Cl)cc(Cl)c2Cl)c(Cl)cc1

> <preferred_name>
2,2',3,5,5',6-Hexachlorobiphenyl

> <dsstox_substance_id>
DTXSID2074160

> <dsstox_compound_id>
DTXCID4041236

> <qc_level>
Public_High

> <Canonical_QSARr>
ClC1=CC(C2C(Cl)=C(Cl)C=C(Cl)C=2Cl)=C(Cl)C=C1

> <InChI_Code_QSARr>
InChI=1S/C12H4Cl6/c13-5-1-2-7(14)6(3-5)10-11(17)8(15)4-9(16)12(10)18/h1-4H

> <InChI Key_QSARr>
UHCLFIWDCYOTOL-UHFFFAOYSA-N

> <Salt_Solvent>


> <Salt_Solvent_ID>
0

> <MPID>
102750

> <HL Reference>
BRUNNER,S ET AL. (1990)

> <HL Temperature>
25

> <LogHL>
-4.229147988357858

> <Tr_1_Tst_0>
1

$$$$
101586
  Mrv171c012241914302D          

 19 20  0  0  0  0            999 V2000
    0.5640    1.5415    0.0000 C   0  0  0  0  0  0  0  0  0  0  0  0
   -0.1504    1.9540    0.0000 C   0  0  0  0  0  0  0  0  0  0  0  0
   -0.1504    2.7790    0.0000 Cl  0  0  0  0  0  0  0  0  0  0  0  0
   -0.8649    1.5415    0.0000 C   0  0  0  0  0  0  0  0  0  0  0  0
   -1.5794    1.9540    0.0000 Cl  0  0  0  0  0  0  0  0  0  0  0  0
   -0.8649    0.7165    0.0000 C   0  0  0  0  0  0  0  0  0  0  0  0
   -0.1504    0.3040    0.0000 C   0  0  0  0  0  0  0  0  0  0  0  0
   -0.1504   -0.5210    0.0000 Cl  0  0  0  0  0  0  0  0  0  0  0  0
    0.5640    0.7165    0.0000 C   0  0  0  0  0  0  0  0  0  0  0  0
    1.2785    0.3040    0.0000 Cl  0  0  0  0  0  0  0  0  0  0  0  0
    1.2785    1.9540    0.0000 C   0  0  0  0  0  0  0  0  0  0  0  0
    1.9930    1.5415    0.0000 C   0  0  0  0  0  0  0  0  0  0  0  0
    1.9930    0.7165    0.0000 Cl  0  0  0  0  0  0  0  0  0  0  0  0
    2.7075    1.9540    0.0000 C   0  0  0  0  0  0  0  0  0  0  0  0
    2.7075    2.7790    0.0000 C   0  0  0  0  0  0  0  0  0  0  0  0
    1.9930    3.1915    0.0000 C   0  0  0  0  0  0  0  0  0  0  0  0
    1.9930    4.0165    0.0000 Cl  0  0  0  0  0  0  0  0  0  0  0  0
    1.2785    2.7790    0.0000 C   0  0  0  0  0  0  0  0  0  0  0  0
    0.5640    3.1915    0.0000 Cl  0  0  0  0  0  0  0  0  0  0  0  0
  2  1  1  0  0  0  0
  2  3  1  0  0  0  0
  4  2  2  0  0  0  0
  4  5  1  0  0  0  0
  6  4  1  0  0  0  0
  7  6  2  0  0  0  0
  7  8  1  0  0  0  0
  9  7  1  0  0  0  0
  1  9  2  0  0  0  0
  9 10  1  0  0  0  0
  1 11  1  0  0  0  0
 12 11  1  0  0  0  0
 12 13  1  0  0  0  0
 14 12  2  0  0  0  0
 15 14  1  0  0  0  0
 16 15  2  0  0  0  0
 16 17  1  0  0  0  0
 18 16  1  0  0  0  0
 11 18  2  0  0  0  0
 18 19  1  0  0  0  0
M  END
> <ChemID>
101586

> <CAS>
52663-64-6

> <Original_SMILES>
Clc1ccc(Cl)c(Cl)c1-c1c(Cl)c(Cl)cc(Cl)c1Cl

> <preferred_name>
2,2',3,3',5,6,6'-Heptachlorobiphenyl

> <dsstox_substance_id>
DTXSID0073538

> <dsstox_compound_id>
DTXCID9041237

> <qc_level>
Public_High

> <Canonical_QSARr>
ClC1C=C(Cl)C(Cl)=C(C2=C(Cl)C(Cl)=CC=C2Cl)C=1Cl

> <InChI_Code_QSARr>
InChI=1S/C12H3Cl7/c13-4-1-2-5(14)10(17)8(4)9-11(18)6(15)3-7(16)12(9)19/h1-3H

> <InChI Key_QSARr>
XYHVYEUZLSYHDP-UHFFFAOYSA-N

> <Salt_Solvent>


> <Salt_Solvent_ID>
0

> <MPID>
102751

> <HL Reference>
BRUNNER,S ET AL. (1990)

> <HL Temperature>
25

> <LogHL>
-4.619788758288381

> <Tr_1_Tst_0>
1

$$$$
101587
  Mrv171c012241914302D          

 18 19  0  0  0  0            999 V2000
    0.7145    2.0625    0.0000 C   0  0  0  0  0  0  0  0  0  0  0  0
    1.4289    2.4750    0.0000 C   0  0  0  0  0  0  0  0  0  0  0  0
    1.4289    3.3000    0.0000 C   0  0  0  0  0  0  0  0  0  0  0  0
    0.7145    3.7125    0.0000 C   0  0  0  0  0  0  0  0  0  0  0  0
    0.7145    4.5375    0.0000 Cl  0  0  0  0  0  0  0  0  0  0  0  0
   -0.0000    3.3000    0.0000 C   0  0  0  0  0  0  0  0  0  0  0  0
   -0.7145    3.7125    0.0000 Cl  0  0  0  0  0  0  0  0  0  0  0  0
   -0.0000    2.4750    0.0000 C   0  0  0  0  0  0  0  0  0  0  0  0
   -0.7145    2.0625    0.0000 Cl  0  0  0  0  0  0  0  0  0  0  0  0
    0.7145    1.2375    0.0000 C   0  0  0  0  0  0  0  0  0  0  0  0
   -0.0000    0.8250    0.0000 C   0  0  0  0  0  0  0  0  0  0  0  0
   -0.0000    0.0000    0.0000 C   0  0  0  0  0  0  0  0  0  0  0  0
   -0.7145   -0.4125    0.0000 Cl  0  0  0  0  0  0  0  0  0  0  0  0
    0.7145   -0.4125    0.0000 C   0  0  0  0  0  0  0  0  0  0  0  0
    1.4289    0.0000    0.0000 C   0  0  0  0  0  0  0  0  0  0  0  0
    2.1434   -0.4125    0.0000 Cl  0  0  0  0  0  0  0  0  0  0  0  0
    1.4289    0.8250    0.0000 C   0  0  0  0  0  0  0  0  0  0  0  0
    2.1434    1.2375    0.0000 Cl  0  0  0  0  0  0  0  0  0  0  0  0
  2  1  1  0  0  0  0
  3  2  2  0  0  0  0
  4  3  1  0  0  0  0
  4  5  1  0  0  0  0
  6  4  2  0  0  0  0
  6  7  1  0  0  0  0
  8  6  1  0  0  0  0
  1  8  2  0  0  0  0
  8  9  1  0  0  0  0
  1 10  1  0  0  0  0
 11 10  1  0  0  0  0
 12 11  2  0  0  0  0
 12 13  1  0  0  0  0
 14 12  1  0  0  0  0
 15 14  2  0  0  0  0
 15 16  1  0  0  0  0
 17 15  1  0  0  0  0
 10 17  2  0  0  0  0
 17 18  1  0  0  0  0
M  END
> <ChemID>
101587

> <CAS>
52663-66-8

> <Original_SMILES>
Clc1cc(-c2ccc(Cl)c(Cl)c2Cl)c(Cl)c(Cl)c1

> <preferred_name>
2,2',3,3',4,5'-Hexachlorobiphenyl

> <dsstox_substance_id>
DTXSID5073539

> <dsstox_compound_id>
DTXCID9041239

> <qc_level>
Public_High

> <Canonical_QSARr>
ClC1C=CC(C2C=C(Cl)C=C(Cl)C=2Cl)=C(Cl)C=1Cl

> <InChI_Code_QSARr>
InChI=1S/C12H4Cl6/c13-5-3-7(10(16)9(15)4-5)6-1-2-8(14)12(18)11(6)17/h1-4H

> <InChI Key_QSARr>
YFSLABAYQDPWPF-UHFFFAOYSA-N

> <Salt_Solvent>


> <Salt_Solvent_ID>
0

> <MPID>
102752

> <HL Reference>
BRUNNER,S ET AL. (1990)

> <HL Temperature>
25

> <LogHL>
-4.431798275933026

> <Tr_1_Tst_0>
1

$$$$
101588
  Mrv171c012241914302D          

 19 20  0  0  0  0            999 V2000
    1.2033   -0.6513    0.0000 C   0  0  0  0  0  0  0  0  0  0  0  0
    0.4888   -1.0638    0.0000 C   0  0  0  0  0  0  0  0  0  0  0  0
   -0.2256   -0.6513    0.0000 C   0  0  0  0  0  0  0  0  0  0  0  0
   -0.2256    0.1737    0.0000 Cl  0  0  0  0  0  0  0  0  0  0  0  0
   -0.9401   -1.0638    0.0000 C   0  0  0  0  0  0  0  0  0  0  0  0
   -1.6546   -0.6513    0.0000 Cl  0  0  0  0  0  0  0  0  0  0  0  0
   -0.9401   -1.8888    0.0000 C   0  0  0  0  0  0  0  0  0  0  0  0
   -0.2256   -2.3013    0.0000 C   0  0  0  0  0  0  0  0  0  0  0  0
   -0.2256   -3.1263    0.0000 Cl  0  0  0  0  0  0  0  0  0  0  0  0
    0.4888   -1.8888    0.0000 C   0  0  0  0  0  0  0  0  0  0  0  0
    1.2033   -2.3013    0.0000 Cl  0  0  0  0  0  0  0  0  0  0  0  0
    1.9178   -1.0638    0.0000 C   0  0  0  0  0  0  0  0  0  0  0  0
    2.6323   -0.6513    0.0000 C   0  0  0  0  0  0  0  0  0  0  0  0
    3.3467   -1.0638    0.0000 Cl  0  0  0  0  0  0  0  0  0  0  0  0
    2.6323    0.1737    0.0000 C   0  0  0  0  0  0  0  0  0  0  0  0
    1.9178    0.5862    0.0000 C   0  0  0  0  0  0  0  0  0  0  0  0
    1.9178    1.4112    0.0000 Cl  0  0  0  0  0  0  0  0  0  0  0  0
    1.2033    0.1737    0.0000 C   0  0  0  0  0  0  0  0  0  0  0  0
    0.4888    0.5862    0.0000 Cl  0  0  0  0  0  0  0  0  0  0  0  0
  1  2  1  0  0  0  0
  3  2  1  0  0  0  0
  3  4  1  0  0  0  0
  5  3  2  0  0  0  0
  5  6  1  0  0  0  0
  7  5  1  0  0  0  0
  8  7  2  0  0  0  0
  8  9  1  0  0  0  0
 10  8  1  0  0  0  0
  2 10  2  0  0  0  0
 10 11  1  0  0  0  0
 12  1  1  0  0  0  0
 13 12  2  0  0  0  0
 13 14  1  0  0  0  0
 15 13  1  0  0  0  0
 16 15  2  0  0  0  0
 16 17  1  0  0  0  0
 18 16  1  0  0  0  0
  1 18  2  0  0  0  0
 18 19  1  0  0  0  0
M  END
> <ChemID>
101588

> <CAS>
52663-67-9

> <Original_SMILES>
Clc1cc(Cl)c(Cl)c(c1)-c1c(Cl)c(Cl)cc(Cl)c1Cl

> <preferred_name>
2,2',3,3',5,5',6-Heptachlorobiphenyl

> <dsstox_substance_id>
DTXSID2074162

> <dsstox_compound_id>
DTXCID8041240

> <qc_level>
Public_High

> <Canonical_QSARr>
ClC1C=C(Cl)C(Cl)=C(C2C=C(Cl)C=C(Cl)C=2Cl)C=1Cl

> <InChI_Code_QSARr>
InChI=1S/C12H3Cl7/c13-4-1-5(10(17)6(14)2-4)9-11(18)7(15)3-8(16)12(9)19/h1-3H

> <InChI Key_QSARr>
WCIBKXHMIXUQHK-UHFFFAOYSA-N

> <Salt_Solvent>


> <Salt_Solvent_ID>
0

> <MPID>
102753

> <HL Reference>
BRUNNER,S ET AL. (1990)

> <HL Temperature>
25

> <LogHL>
-4.638272163982396

> <Tr_1_Tst_0>
0

$$$$
101590
  Mrv171c012241914302D          

 19 20  0  0  0  0            999 V2000
    0.4888    1.9323    0.0000 C   0  0  0  0  0  0  0  0  0  0  0  0
    0.4888    2.7573    0.0000 C   0  0  0  0  0  0  0  0  0  0  0  0
   -0.2256    3.1698    0.0000 C   0  0  0  0  0  0  0  0  0  0  0  0
   -0.2256    3.9948    0.0000 Cl  0  0  0  0  0  0  0  0  0  0  0  0
   -0.9401    2.7573    0.0000 C   0  0  0  0  0  0  0  0  0  0  0  0
   -1.6546    3.1698    0.0000 Cl  0  0  0  0  0  0  0  0  0  0  0  0
   -0.9401    1.9323    0.0000 C   0  0  0  0  0  0  0  0  0  0  0  0
   -1.6546    1.5198    0.0000 Cl  0  0  0  0  0  0  0  0  0  0  0  0
   -0.2256    1.5198    0.0000 C   0  0  0  0  0  0  0  0  0  0  0  0
   -0.2256    0.6948    0.0000 Cl  0  0  0  0  0  0  0  0  0  0  0  0
    1.2033    1.5198    0.0000 C   0  0  0  0  0  0  0  0  0  0  0  0
    1.2033    0.6948    0.0000 C   0  0  0  0  0  0  0  0  0  0  0  0
    1.9178    0.2823    0.0000 C   0  0  0  0  0  0  0  0  0  0  0  0
    1.9178   -0.5427    0.0000 Cl  0  0  0  0  0  0  0  0  0  0  0  0
    2.6323    0.6948    0.0000 C   0  0  0  0  0  0  0  0  0  0  0  0
    2.6323    1.5198    0.0000 C   0  0  0  0  0  0  0  0  0  0  0  0
    3.3467    1.9323    0.0000 Cl  0  0  0  0  0  0  0  0  0  0  0  0
    1.9178    1.9323    0.0000 C   0  0  0  0  0  0  0  0  0  0  0  0
    1.9178    2.7573    0.0000 Cl  0  0  0  0  0  0  0  0  0  0  0  0
  2  1  1  0  0  0  0
  3  2  2  0  0  0  0
  3  4  1  0  0  0  0
  5  3  1  0  0  0  0
  5  6  1  0  0  0  0
  7  5  2  0  0  0  0
  7  8  1  0  0  0  0
  9  7  1  0  0  0  0
  1  9  2  0  0  0  0
  9 10  1  0  0  0  0
  1 11  1  0  0  0  0
 12 11  1  0  0  0  0
 13 12  2  0  0  0  0
 13 14  1  0  0  0  0
 15 13  1  0  0  0  0
 16 15  2  0  0  0  0
 16 17  1  0  0  0  0
 18 16  1  0  0  0  0
 11 18  2  0  0  0  0
 18 19  1  0  0  0  0
M  END
> <ChemID>
101590

> <CAS>
52663-74-8

> <Original_SMILES>
Clc1cc(Cl)c(Cl)c(c1)-c1cc(Cl)c(Cl)c(Cl)c1Cl

> <preferred_name>
2,2',3,3',4,5,5'-Heptachlorobiphenyl

> <dsstox_substance_id>
DTXSID7074167

> <dsstox_compound_id>
DTXCID8041246

> <qc_level>
Public_High

> <Canonical_QSARr>
ClC1C=C(Cl)C(Cl)=C(C=1)C1C=C(Cl)C(Cl)=C(Cl)C=1Cl

> <InChI_Code_QSARr>
InChI=1S/C12H3Cl7/c13-4-1-5(9(16)7(14)2-4)6-3-8(15)11(18)12(19)10(6)17/h1-3H

> <InChI Key_QSARr>
HOPMUCXYRNOABF-UHFFFAOYSA-N

> <Salt_Solvent>


> <Salt_Solvent_ID>
0

> <MPID>
102754

> <HL Reference>
BRUNNER,S ET AL. (1990)

> <HL Temperature>
25

> <LogHL>
-5.88605664769317

> <Tr_1_Tst_0>
1

$$$$
101591
  Mrv171c012241914302D          

 20 21  0  0  0  0            999 V2000
    0.3572    1.1963    0.0000 C   0  0  0  0  0  0  0  0  0  0  0  0
   -0.3572    1.6088    0.0000 C   0  0  0  0  0  0  0  0  0  0  0  0
   -0.3572    2.4338    0.0000 Cl  0  0  0  0  0  0  0  0  0  0  0  0
   -1.0717    1.1963    0.0000 C   0  0  0  0  0  0  0  0  0  0  0  0
   -1.7862    1.6088    0.0000 Cl  0  0  0  0  0  0  0  0  0  0  0  0
   -1.0717    0.3713    0.0000 C   0  0  0  0  0  0  0  0  0  0  0  0
   -0.3572   -0.0412    0.0000 C   0  0  0  0  0  0  0  0  0  0  0  0
   -0.3572   -0.8662    0.0000 Cl  0  0  0  0  0  0  0  0  0  0  0  0
    0.3572    0.3713    0.0000 C   0  0  0  0  0  0  0  0  0  0  0  0
    1.0717   -0.0412    0.0000 Cl  0  0  0  0  0  0  0  0  0  0  0  0
    1.0717    1.6088    0.0000 C   0  0  0  0  0  0  0  0  0  0  0  0
    1.7862    1.1963    0.0000 C   0  0  0  0  0  0  0  0  0  0  0  0
    2.5006    1.6088    0.0000 C   0  0  0  0  0  0  0  0  0  0  0  0
    3.2151    1.1963    0.0000 Cl  0  0  0  0  0  0  0  0  0  0  0  0
    2.5006    2.4338    0.0000 C   0  0  0  0  0  0  0  0  0  0  0  0
    3.2151    2.8463    0.0000 Cl  0  0  0  0  0  0  0  0  0  0  0  0
    1.7862    2.8463    0.0000 C   0  0  0  0  0  0  0  0  0  0  0  0
    1.7862    3.6713    0.0000 Cl  0  0  0  0  0  0  0  0  0  0  0  0
    1.0717    2.4338    0.0000 C   0  0  0  0  0  0  0  0  0  0  0  0
    0.3572    2.8463    0.0000 Cl  0  0  0  0  0  0  0  0  0  0  0  0
  2  1  1  0  0  0  0
  2  3  1  0  0  0  0
  4  2  2  0  0  0  0
  4  5  1  0  0  0  0
  6  4  1  0  0  0  0
  7  6  2  0  0  0  0
  7  8  1  0  0  0  0
  9  7  1  0  0  0  0
  1  9  2  0  0  0  0
  9 10  1  0  0  0  0
  1 11  1  0  0  0  0
 12 11  1  0  0  0  0
 13 12  2  0  0  0  0
 13 14  1  0  0  0  0
 15 13  1  0  0  0  0
 15 16  1  0  0  0  0
 17 15  2  0  0  0  0
 17 18  1  0  0  0  0
 19 17  1  0  0  0  0
 11 19  2  0  0  0  0
 19 20  1  0  0  0  0
M  END
> <ChemID>
101591

> <CAS>
52663-75-9

> <Original_SMILES>
Clc1cc(-c2c(Cl)c(Cl)cc(Cl)c2Cl)c(Cl)c(Cl)c1Cl

> <preferred_name>
2,2',3,3',4,5,5',6'-Octachlorobiphenyl

> <dsstox_substance_id>
DTXSID2074168

> <dsstox_compound_id>
DTXCID3041247

> <qc_level>
Public_High

> <Canonical_QSARr>
ClC1C=C(Cl)C(Cl)=C(C2C=C(Cl)C(Cl)=C(Cl)C=2Cl)C=1Cl

> <InChI_Code_QSARr>
InChI=1S/C12H2Cl8/c13-4-1-3(8(16)12(20)11(4)19)7-9(17)5(14)2-6(15)10(7)18/h1-2H

> <InChI Key_QSARr>
HJBYDWKNARZTMJ-UHFFFAOYSA-N

> <Salt_Solvent>


> <Salt_Solvent_ID>
0

> <MPID>
102755

> <HL Reference>
BRUNNER,S ET AL. (1990)

> <HL Temperature>
25

> <LogHL>
-4.999999999999988

> <Tr_1_Tst_0>
1

$$$$
101592
  Mrv171c012241914302D          

 20 21  0  0  0  0            999 V2000
    0.6788    1.5057    0.0000 C   0  0  0  0  0  0  0  0  0  0  0  0
   -0.0357    1.9182    0.0000 C   0  0  0  0  0  0  0  0  0  0  0  0
   -0.0357    2.7432    0.0000 Cl  0  0  0  0  0  0  0  0  0  0  0  0
   -0.7502    1.5057    0.0000 C   0  0  0  0  0  0  0  0  0  0  0  0
   -1.4646    1.9182    0.0000 Cl  0  0  0  0  0  0  0  0  0  0  0  0
   -0.7502    0.6807    0.0000 C   0  0  0  0  0  0  0  0  0  0  0  0
   -1.4646    0.2682    0.0000 Cl  0  0  0  0  0  0  0  0  0  0  0  0
   -0.0357    0.2682    0.0000 C   0  0  0  0  0  0  0  0  0  0  0  0
   -0.0357   -0.5568    0.0000 Cl  0  0  0  0  0  0  0  0  0  0  0  0
    0.6788    0.6807    0.0000 C   0  0  0  0  0  0  0  0  0  0  0  0
    1.3932    0.2682    0.0000 Cl  0  0  0  0  0  0  0  0  0  0  0  0
    1.3932    1.9182    0.0000 C   0  0  0  0  0  0  0  0  0  0  0  0
    2.1077    1.5057    0.0000 C   0  0  0  0  0  0  0  0  0  0  0  0
    2.8222    1.9182    0.0000 C   0  0  0  0  0  0  0  0  0  0  0  0
    2.8222    2.7432    0.0000 C   0  0  0  0  0  0  0  0  0  0  0  0
    3.5367    3.1557    0.0000 Cl  0  0  0  0  0  0  0  0  0  0  0  0
    2.1077    3.1557    0.0000 C   0  0  0  0  0  0  0  0  0  0  0  0
    2.1077    3.9807    0.0000 Cl  0  0  0  0  0  0  0  0  0  0  0  0
    1.3932    2.7432    0.0000 C   0  0  0  0  0  0  0  0  0  0  0  0
    0.6788    3.1557    0.0000 Cl  0  0  0  0  0  0  0  0  0  0  0  0
  2  1  1  0  0  0  0
  2  3  1  0  0  0  0
  4  2  2  0  0  0  0
  4  5  1  0  0  0  0
  6  4  1  0  0  0  0
  6  7  1  0  0  0  0
  8  6  2  0  0  0  0
  8  9  1  0  0  0  0
 10  8  1  0  0  0  0
  1 10  2  0  0  0  0
 10 11  1  0  0  0  0
  1 12  1  0  0  0  0
 13 12  1  0  0  0  0
 14 13  2  0  0  0  0
 15 14  1  0  0  0  0
 15 16  1  0  0  0  0
 17 15  2  0  0  0  0
 17 18  1  0  0  0  0
 19 17  1  0  0  0  0
 12 19  2  0  0  0  0
 19 20  1  0  0  0  0
M  END
> <ChemID>
101592

> <CAS>
52663-78-2

> <Original_SMILES>
Clc1ccc(-c2c(Cl)c(Cl)c(Cl)c(Cl)c2Cl)c(Cl)c1Cl

> <preferred_name>
2,2',3,3',4,4',5,6-Octachlorobiphenyl

> <dsstox_substance_id>
DTXSID1074171

> <dsstox_compound_id>
DTXCID2041250

> <qc_level>
Public_High

> <Canonical_QSARr>
ClC1C=CC(C2C(Cl)=C(Cl)C(Cl)=C(Cl)C=2Cl)=C(Cl)C=1Cl

> <InChI_Code_QSARr>
InChI=1S/C12H2Cl8/c13-4-2-1-3(6(14)7(4)15)5-8(16)10(18)12(20)11(19)9(5)17/h1-2H

> <InChI Key_QSARr>
JAHJITLFJSDRCG-UHFFFAOYSA-N

> <Salt_Solvent>


> <Salt_Solvent_ID>
0

> <MPID>
102756

> <HL Reference>
BRUNNER,S ET AL. (1990)

> <HL Temperature>
25

> <LogHL>
-4.958607314841773

> <Tr_1_Tst_0>
0

$$$$
101593
  Mrv171c012241914302D          

 18 19  0  0  0  0            999 V2000
    0.7145    1.5125    0.0000 C   0  0  0  0  0  0  0  0  0  0  0  0
   -0.0000    1.9250    0.0000 C   0  0  0  0  0  0  0  0  0  0  0  0
   -0.0000    2.7500    0.0000 Cl  0  0  0  0  0  0  0  0  0  0  0  0
   -0.7145    1.5125    0.0000 C   0  0  0  0  0  0  0  0  0  0  0  0
   -1.4290    1.9250    0.0000 Cl  0  0  0  0  0  0  0  0  0  0  0  0
   -0.7145    0.6875    0.0000 C   0  0  0  0  0  0  0  0  0  0  0  0
   -0.0000    0.2750    0.0000 C   0  0  0  0  0  0  0  0  0  0  0  0
   -0.0000   -0.5500    0.0000 Cl  0  0  0  0  0  0  0  0  0  0  0  0
    0.7145    0.6875    0.0000 C   0  0  0  0  0  0  0  0  0  0  0  0
    1.4289    0.2750    0.0000 Cl  0  0  0  0  0  0  0  0  0  0  0  0
    1.4289    1.9250    0.0000 C   0  0  0  0  0  0  0  0  0  0  0  0
    2.1434    1.5125    0.0000 C   0  0  0  0  0  0  0  0  0  0  0  0
    2.8579    1.9250    0.0000 C   0  0  0  0  0  0  0  0  0  0  0  0
    2.8579    2.7500    0.0000 C   0  0  0  0  0  0  0  0  0  0  0  0
    2.1434    3.1625    0.0000 C   0  0  0  0  0  0  0  0  0  0  0  0
    2.1434    3.9875    0.0000 Cl  0  0  0  0  0  0  0  0  0  0  0  0
    1.4289    2.7500    0.0000 C   0  0  0  0  0  0  0  0  0  0  0  0
    0.7145    3.1625    0.0000 Cl  0  0  0  0  0  0  0  0  0  0  0  0
  2  1  1  0  0  0  0
  2  3  1  0  0  0  0
  4  2  2  0  0  0  0
  4  5  1  0  0  0  0
  6  4  1  0  0  0  0
  7  6  2  0  0  0  0
  7  8  1  0  0  0  0
  9  7  1  0  0  0  0
  1  9  2  0  0  0  0
  9 10  1  0  0  0  0
  1 11  1  0  0  0  0
 12 11  1  0  0  0  0
 13 12  2  0  0  0  0
 14 13  1  0  0  0  0
 15 14  2  0  0  0  0
 15 16  1  0  0  0  0
 17 15  1  0  0  0  0
 11 17  2  0  0  0  0
 17 18  1  0  0  0  0
M  END
> <ChemID>
101593

> <CAS>
52704-70-8

> <Original_SMILES>
Clc1c(cccc1Cl)-c1c(Cl)c(Cl)cc(Cl)c1Cl

> <preferred_name>
2,2',3,3',5,6-Hexachlorobiphenyl

> <dsstox_substance_id>
DTXSID1074173

> <dsstox_compound_id>
DTXCID6041262

> <qc_level>
Public_High

> <Canonical_QSARr>
ClC1C=C(Cl)C(Cl)=C(C2C=CC=C(Cl)C=2Cl)C=1Cl

> <InChI_Code_QSARr>
InChI=1S/C12H4Cl6/c13-6-3-1-2-5(10(6)16)9-11(17)7(14)4-8(15)12(9)18/h1-4H

> <InChI Key_QSARr>
RVWLHPJFOKUPNM-UHFFFAOYSA-N

> <Salt_Solvent>


> <Salt_Solvent_ID>
0

> <MPID>
102757

> <HL Reference>
BRUNNER,S ET AL. (1990)

> <HL Temperature>
25

> <LogHL>
-4.309803919971487

> <Tr_1_Tst_0>
1

$$$$
101594
  Mrv171c012241914302D          

 18 19  0  0  0  0            999 V2000
    0.5557    2.0625    0.0000 C   0  0  0  0  0  0  0  0  0  0  0  0
    0.5557    2.8875    0.0000 C   0  0  0  0  0  0  0  0  0  0  0  0
   -0.1588    3.3000    0.0000 C   0  0  0  0  0  0  0  0  0  0  0  0
   -0.1588    4.1250    0.0000 Cl  0  0  0  0  0  0  0  0  0  0  0  0
   -0.8733    2.8875    0.0000 C   0  0  0  0  0  0  0  0  0  0  0  0
   -1.5877    3.3000    0.0000 Cl  0  0  0  0  0  0  0  0  0  0  0  0
   -0.8733    2.0625    0.0000 C   0  0  0  0  0  0  0  0  0  0  0  0
   -1.5877    1.6500    0.0000 Cl  0  0  0  0  0  0  0  0  0  0  0  0
   -0.1588    1.6500    0.0000 C   0  0  0  0  0  0  0  0  0  0  0  0
   -0.1588    0.8250    0.0000 Cl  0  0  0  0  0  0  0  0  0  0  0  0
    1.2702    1.6500    0.0000 C   0  0  0  0  0  0  0  0  0  0  0  0
    1.2702    0.8250    0.0000 C   0  0  0  0  0  0  0  0  0  0  0  0
    1.9846    0.4125    0.0000 C   0  0  0  0  0  0  0  0  0  0  0  0
    1.9846   -0.4125    0.0000 Cl  0  0  0  0  0  0  0  0  0  0  0  0
    2.6991    0.8250    0.0000 C   0  0  0  0  0  0  0  0  0  0  0  0
    2.6991    1.6500    0.0000 C   0  0  0  0  0  0  0  0  0  0  0  0
    1.9846    2.0625    0.0000 C   0  0  0  0  0  0  0  0  0  0  0  0
    1.9846    2.8875    0.0000 Cl  0  0  0  0  0  0  0  0  0  0  0  0
  2  1  1  0  0  0  0
  3  2  2  0  0  0  0
  3  4  1  0  0  0  0
  5  3  1  0  0  0  0
  5  6  1  0  0  0  0
  7  5  2  0  0  0  0
  7  8  1  0  0  0  0
  9  7  1  0  0  0  0
  1  9  2  0  0  0  0
  9 10  1  0  0  0  0
  1 11  1  0  0  0  0
 12 11  1  0  0  0  0
 13 12  2  0  0  0  0
 13 14  1  0  0  0  0
 15 13  1  0  0  0  0
 16 15  2  0  0  0  0
 17 16  1  0  0  0  0
 11 17  2  0  0  0  0
 17 18  1  0  0  0  0
M  END
> <ChemID>
101594

> <CAS>
52712-04-6

> <Original_SMILES>
Clc1cc(-c2cc(Cl)c(Cl)c(Cl)c2Cl)c(Cl)cc1

> <preferred_name>
2,2',3,4,5,5'-Hexachlorobiphenyl

> <dsstox_substance_id>
DTXSID6074174

> <dsstox_compound_id>
DTXCID5041271

> <qc_level>
Public_High

> <Canonical_QSARr>
ClC1C=CC(Cl)=CC=1C1C=C(Cl)C(Cl)=C(Cl)C=1Cl

> <InChI_Code_QSARr>
InChI=1S/C12H4Cl6/c13-5-1-2-8(14)6(3-5)7-4-9(15)11(17)12(18)10(7)16/h1-4H

> <InChI Key_QSARr>
UCLKLGIYGBLTSM-UHFFFAOYSA-N

> <Salt_Solvent>


> <Salt_Solvent_ID>
0

> <MPID>
102758

> <HL Reference>
BRUNNER,S ET AL. (1990)

> <HL Temperature>
25

> <LogHL>
-4.638272163982396

> <Tr_1_Tst_0>
1

$$$$
101595
  Mrv171c012241914302D          

 19 20  0  0  0  0            999 V2000
    0.6017    1.8671    0.0000 C   0  0  0  0  0  0  0  0  0  0  0  0
   -0.1128    2.2796    0.0000 C   0  0  0  0  0  0  0  0  0  0  0  0
   -0.1128    3.1046    0.0000 Cl  0  0  0  0  0  0  0  0  0  0  0  0
   -0.8273    1.8671    0.0000 C   0  0  0  0  0  0  0  0  0  0  0  0
   -1.5418    2.2796    0.0000 Cl  0  0  0  0  0  0  0  0  0  0  0  0
   -0.8273    1.0421    0.0000 C   0  0  0  0  0  0  0  0  0  0  0  0
   -1.5418    0.6296    0.0000 Cl  0  0  0  0  0  0  0  0  0  0  0  0
   -0.1128    0.6296    0.0000 C   0  0  0  0  0  0  0  0  0  0  0  0
   -0.1128   -0.1954    0.0000 Cl  0  0  0  0  0  0  0  0  0  0  0  0
    0.6017    1.0421    0.0000 C   0  0  0  0  0  0  0  0  0  0  0  0
    1.3161    0.6296    0.0000 Cl  0  0  0  0  0  0  0  0  0  0  0  0
    1.3161    2.2796    0.0000 C   0  0  0  0  0  0  0  0  0  0  0  0
    2.0306    1.8671    0.0000 C   0  0  0  0  0  0  0  0  0  0  0  0
    2.7451    2.2796    0.0000 C   0  0  0  0  0  0  0  0  0  0  0  0
    3.4595    1.8671    0.0000 Cl  0  0  0  0  0  0  0  0  0  0  0  0
    2.7451    3.1046    0.0000 C   0  0  0  0  0  0  0  0  0  0  0  0
    2.0306    3.5171    0.0000 C   0  0  0  0  0  0  0  0  0  0  0  0
    1.3161    3.1046    0.0000 C   0  0  0  0  0  0  0  0  0  0  0  0
    0.6017    3.5171    0.0000 Cl  0  0  0  0  0  0  0  0  0  0  0  0
  2  1  1  0  0  0  0
  2  3  1  0  0  0  0
  4  2  2  0  0  0  0
  4  5  1  0  0  0  0
  6  4  1  0  0  0  0
  6  7  1  0  0  0  0
  8  6  2  0  0  0  0
  8  9  1  0  0  0  0
 10  8  1  0  0  0  0
  1 10  2  0  0  0  0
 10 11  1  0  0  0  0
  1 12  1  0  0  0  0
 13 12  1  0  0  0  0
 14 13  2  0  0  0  0
 14 15  1  0  0  0  0
 16 14  1  0  0  0  0
 17 16  2  0  0  0  0
 18 17  1  0  0  0  0
 12 18  2  0  0  0  0
 18 19  1  0  0  0  0
M  END
> <ChemID>
101595

> <CAS>
52712-05-7

> <Original_SMILES>
Clc1cc(-c2c(Cl)c(Cl)c(Cl)c(Cl)c2Cl)c(Cl)cc1

> <preferred_name>
2,2',3,4,5,5',6-Heptachlorobiphenyl

> <dsstox_substance_id>
DTXSID1074175

> <dsstox_compound_id>
DTXCID0041272

> <qc_level>
Public_High

> <Canonical_QSARr>
ClC1=CC(C2C(Cl)=C(Cl)C(Cl)=C(Cl)C=2Cl)=C(Cl)C=C1

> <InChI_Code_QSARr>
InChI=1S/C12H3Cl7/c13-4-1-2-6(14)5(3-4)7-8(15)10(17)12(19)11(18)9(7)16/h1-3H

> <InChI Key_QSARr>
PYZHTHZEHQHHEN-UHFFFAOYSA-N

> <Salt_Solvent>


> <Salt_Solvent_ID>
0

> <MPID>
102759

> <HL Reference>
BRUNNER,S ET AL. (1990)

> <HL Temperature>
25

> <LogHL>
-4.795880017344078

> <Tr_1_Tst_0>
1

$$$$
101596
  Mrv171c012241914302D          

 18 19  0  0  0  0            999 V2000
    0.4366    1.9021    0.0000 C   0  0  0  0  0  0  0  0  0  0  0  0
    0.4366    2.7271    0.0000 C   0  0  0  0  0  0  0  0  0  0  0  0
   -0.2779    3.1396    0.0000 C   0  0  0  0  0  0  0  0  0  0  0  0
   -0.2779    3.9646    0.0000 Cl  0  0  0  0  0  0  0  0  0  0  0  0
   -0.9923    2.7271    0.0000 C   0  0  0  0  0  0  0  0  0  0  0  0
   -0.9923    1.9021    0.0000 C   0  0  0  0  0  0  0  0  0  0  0  0
   -1.7068    1.4896    0.0000 Cl  0  0  0  0  0  0  0  0  0  0  0  0
   -0.2779    1.4896    0.0000 C   0  0  0  0  0  0  0  0  0  0  0  0
   -0.2779    0.6646    0.0000 Cl  0  0  0  0  0  0  0  0  0  0  0  0
    1.1511    1.4896    0.0000 C   0  0  0  0  0  0  0  0  0  0  0  0
    1.1511    0.6646    0.0000 C   0  0  0  0  0  0  0  0  0  0  0  0
    0.4366    0.2521    0.0000 Cl  0  0  0  0  0  0  0  0  0  0  0  0
    1.8656    0.2521    0.0000 C   0  0  0  0  0  0  0  0  0  0  0  0
    2.5800    0.6646    0.0000 C   0  0  0  0  0  0  0  0  0  0  0  0
    2.5800    1.4896    0.0000 C   0  0  0  0  0  0  0  0  0  0  0  0
    3.2945    1.9021    0.0000 Cl  0  0  0  0  0  0  0  0  0  0  0  0
    1.8656    1.9021    0.0000 C   0  0  0  0  0  0  0  0  0  0  0  0
    1.8656    2.7271    0.0000 Cl  0  0  0  0  0  0  0  0  0  0  0  0
  2  1  1  0  0  0  0
  3  2  2  0  0  0  0
  3  4  1  0  0  0  0
  5  3  1  0  0  0  0
  6  5  2  0  0  0  0
  6  7  1  0  0  0  0
  8  6  1  0  0  0  0
  1  8  2  0  0  0  0
  8  9  1  0  0  0  0
  1 10  1  0  0  0  0
 11 10  1  0  0  0  0
 11 12  1  0  0  0  0
 13 11  2  0  0  0  0
 14 13  1  0  0  0  0
 15 14  2  0  0  0  0
 15 16  1  0  0  0  0
 17 15  1  0  0  0  0
 10 17  2  0  0  0  0
 17 18  1  0  0  0  0
M  END
> <ChemID>
101596

> <CAS>
52744-13-5

> <Original_SMILES>
Clc1cc(-c2c(Cl)c(Cl)ccc2Cl)c(Cl)c(Cl)c1

> <preferred_name>
2,2',3,3',5,6'-Hexachlorobiphenyl

> <dsstox_substance_id>
DTXSID9073541

> <dsstox_compound_id>
DTXCID4041286

> <qc_level>
Public_High

> <Canonical_QSARr>
ClC1C=C(Cl)C(Cl)=C(C=1)C1=C(Cl)C(Cl)=CC=C1Cl

> <InChI_Code_QSARr>
InChI=1S/C12H4Cl6/c13-5-3-6(11(17)9(16)4-5)10-7(14)1-2-8(15)12(10)18/h1-4H

> <InChI Key_QSARr>
UUTNFLRSJBQQJM-UHFFFAOYSA-N

> <Salt_Solvent>


> <Salt_Solvent_ID>
0

> <MPID>
102760

> <HL Reference>
BRUNNER,S ET AL. (1990)

> <HL Temperature>
25

> <LogHL>
-4.251811972993801

> <Tr_1_Tst_0>
0

$$$$
101601
  Mrv171c012241914302D          

 16 17  0  0  0  0            999 V2000
    0.7145   -2.8875    0.0000 C   0  0  0  0  0  0  0  0  0  0  0  0
    1.4289   -2.4750    0.0000 C   0  0  0  0  0  0  0  0  0  0  0  0
    1.4289   -1.6500    0.0000 C   0  0  0  0  0  0  0  0  0  0  0  0
    0.7145   -1.2375    0.0000 C   0  0  0  0  0  0  0  0  0  0  0  0
    0.7145   -0.4125    0.0000 C   0  0  0  0  0  0  0  0  0  0  0  0
    1.4289    0.0000    0.0000 C   0  0  0  0  0  0  0  0  0  0  0  0
    2.1434   -0.4125    0.0000 Cl  0  0  0  0  0  0  0  0  0  0  0  0
    1.4289    0.8250    0.0000 C   0  0  0  0  0  0  0  0  0  0  0  0
    2.1434    1.2375    0.0000 Cl  0  0  0  0  0  0  0  0  0  0  0  0
    0.7145    1.2375    0.0000 C   0  0  0  0  0  0  0  0  0  0  0  0
    0.7145    2.0625    0.0000 Cl  0  0  0  0  0  0  0  0  0  0  0  0
   -0.0000    0.8250    0.0000 C   0  0  0  0  0  0  0  0  0  0  0  0
   -0.0000    0.0000    0.0000 C   0  0  0  0  0  0  0  0  0  0  0  0
   -0.7145   -0.4125    0.0000 Cl  0  0  0  0  0  0  0  0  0  0  0  0
   -0.0000   -1.6500    0.0000 C   0  0  0  0  0  0  0  0  0  0  0  0
   -0.0000   -2.4750    0.0000 C   0  0  0  0  0  0  0  0  0  0  0  0
  2  1  1  0  0  0  0
  3  2  2  0  0  0  0
  4  3  1  0  0  0  0
  4  5  1  0  0  0  0
  6  5  1  0  0  0  0
  6  7  1  0  0  0  0
  8  6  2  0  0  0  0
  8  9  1  0  0  0  0
 10  8  1  0  0  0  0
 10 11  1  0  0  0  0
 12 10  2  0  0  0  0
 13 12  1  0  0  0  0
  5 13  2  0  0  0  0
 13 14  1  0  0  0  0
 15  4  2  0  0  0  0
 16 15  1  0  0  0  0
  1 16  2  0  0  0  0
M  END
> <ChemID>
101601

> <CAS>
54230-22-7

> <Original_SMILES>
Clc1cc(Cl)c(-c2ccccc2)c(Cl)c1Cl

> <preferred_name>
2,3,4,6-Tetrachlorobiphenyl

> <dsstox_substance_id>
DTXSID1074177

> <dsstox_compound_id>
DTXCID5041645

> <qc_level>
Public_High

> <Canonical_QSARr>
ClC1C=C(Cl)C(Cl)=C(Cl)C=1C1C=CC=CC=1

> <InChI_Code_QSARr>
InChI=1S/C12H6Cl4/c13-8-6-9(14)11(15)12(16)10(8)7-4-2-1-3-5-7/h1-6H

> <InChI Key_QSARr>
HOBRTVXSIVSXIA-UHFFFAOYSA-N

> <Salt_Solvent>


> <Salt_Solvent_ID>
0

> <MPID>
102761

> <HL Reference>
BRUNNER,S ET AL. (1990)

> <HL Temperature>
25

> <LogHL>
-3.6777807052660823

> <Tr_1_Tst_0>
0

$$$$
101603
  Mrv171c012241914302D          

 18 19  0  0  0  0            999 V2000
    0.6351    1.9250    0.0000 C   0  0  0  0  0  0  0  0  0  0  0  0
    0.6351    2.7500    0.0000 C   0  0  0  0  0  0  0  0  0  0  0  0
   -0.0794    3.1625    0.0000 C   0  0  0  0  0  0  0  0  0  0  0  0
   -0.0794    3.9875    0.0000 Cl  0  0  0  0  0  0  0  0  0  0  0  0
   -0.7939    2.7500    0.0000 C   0  0  0  0  0  0  0  0  0  0  0  0
   -1.5083    3.1625    0.0000 Cl  0  0  0  0  0  0  0  0  0  0  0  0
   -0.7939    1.9250    0.0000 C   0  0  0  0  0  0  0  0  0  0  0  0
   -1.5083    1.5125    0.0000 Cl  0  0  0  0  0  0  0  0  0  0  0  0
   -0.0794    1.5125    0.0000 C   0  0  0  0  0  0  0  0  0  0  0  0
   -0.0794    0.6875    0.0000 Cl  0  0  0  0  0  0  0  0  0  0  0  0
    1.3495    1.5125    0.0000 C   0  0  0  0  0  0  0  0  0  0  0  0
    1.3495    0.6875    0.0000 C   0  0  0  0  0  0  0  0  0  0  0  0
    2.0640    0.2750    0.0000 C   0  0  0  0  0  0  0  0  0  0  0  0
    2.7785    0.6875    0.0000 C   0  0  0  0  0  0  0  0  0  0  0  0
    2.7785    1.5125    0.0000 C   0  0  0  0  0  0  0  0  0  0  0  0
    3.4930    1.9250    0.0000 Cl  0  0  0  0  0  0  0  0  0  0  0  0
    2.0640    1.9250    0.0000 C   0  0  0  0  0  0  0  0  0  0  0  0
    2.0640    2.7500    0.0000 Cl  0  0  0  0  0  0  0  0  0  0  0  0
  2  1  1  0  0  0  0
  3  2  2  0  0  0  0
  3  4  1  0  0  0  0
  5  3  1  0  0  0  0
  5  6  1  0  0  0  0
  7  5  2  0  0  0  0
  7  8  1  0  0  0  0
  9  7  1  0  0  0  0
  1  9  2  0  0  0  0
  9 10  1  0  0  0  0
  1 11  1  0  0  0  0
 12 11  1  0  0  0  0
 13 12  2  0  0  0  0
 14 13  1  0  0  0  0
 15 14  2  0  0  0  0
 15 16  1  0  0  0  0
 17 15  1  0  0  0  0
 11 17  2  0  0  0  0
 17 18  1  0  0  0  0
M  END
> <ChemID>
101603

> <CAS>
55215-18-4

> <Original_SMILES>
Clc1c(cccc1Cl)-c1cc(Cl)c(Cl)c(Cl)c1Cl

> <preferred_name>
2,2',3,3',4,5-Hexachlorobiphenyl

> <dsstox_substance_id>
DTXSID8073554

> <dsstox_compound_id>
DTXCID5041855

> <qc_level>
Public_High

> <Canonical_QSARr>
ClC1=CC(C2C=CC=C(Cl)C=2Cl)=C(Cl)C(Cl)=C1Cl

> <InChI_Code_QSARr>
InChI=1S/C12H4Cl6/c13-7-3-1-2-5(9(7)15)6-4-8(14)11(17)12(18)10(6)16/h1-4H

> <InChI Key_QSARr>
VQQKIXKPMJTUMP-UHFFFAOYSA-N

> <Salt_Solvent>


> <Salt_Solvent_ID>
0

> <MPID>
102762

> <HL Reference>
BRUNNER,S ET AL. (1990)

> <HL Temperature>
25

> <LogHL>
-4.5376020021010435

> <Tr_1_Tst_0>
1

$$$$
101611
  Mrv171c012241914302D          

 15 16  0  0  0  0            999 V2000
    0.3810    1.8150    0.0000 C   0  0  0  0  0  0  0  0  0  0  0  0
   -0.3334    2.2275    0.0000 C   0  0  0  0  0  0  0  0  0  0  0  0
   -0.3334    3.0525    0.0000 Cl  0  0  0  0  0  0  0  0  0  0  0  0
   -1.0479    1.8150    0.0000 C   0  0  0  0  0  0  0  0  0  0  0  0
   -1.0479    0.9900    0.0000 C   0  0  0  0  0  0  0  0  0  0  0  0
   -0.3334    0.5775    0.0000 C   0  0  0  0  0  0  0  0  0  0  0  0
   -0.3334   -0.2475    0.0000 Cl  0  0  0  0  0  0  0  0  0  0  0  0
    0.3810    0.9900    0.0000 C   0  0  0  0  0  0  0  0  0  0  0  0
    1.0955    0.5775    0.0000 Cl  0  0  0  0  0  0  0  0  0  0  0  0
    1.0955    2.2275    0.0000 C   0  0  0  0  0  0  0  0  0  0  0  0
    1.8100    1.8150    0.0000 C   0  0  0  0  0  0  0  0  0  0  0  0
    2.5245    2.2275    0.0000 C   0  0  0  0  0  0  0  0  0  0  0  0
    2.5245    3.0525    0.0000 C   0  0  0  0  0  0  0  0  0  0  0  0
    1.8100    3.4650    0.0000 C   0  0  0  0  0  0  0  0  0  0  0  0
    1.0955    3.0525    0.0000 C   0  0  0  0  0  0  0  0  0  0  0  0
  2  1  1  0  0  0  0
  2  3  1  0  0  0  0
  4  2  2  0  0  0  0
  5  4  1  0  0  0  0
  6  5  2  0  0  0  0
  6  7  1  0  0  0  0
  8  6  1  0  0  0  0
  1  8  2  0  0  0  0
  8  9  1  0  0  0  0
  1 10  1  0  0  0  0
 11 10  1  0  0  0  0
 12 11  2  0  0  0  0
 13 12  1  0  0  0  0
 14 13  2  0  0  0  0
 15 14  1  0  0  0  0
 10 15  2  0  0  0  0
M  END
> <ChemID>
101611

> <CAS>
55702-45-9

> <Original_SMILES>
Clc1c(-c2ccccc2)c(Cl)ccc1Cl

> <preferred_name>
2,3,6-Trichlorobiphenyl

> <dsstox_substance_id>
DTXSID3073557

> <dsstox_compound_id>
DTXCID4041949

> <qc_level>
Public_High

> <Canonical_QSARr>
ClC1=CC=C(Cl)C(C2C=CC=CC=2)=C1Cl

> <InChI_Code_QSARr>
InChI=1S/C12H7Cl3/c13-9-6-7-10(14)12(15)11(9)8-4-2-1-3-5-8/h1-7H

> <InChI Key_QSARr>
LVROLHVSYNLFBE-UHFFFAOYSA-N

> <Salt_Solvent>


> <Salt_Solvent_ID>
0

> <MPID>
102763

> <HL Reference>
BRUNNER,S ET AL. (1990)

> <HL Temperature>
25

> <LogHL>
-3.6575773191777925

> <Tr_1_Tst_0>
1

$$$$
101615
  Mrv171c012241914302D          

 17 18  0  0  0  0            999 V2000
    2.3956   -2.3053    0.0000 C   0  0  0  0  0  0  0  0  0  0  0  0
    3.1101   -1.8928    0.0000 Cl  0  0  0  0  0  0  0  0  0  0  0  0
    1.6811   -1.8928    0.0000 C   0  0  0  0  0  0  0  0  0  0  0  0
    1.6811   -1.0678    0.0000 Cl  0  0  0  0  0  0  0  0  0  0  0  0
    0.9667   -2.3053    0.0000 C   0  0  0  0  0  0  0  0  0  0  0  0
    0.9667   -3.1303    0.0000 C   0  0  0  0  0  0  0  0  0  0  0  0
    0.2522   -3.5428    0.0000 C   0  0  0  0  0  0  0  0  0  0  0  0
   -0.4623   -3.1303    0.0000 C   0  0  0  0  0  0  0  0  0  0  0  0
   -0.4623   -2.3053    0.0000 Cl  0  0  0  0  0  0  0  0  0  0  0  0
   -1.1768   -3.5428    0.0000 C   0  0  0  0  0  0  0  0  0  0  0  0
   -1.1768   -4.3678    0.0000 C   0  0  0  0  0  0  0  0  0  0  0  0
   -1.8912   -4.7803    0.0000 Cl  0  0  0  0  0  0  0  0  0  0  0  0
   -0.4623   -4.7803    0.0000 C   0  0  0  0  0  0  0  0  0  0  0  0
    0.2522   -4.3678    0.0000 C   0  0  0  0  0  0  0  0  0  0  0  0
    0.9667   -4.7803    0.0000 Cl  0  0  0  0  0  0  0  0  0  0  0  0
    1.6811   -3.5428    0.0000 C   0  0  0  0  0  0  0  0  0  0  0  0
    2.3956   -3.1303    0.0000 C   0  0  0  0  0  0  0  0  0  0  0  0
  1  2  1  0  0  0  0
  3  1  1  0  0  0  0
  3  4  1  0  0  0  0
  5  3  2  0  0  0  0
  6  5  1  0  0  0  0
  6  7  1  0  0  0  0
  8  7  1  0  0  0  0
  8  9  1  0  0  0  0
 10  8  2  0  0  0  0
 11 10  1  0  0  0  0
 11 12  1  0  0  0  0
 13 11  2  0  0  0  0
 14 13  1  0  0  0  0
  7 14  2  0  0  0  0
 14 15  1  0  0  0  0
 16  6  2  0  0  0  0
 17 16  1  0  0  0  0
  1 17  2  0  0  0  0
M  END
> <ChemID>
101615

> <CAS>
56558-17-9

> <Original_SMILES>
Clc1cc(Cl)c(-c2cc(Cl)c(Cl)cc2)c(Cl)c1

> <preferred_name>
2,3',4,4',6-Pentachlorobiphenyl

> <dsstox_substance_id>
DTXSID5074185

> <dsstox_compound_id>
DTXCID9042091

> <qc_level>
Public_High

> <Canonical_QSARr>
ClC1C=C(Cl)C=C(Cl)C=1C1C=C(Cl)C(Cl)=CC=1

> <InChI_Code_QSARr>
InChI=1S/C12H5Cl5/c13-7-4-10(16)12(11(17)5-7)6-1-2-8(14)9(15)3-6/h1-5H

> <InChI Key_QSARr>
OAEQTHQGPZKTQP-UHFFFAOYSA-N

> <Salt_Solvent>


> <Salt_Solvent_ID>
0

> <MPID>
102764

> <HL Reference>
BRUNNER,S ET AL. (1990)

> <HL Temperature>
25

> <LogHL>
-4.130768280269022

> <Tr_1_Tst_0>
1

$$$$
101630
  Mrv171c012241914302D          

 16 17  0  0  0  0            999 V2000
    3.2598   -1.2633    0.0000 Cl  0  0  0  0  0  0  0  0  0  0  0  0
    2.5453   -0.8508    0.0000 C   0  0  0  0  0  0  0  0  0  0  0  0
    2.5453   -0.0258    0.0000 C   0  0  0  0  0  0  0  0  0  0  0  0
    1.8308    0.3867    0.0000 C   0  0  0  0  0  0  0  0  0  0  0  0
    1.8308    1.2117    0.0000 Cl  0  0  0  0  0  0  0  0  0  0  0  0
    1.1163   -0.0258    0.0000 C   0  0  0  0  0  0  0  0  0  0  0  0
    1.1163   -0.8508    0.0000 C   0  0  0  0  0  0  0  0  0  0  0  0
    0.4019   -1.2633    0.0000 Cl  0  0  0  0  0  0  0  0  0  0  0  0
    1.8308   -1.2633    0.0000 C   0  0  0  0  0  0  0  0  0  0  0  0
    1.8308   -2.0883    0.0000 C   0  0  0  0  0  0  0  0  0  0  0  0
    1.1163   -2.5008    0.0000 C   0  0  0  0  0  0  0  0  0  0  0  0
    1.1163   -3.3258    0.0000 C   0  0  0  0  0  0  0  0  0  0  0  0
    0.4019   -3.7383    0.0000 Cl  0  0  0  0  0  0  0  0  0  0  0  0
    1.8308   -3.7383    0.0000 C   0  0  0  0  0  0  0  0  0  0  0  0
    2.5453   -3.3258    0.0000 C   0  0  0  0  0  0  0  0  0  0  0  0
    2.5453   -2.5008    0.0000 C   0  0  0  0  0  0  0  0  0  0  0  0
  1  2  1  0  0  0  0
  3  2  1  0  0  0  0
  4  3  2  0  0  0  0
  4  5  1  0  0  0  0
  6  4  1  0  0  0  0
  7  6  2  0  0  0  0
  7  8  1  0  0  0  0
  9  7  1  0  0  0  0
  2  9  2  0  0  0  0
  9 10  1  0  0  0  0
 11 10  1  0  0  0  0
 12 11  2  0  0  0  0
 12 13  1  0  0  0  0
 14 12  1  0  0  0  0
 15 14  2  0  0  0  0
 16 15  1  0  0  0  0
 10 16  2  0  0  0  0
M  END
> <ChemID>
101630

> <CAS>
60233-24-1

> <Original_SMILES>
Clc1cc(Cl)c(-c2cc(Cl)ccc2)c(Cl)c1

> <preferred_name>
2,3',4,6-Tetrachlorobiphenyl

> <dsstox_substance_id>
DTXSID4074192

> <dsstox_compound_id>
DTXCID7042776

> <qc_level>
Public_High

> <Canonical_QSARr>
ClC1C=C(Cl)C=C(Cl)C=1C1C=C(Cl)C=CC=1

> <InChI_Code_QSARr>
InChI=1S/C12H6Cl4/c13-8-3-1-2-7(4-8)12-10(15)5-9(14)6-11(12)16/h1-6H

> <InChI Key_QSARr>
CKUBKYSLNCKBOI-UHFFFAOYSA-N

> <Salt_Solvent>


> <Salt_Solvent_ID>
0

> <MPID>
102765

> <HL Reference>
BRUNNER,S ET AL. (1990)

> <HL Temperature>
25

> <LogHL>
-3.6777807052660823

> <Tr_1_Tst_0>
1

$$$$
101634
  Mrv171c012241914302D          

 18 19  0  0  0  0            999 V2000
    2.2228   -0.1833    0.0000 Cl  0  0  0  0  0  0  0  0  0  0  0  0
    1.5083   -0.5958    0.0000 C   0  0  0  0  0  0  0  0  0  0  0  0
    0.7938   -0.1833    0.0000 C   0  0  0  0  0  0  0  0  0  0  0  0
    0.7938    0.6417    0.0000 Cl  0  0  0  0  0  0  0  0  0  0  0  0
    0.0794   -0.5958    0.0000 C   0  0  0  0  0  0  0  0  0  0  0  0
   -0.6351   -0.1833    0.0000 Cl  0  0  0  0  0  0  0  0  0  0  0  0
    0.0794   -1.4208    0.0000 C   0  0  0  0  0  0  0  0  0  0  0  0
    0.7938   -1.8333    0.0000 C   0  0  0  0  0  0  0  0  0  0  0  0
    0.7938   -2.6583    0.0000 Cl  0  0  0  0  0  0  0  0  0  0  0  0
    1.5083   -1.4208    0.0000 C   0  0  0  0  0  0  0  0  0  0  0  0
    2.2228   -1.8333    0.0000 C   0  0  0  0  0  0  0  0  0  0  0  0
    2.2228   -2.6583    0.0000 C   0  0  0  0  0  0  0  0  0  0  0  0
    1.5083   -3.0708    0.0000 Cl  0  0  0  0  0  0  0  0  0  0  0  0
    2.9372   -3.0708    0.0000 C   0  0  0  0  0  0  0  0  0  0  0  0
    2.9372   -3.8958    0.0000 Cl  0  0  0  0  0  0  0  0  0  0  0  0
    3.6517   -2.6583    0.0000 C   0  0  0  0  0  0  0  0  0  0  0  0
    3.6517   -1.8333    0.0000 C   0  0  0  0  0  0  0  0  0  0  0  0
    2.9372   -1.4208    0.0000 C   0  0  0  0  0  0  0  0  0  0  0  0
  1  2  1  0  0  0  0
  3  2  1  0  0  0  0
  3  4  1  0  0  0  0
  5  3  2  0  0  0  0
  5  6  1  0  0  0  0
  7  5  1  0  0  0  0
  8  7  2  0  0  0  0
  8  9  1  0  0  0  0
 10  8  1  0  0  0  0
  2 10  2  0  0  0  0
 10 11  1  0  0  0  0
 12 11  1  0  0  0  0
 12 13  1  0  0  0  0
 14 12  2  0  0  0  0
 14 15  1  0  0  0  0
 16 14  1  0  0  0  0
 17 16  2  0  0  0  0
 18 17  1  0  0  0  0
 11 18  2  0  0  0  0
M  END
> <ChemID>
101634

> <CAS>
61798-70-7

> <Original_SMILES>
Clc1cc(Cl)c(-c2cccc(Cl)c2Cl)c(Cl)c1Cl

> <preferred_name>
PCB 131

> <dsstox_substance_id>
DTXSID8074780

> <dsstox_compound_id>
DTXCID6043125

> <qc_level>
Public_High

> <Canonical_QSARr>
ClC1C(Cl)=C(C2=CC=CC(Cl)=C2Cl)C(Cl)=CC=1Cl

> <InChI_Code_QSARr>
InChI=1S/C12H4Cl6/c13-6-3-1-2-5(10(6)16)9-7(14)4-8(15)11(17)12(9)18/h1-4H

> <InChI Key_QSARr>
WDLTVNWWEZJMPF-UHFFFAOYSA-N

> <Salt_Solvent>


> <Salt_Solvent_ID>
0

> <MPID>
102766

> <HL Reference>
BRUNNER,S ET AL. (1990)

> <HL Temperature>
25

> <LogHL>
-4.408935392973488

> <Tr_1_Tst_0>
1

$$$$
101644
  Mrv171c012241914302D          

 32 34  0  0  0  0            999 V2000
    8.4794   -0.0524    0.0000 C   0  0  0  0  0  0  0  0  0  0  0  0
    7.7649   -0.4649    0.0000 C   0  0  0  0  0  0  0  0  0  0  0  0
    7.0504   -0.0524    0.0000 C   0  0  0  0  0  0  0  0  0  0  0  0
    6.3359   -0.4649    0.0000 C   0  0  0  0  0  0  0  0  0  0  0  0
    6.3359   -1.2899    0.0000 C   0  0  0  0  0  0  0  0  0  0  0  0
    5.6215   -1.7024    0.0000 O   0  0  0  0  0  0  0  0  0  0  0  0
    5.6215   -2.5274    0.0000 P   0  0  0  0  0  0  0  0  0  0  0  0
    5.6215   -3.3524    0.0000 O   0  0  0  0  0  0  0  0  0  0  0  0
    4.9070   -3.7649    0.0000 C   0  0  0  0  0  0  0  0  0  0  0  0
    4.1925   -3.3524    0.0000 C   0  0  0  0  0  0  0  0  0  0  0  0
    3.4781   -3.7649    0.0000 C   0  0  0  0  0  0  0  0  0  0  0  0
    3.4781   -4.5899    0.0000 C   0  0  0  0  0  0  0  0  0  0  0  0
    4.1925   -5.0024    0.0000 C   0  0  0  0  0  0  0  0  0  0  0  0
    4.9070   -4.5899    0.0000 C   0  0  0  0  0  0  0  0  0  0  0  0
    6.4465   -2.5274    0.0000 O   0  0  0  0  0  0  0  0  0  0  0  0
    6.8590   -3.2419    0.0000 C   0  0  0  0  0  0  0  0  0  0  0  0
    6.4465   -3.9563    0.0000 C   0  0  0  0  0  0  0  0  0  0  0  0
    6.8590   -4.6708    0.0000 C   0  0  0  0  0  0  0  0  0  0  0  0
    7.6840   -4.6708    0.0000 C   0  0  0  0  0  0  0  0  0  0  0  0
    8.0965   -3.9563    0.0000 C   0  0  0  0  0  0  0  0  0  0  0  0
    7.6840   -3.2419    0.0000 C   0  0  0  0  0  0  0  0  0  0  0  0
    4.7965   -2.5274    0.0000 O   0  0  0  0  0  0  0  0  0  0  0  0
    7.0504   -1.7024    0.0000 C   0  0  0  0  0  0  0  0  0  0  0  0
    7.7649   -1.2899    0.0000 C   0  0  0  0  0  0  0  0  0  0  0  0
    9.1938   -0.4649    0.0000 C   0  0  0  0  0  0  0  0  0  0  0  0
    9.9083   -0.0524    0.0000 C   0  0  0  0  0  0  0  0  0  0  0  0
   10.6228   -0.4649    0.0000 C   0  0  0  0  0  0  0  0  0  0  0  0
   11.3372   -0.0524    0.0000 C   0  0  0  0  0  0  0  0  0  0  0  0
   12.0517   -0.4649    0.0000 C   0  0  0  0  0  0  0  0  0  0  0  0
   12.7662   -0.0524    0.0000 C   0  0  0  0  0  0  0  0  0  0  0  0
   13.4807   -0.4649    0.0000 C   0  0  0  0  0  0  0  0  0  0  0  0
   14.1951   -0.0524    0.0000 C   0  0  0  0  0  0  0  0  0  0  0  0
  1  2  1  0  0  0  0
  3  2  2  0  0  0  0
  4  3  1  0  0  0  0
  5  4  2  0  0  0  0
  5  6  1  0  0  0  0
  6  7  1  0  0  0  0
  7  8  1  0  0  0  0
  8  9  1  0  0  0  0
 10  9  2  0  0  0  0
 11 10  1  0  0  0  0
 12 11  2  0  0  0  0
 13 12  1  0  0  0  0
 14 13  2  0  0  0  0
  9 14  1  0  0  0  0
  7 15  1  0  0  0  0
 15 16  1  0  0  0  0
 17 16  2  0  0  0  0
 18 17  1  0  0  0  0
 19 18  2  0  0  0  0
 20 19  1  0  0  0  0
 21 20  2  0  0  0  0
 16 21  1  0  0  0  0
  7 22  2  0  0  0  0
 23  5  1  0  0  0  0
 24 23  2  0  0  0  0
  2 24  1  0  0  0  0
  1 25  1  0  0  0  0
 25 26  1  0  0  0  0
 26 27  1  0  0  0  0
 27 28  1  0  0  0  0
 28 29  1  0  0  0  0
 29 30  1  0  0  0  0
 30 31  1  0  0  0  0
 31 32  1  0  0  0  0
M  END
> <ChemID>
101644

> <CAS>
64532-97-4

> <Original_SMILES>
CCCCCCCCCc1ccc(cc1)OP(=O)(Oc1ccccc1)Oc1ccccc1

> <preferred_name>
Nonylphenyl diphenyl phosphate, mixed isomers

> <dsstox_substance_id>
DTXSID4025797

> <dsstox_compound_id>
DTXCID405797

> <qc_level>
DSSTox_High

> <Canonical_QSARr>
CCCCCCCCCC1C=CC(=CC=1)OP(=O)(OC1C=CC=CC=1)OC1C=CC=CC=1

> <InChI_Code_QSARr>
InChI=1S/C27H33O4P/c1-2-3-4-5-6-7-10-15-24-20-22-27(23-21-24)31-32(28,29-25-16-11-8-12-17-25)30-26-18-13-9-14-19-26/h8-9,11-14,16-23H,2-7,10,15H2,1H3

> <InChI Key_QSARr>
LMCLPMXCYFSRNG-UHFFFAOYSA-N

> <Salt_Solvent>


> <Salt_Solvent_ID>
0

> <MPID>
102767

> <HL Reference>
BOETHLING,RS & COOPER,JC (1985)

> <HL Temperature>
25

> <LogHL>
-7.853871964321782

> <Tr_1_Tst_0>
1

$$$$
101647
  Mrv171c012241914302D          

 17 18  0  0  0  0            999 V2000
    0.7145    2.0626    0.0000 C   0  0  0  0  0  0  0  0  0  0  0  0
    1.4290    2.4751    0.0000 C   0  0  0  0  0  0  0  0  0  0  0  0
    1.4290    3.3001    0.0000 C   0  0  0  0  0  0  0  0  0  0  0  0
    0.7145    3.7126    0.0000 C   0  0  0  0  0  0  0  0  0  0  0  0
    0.7145    4.5376    0.0000 Cl  0  0  0  0  0  0  0  0  0  0  0  0
    0.0000    3.3001    0.0000 C   0  0  0  0  0  0  0  0  0  0  0  0
   -0.7144    3.7126    0.0000 Cl  0  0  0  0  0  0  0  0  0  0  0  0
    0.0000    2.4751    0.0000 C   0  0  0  0  0  0  0  0  0  0  0  0
   -0.7144    2.0626    0.0000 Cl  0  0  0  0  0  0  0  0  0  0  0  0
    0.7145    1.2376    0.0000 C   0  0  0  0  0  0  0  0  0  0  0  0
    0.0000    0.8251    0.0000 C   0  0  0  0  0  0  0  0  0  0  0  0
    0.0000    0.0001    0.0000 C   0  0  0  0  0  0  0  0  0  0  0  0
    0.7145   -0.4124    0.0000 C   0  0  0  0  0  0  0  0  0  0  0  0
    0.7145   -1.2374    0.0000 Cl  0  0  0  0  0  0  0  0  0  0  0  0
    1.4290    0.0001    0.0000 C   0  0  0  0  0  0  0  0  0  0  0  0
    1.4290    0.8251    0.0000 C   0  0  0  0  0  0  0  0  0  0  0  0
    2.1434    1.2376    0.0000 Cl  0  0  0  0  0  0  0  0  0  0  0  0
  2  1  1  0  0  0  0
  3  2  2  0  0  0  0
  4  3  1  0  0  0  0
  4  5  1  0  0  0  0
  6  4  2  0  0  0  0
  6  7  1  0  0  0  0
  8  6  1  0  0  0  0
  1  8  2  0  0  0  0
  8  9  1  0  0  0  0
  1 10  1  0  0  0  0
 11 10  1  0  0  0  0
 12 11  2  0  0  0  0
 13 12  1  0  0  0  0
 13 14  1  0  0  0  0
 15 13  2  0  0  0  0
 16 15  1  0  0  0  0
 10 16  2  0  0  0  0
 16 17  1  0  0  0  0
M  END
> <ChemID>
101647

> <CAS>
65510-45-4

> <Original_SMILES>
Clc1cc(Cl)c(cc1)-c1ccc(Cl)c(Cl)c1Cl

> <preferred_name>
2,2',3,4,4'-Pentachlorobiphenyl

> <dsstox_substance_id>
DTXSID9073599

> <dsstox_compound_id>
DTXCID8044620

> <qc_level>
Public_High

> <Canonical_QSARr>
ClC1=CC(Cl)=C(C=C1)C1C=CC(Cl)=C(Cl)C=1Cl

> <InChI_Code_QSARr>
InChI=1S/C12H5Cl5/c13-6-1-2-7(10(15)5-6)8-3-4-9(14)12(17)11(8)16/h1-5H

> <InChI Key_QSARr>
LACXVZHAJMVESG-UHFFFAOYSA-N

> <Salt_Solvent>


> <Salt_Solvent_ID>
0

> <MPID>
102768

> <HL Reference>
BRUNNER,S ET AL. (1990)

> <HL Temperature>
25

> <LogHL>
-4.180456064458132

> <Tr_1_Tst_0>
1

$$$$
101649
  Mrv171c012241914302D          

 23 25  0  0  0  0            999 V2000
    2.3582   -3.6469    0.0000 C   0  0  0  0  0  0  0  0  0  0  0  0
    1.6438   -3.2344    0.0000 N   0  0  0  0  0  0  0  0  0  0  0  0
    0.9293   -3.6469    0.0000 C   0  0  0  0  0  0  0  0  0  0  0  0
    0.2148   -3.2344    0.0000 C   0  0  0  0  0  0  0  0  0  0  0  0
   -0.4996   -3.6469    0.0000 C   0  0  0  0  0  0  0  0  0  0  0  0
   -0.4996   -4.4719    0.0000 C   0  0  0  0  0  0  0  0  0  0  0  0
    0.2148   -4.8844    0.0000 C   0  0  0  0  0  0  0  0  0  0  0  0
    0.9293   -4.4719    0.0000 C   0  0  0  0  0  0  0  0  0  0  0  0
    3.0727   -3.2344    0.0000 N   0  0  0  0  0  0  0  0  0  0  0  0
    3.0727   -2.4094    0.0000 C   0  0  0  0  0  0  0  0  0  0  0  0
    3.7401   -1.9245    0.0000 C   0  0  0  0  0  0  0  0  0  0  0  0
    3.4852   -1.1398    0.0000 C   0  0  0  0  0  0  0  0  0  0  0  0
    2.6602   -1.1398    0.0000 C   0  0  0  0  0  0  0  0  0  0  0  0
    2.4053   -1.9245    0.0000 C   0  0  0  0  0  0  0  0  0  0  0  0
    3.7872   -3.6469    0.0000 C   0  0  0  0  0  0  0  0  0  0  0  0
    4.5017   -3.2344    0.0000 C   0  0  0  0  0  0  0  0  0  0  0  0
    5.2161   -3.6469    0.0000 C   0  0  0  0  0  0  0  0  0  0  0  0
    5.9306   -3.2344    0.0000 C   0  0  0  0  0  0  0  0  0  0  0  0
    5.9306   -2.4094    0.0000 C   0  0  0  0  0  0  0  0  0  0  0  0
    6.6451   -1.9969    0.0000 Cl  0  0  0  0  0  0  0  0  0  0  0  0
    5.2161   -1.9969    0.0000 C   0  0  0  0  0  0  0  0  0  0  0  0
    4.5017   -2.4094    0.0000 C   0  0  0  0  0  0  0  0  0  0  0  0
    2.3582   -4.4719    0.0000 O   0  0  0  0  0  0  0  0  0  0  0  0
  1  2  1  0  0  0  0
  2  3  1  0  0  0  0
  4  3  1  0  0  0  0
  5  4  2  0  0  0  0
  6  5  1  0  0  0  0
  7  6  2  0  0  0  0
  8  7  1  0  0  0  0
  3  8  2  0  0  0  0
  1  9  1  0  0  0  0
  9 10  1  0  0  0  0
 11 10  1  0  0  0  0
 12 11  1  0  0  0  0
 13 12  1  0  0  0  0
 14 13  1  0  0  0  0
 10 14  1  0  0  0  0
  9 15  1  0  0  0  0
 15 16  1  0  0  0  0
 17 16  1  0  0  0  0
 18 17  2  0  0  0  0
 19 18  1  0  0  0  0
 19 20  1  0  0  0  0
 21 19  2  0  0  0  0
 22 21  1  0  0  0  0
 16 22  2  0  0  0  0
  1 23  2  0  0  0  0
M  END
> <ChemID>
101649

> <CAS>
66063-05-6

> <Original_SMILES>
O=C(Nc1ccccc1)N(Cc1ccc(Cl)cc1)C1CCCC1

> <preferred_name>
Pencycuron

> <dsstox_substance_id>
DTXSID3042261

> <dsstox_compound_id>
DTXCID1022261

> <qc_level>
DSSTox_Low

> <Canonical_QSARr>
O=C(NC1C=CC=CC=1)N(CC1C=CC(Cl)=CC=1)C1CCCC1

> <InChI_Code_QSARr>
InChI=1S/C19H21ClN2O/c20-16-12-10-15(11-13-16)14-22(18-8-4-5-9-18)19(23)21-17-6-2-1-3-7-17/h1-3,6-7,10-13,18H,4-5,8-9,14H2,(H,21,23)

> <InChI Key_QSARr>
OGYFATSSENRIKG-UHFFFAOYSA-N

> <Salt_Solvent>


> <Salt_Solvent_ID>
0

> <MPID>
102769

> <HL Reference>
TOMLIN,C (1997)

> <HL Temperature>
20

> <LogHL>
-11.307153080722792

> <Tr_1_Tst_0>
0

$$$$
101655
  Mrv171c012241914302D          

 18 20  0  0  0  0            999 V2000
    5.8032    1.2526    0.0000 Cl  0  0  0  0  0  0  0  0  0  0  0  0
    5.8032    0.4276    0.0000 C   0  0  0  0  0  0  0  0  0  0  0  0
    6.5176    0.0151    0.0000 C   0  0  0  0  0  0  0  0  0  0  0  0
    7.2321    0.4276    0.0000 Cl  0  0  0  0  0  0  0  0  0  0  0  0
    6.5176   -0.8099    0.0000 C   0  0  0  0  0  0  0  0  0  0  0  0
    7.2321   -1.2224    0.0000 Cl  0  0  0  0  0  0  0  0  0  0  0  0
    5.8032   -1.2224    0.0000 C   0  0  0  0  0  0  0  0  0  0  0  0
    5.0887   -0.8099    0.0000 C   0  0  0  0  0  0  0  0  0  0  0  0
    5.0887    0.0151    0.0000 C   0  0  0  0  0  0  0  0  0  0  0  0
    4.3742    0.4276    0.0000 O   0  0  0  0  0  0  0  0  0  0  0  0
    3.6598    0.0151    0.0000 C   0  0  0  0  0  0  0  0  0  0  0  0
    2.9453    0.4276    0.0000 C   0  0  0  0  0  0  0  0  0  0  0  0
    2.2308    0.0151    0.0000 C   0  0  0  0  0  0  0  0  0  0  0  0
    2.2308   -0.8099    0.0000 C   0  0  0  0  0  0  0  0  0  0  0  0
    1.5163   -1.2224    0.0000 Cl  0  0  0  0  0  0  0  0  0  0  0  0
    2.9453   -1.2224    0.0000 C   0  0  0  0  0  0  0  0  0  0  0  0
    3.6598   -0.8099    0.0000 C   0  0  0  0  0  0  0  0  0  0  0  0
    4.3742   -1.2224    0.0000 O   0  0  0  0  0  0  0  0  0  0  0  0
  1  2  1  0  0  0  0
  3  2  1  0  0  0  0
  3  4  1  0  0  0  0
  5  3  2  0  0  0  0
  5  6  1  0  0  0  0
  7  5  1  0  0  0  0
  8  7  2  0  0  0  0
  8  9  1  0  0  0  0
  2  9  2  0  0  0  0
  9 10  1  0  0  0  0
 10 11  1  0  0  0  0
 12 11  1  0  0  0  0
 13 12  2  0  0  0  0
 14 13  1  0  0  0  0
 14 15  1  0  0  0  0
 16 14  2  0  0  0  0
 17 16  1  0  0  0  0
 11 17  2  0  0  0  0
 17 18  1  0  0  0  0
 18  8  1  0  0  0  0
M  END
> <ChemID>
101655

> <CAS>
67028-18-6

> <Original_SMILES>
Clc1cc2Oc3cc(Cl)c(Cl)c(Cl)c3Oc2cc1

> <preferred_name>
1,2,3,7-Tetrachlorodibenzo-p-dioxin

> <dsstox_substance_id>
DTXSID40217291

> <dsstox_compound_id>
DTXCID40139782

> <qc_level>
Public_Medium

> <Canonical_QSARr>
ClC1=CC2OC3=CC(Cl)=C(Cl)C(Cl)=C3OC=2C=C1

> <InChI_Code_QSARr>
InChI=1S/C12H4Cl4O2/c13-5-1-2-7-8(3-5)17-9-4-6(14)10(15)11(16)12(9)18-7/h1-4H

> <InChI Key_QSARr>
SKGXYFVQZVPEFP-UHFFFAOYSA-N

> <Salt_Solvent>


> <Salt_Solvent_ID>
0

> <MPID>
102770

> <HL Reference>
SHIU,WY ET AL. (1988)

> <HL Temperature>
25

> <LogHL>
-5.119186407719213

> <Tr_1_Tst_0>
1

$$$$
101656
  Mrv171c012241914302D          

 19 20  0  0  0  0            999 V2000
    0.9837   -0.5108    0.0000 C   0  0  0  0  0  0  0  0  0  0  0  0
    1.6981   -0.0983    0.0000 C   0  0  0  0  0  0  0  0  0  0  0  0
    2.4126   -0.5108    0.0000 C   0  0  0  0  0  0  0  0  0  0  0  0
    2.4126   -1.3358    0.0000 N   0  0  0  0  0  0  0  0  0  0  0  0
    1.6981   -1.7483    0.0000 C   0  0  0  0  0  0  0  0  0  0  0  0
    0.9837   -1.3358    0.0000 O   0  0  0  0  0  0  0  0  0  0  0  0
    1.6981   -2.5733    0.0000 C   0  0  0  0  0  0  0  0  0  0  0  0
    0.9837   -2.9858    0.0000 Cl  0  0  0  0  0  0  0  0  0  0  0  0
    3.1271   -1.7483    0.0000 C   0  0  0  0  0  0  0  0  0  0  0  0
    3.1271   -2.5733    0.0000 N   0  0  0  0  0  0  0  0  0  0  0  0
    2.4596   -3.0582    0.0000 N   0  0  0  0  0  0  0  0  0  0  0  0
    2.7146   -3.8428    0.0000 C   0  0  0  0  0  0  0  0  0  0  0  0
    3.5396   -3.8428    0.0000 C   0  0  0  0  0  0  0  0  0  0  0  0
    3.7945   -3.0582    0.0000 C   0  0  0  0  0  0  0  0  0  0  0  0
    3.1271   -0.0983    0.0000 C   0  0  0  0  0  0  0  0  0  0  0  0
    3.8416   -0.5108    0.0000 C   0  0  0  0  0  0  0  0  0  0  0  0
    3.1271    0.7267    0.0000 C   0  0  0  0  0  0  0  0  0  0  0  0
    2.4126    1.1392    0.0000 C   0  0  0  0  0  0  0  0  0  0  0  0
    1.6981    0.7267    0.0000 C   0  0  0  0  0  0  0  0  0  0  0  0
  1  2  1  0  0  0  0
  3  2  2  0  0  0  0
  3  4  1  0  0  0  0
  4  5  1  0  0  0  0
  5  6  2  0  0  0  0
  5  7  1  0  0  0  0
  7  8  1  0  0  0  0
  4  9  1  0  0  0  0
  9 10  1  0  0  0  0
 11 10  1  0  0  0  0
 12 11  2  0  0  0  0
 13 12  1  0  0  0  0
 14 13  2  0  0  0  0
 10 14  1  0  0  0  0
 15  3  1  0  0  0  0
 15 16  1  0  0  0  0
 17 15  2  0  0  0  0
 18 17  1  0  0  0  0
 19 18  2  0  0  0  0
  2 19  1  0  0  0  0
M  END
> <ChemID>
101656

> <CAS>
67129-08-2

> <Original_SMILES>
Cc1cccc(C)c1N(C[n]1ccc[n]1)C(=O)CCl

> <preferred_name>
Metazachlor

> <dsstox_substance_id>
DTXSID4058156

> <dsstox_compound_id>
DTXCID0031924

> <qc_level>
DSSTox_High

> <Canonical_QSARr>
CC1C=CC=C(C)C=1N(CN1C=CC=N1)C(=O)CCl

> <InChI_Code_QSARr>
InChI=1S/C14H16ClN3O/c1-11-5-3-6-12(2)14(11)18(13(19)9-15)10-17-8-4-7-16-17/h3-8H,9-10H2,1-2H3

> <InChI Key_QSARr>
STEPQTYSZVCJPV-UHFFFAOYSA-N

> <Salt_Solvent>


> <Salt_Solvent_ID>
0

> <MPID>
102771

> <HL Reference>
TOMLIN,C (1997)

> <HL Temperature>
20

> <LogHL>
-9.246416941107094

> <Tr_1_Tst_0>
1

$$$$
101665
  Mrv171c012241914302D          

 16 17  0  0  0  0            999 V2000
    1.4290   -2.4750    0.0000 C   0  0  0  0  0  0  0  0  0  0  0  0
    1.4290   -1.6500    0.0000 C   0  0  0  0  0  0  0  0  0  0  0  0
    0.7145   -1.2375    0.0000 C   0  0  0  0  0  0  0  0  0  0  0  0
    0.7145   -0.4125    0.0000 Cl  0  0  0  0  0  0  0  0  0  0  0  0
    0.0000   -1.6500    0.0000 C   0  0  0  0  0  0  0  0  0  0  0  0
   -0.7145   -1.2375    0.0000 C   0  0  0  0  0  0  0  0  0  0  0  0
   -0.7145   -0.4125    0.0000 C   0  0  0  0  0  0  0  0  0  0  0  0
    0.0000    0.0000    0.0000 Cl  0  0  0  0  0  0  0  0  0  0  0  0
   -1.4289    0.0000    0.0000 C   0  0  0  0  0  0  0  0  0  0  0  0
   -2.1434   -0.4125    0.0000 C   0  0  0  0  0  0  0  0  0  0  0  0
   -2.8579   -0.0000    0.0000 Cl  0  0  0  0  0  0  0  0  0  0  0  0
   -2.1434   -1.2375    0.0000 C   0  0  0  0  0  0  0  0  0  0  0  0
   -1.4289   -1.6500    0.0000 C   0  0  0  0  0  0  0  0  0  0  0  0
    0.0000   -2.4750    0.0000 C   0  0  0  0  0  0  0  0  0  0  0  0
   -0.7145   -2.8875    0.0000 Cl  0  0  0  0  0  0  0  0  0  0  0  0
    0.7145   -2.8875    0.0000 C   0  0  0  0  0  0  0  0  0  0  0  0
  2  1  1  0  0  0  0
  3  2  2  0  0  0  0
  3  4  1  0  0  0  0
  5  3  1  0  0  0  0
  5  6  1  0  0  0  0
  7  6  1  0  0  0  0
  7  8  1  0  0  0  0
  9  7  2  0  0  0  0
 10  9  1  0  0  0  0
 10 11  1  0  0  0  0
 12 10  2  0  0  0  0
 13 12  1  0  0  0  0
  6 13  2  0  0  0  0
 14  5  2  0  0  0  0
 14 15  1  0  0  0  0
 16 14  1  0  0  0  0
  1 16  2  0  0  0  0
M  END
> <ChemID>
101665

> <CAS>
68194-04-7

> <Original_SMILES>
Clc1cc(Cl)c(cc1)-c1c(Cl)cccc1Cl

> <preferred_name>
2,2',4,6'-Tetrachlorobiphenyl

> <dsstox_substance_id>
DTXSID9074195

> <dsstox_compound_id>
DTXCID1045669

> <qc_level>
Public_High

> <Canonical_QSARr>
ClC1C=CC=C(Cl)C=1C1=CC=C(Cl)C=C1Cl

> <InChI_Code_QSARr>
InChI=1S/C12H6Cl4/c13-7-4-5-8(11(16)6-7)12-9(14)2-1-3-10(12)15/h1-6H

> <InChI Key_QSARr>
WVHNUGRFECMVLQ-UHFFFAOYSA-N

> <Salt_Solvent>


> <Salt_Solvent_ID>
0

> <MPID>
102772

> <HL Reference>
BRUNNER,S ET AL. (1990)

> <HL Temperature>
25

> <LogHL>
-3.8538719643217614

> <Tr_1_Tst_0>
1

$$$$
101667
  Mrv171c012241914302D          

 17 18  0  0  0  0            999 V2000
    0.2942    1.8199    0.0000 C   0  0  0  0  0  0  0  0  0  0  0  0
    0.2942    2.6449    0.0000 C   0  0  0  0  0  0  0  0  0  0  0  0
   -0.4203    3.0574    0.0000 C   0  0  0  0  0  0  0  0  0  0  0  0
   -0.4203    3.8824    0.0000 Cl  0  0  0  0  0  0  0  0  0  0  0  0
   -1.1348    2.6449    0.0000 C   0  0  0  0  0  0  0  0  0  0  0  0
   -1.1348    1.8199    0.0000 C   0  0  0  0  0  0  0  0  0  0  0  0
   -1.8492    1.4074    0.0000 Cl  0  0  0  0  0  0  0  0  0  0  0  0
   -0.4203    1.4074    0.0000 C   0  0  0  0  0  0  0  0  0  0  0  0
    1.0087    1.4074    0.0000 C   0  0  0  0  0  0  0  0  0  0  0  0
    1.0087    0.5824    0.0000 C   0  0  0  0  0  0  0  0  0  0  0  0
    1.7231    0.1699    0.0000 C   0  0  0  0  0  0  0  0  0  0  0  0
    1.7231   -0.6551    0.0000 Cl  0  0  0  0  0  0  0  0  0  0  0  0
    2.4376    0.5824    0.0000 C   0  0  0  0  0  0  0  0  0  0  0  0
    3.1521    0.1699    0.0000 Cl  0  0  0  0  0  0  0  0  0  0  0  0
    2.4376    1.4074    0.0000 C   0  0  0  0  0  0  0  0  0  0  0  0
    1.7231    1.8199    0.0000 C   0  0  0  0  0  0  0  0  0  0  0  0
    1.7231    2.6449    0.0000 Cl  0  0  0  0  0  0  0  0  0  0  0  0
  2  1  1  0  0  0  0
  3  2  2  0  0  0  0
  3  4  1  0  0  0  0
  5  3  1  0  0  0  0
  6  5  2  0  0  0  0
  6  7  1  0  0  0  0
  8  6  1  0  0  0  0
  1  8  2  0  0  0  0
  1  9  1  0  0  0  0
 10  9  1  0  0  0  0
 11 10  2  0  0  0  0
 11 12  1  0  0  0  0
 13 11  1  0  0  0  0
 13 14  1  0  0  0  0
 15 13  2  0  0  0  0
 16 15  1  0  0  0  0
  9 16  2  0  0  0  0
 16 17  1  0  0  0  0
M  END
> <ChemID>
101667

> <CAS>
68194-12-7

> <Original_SMILES>
Clc1cc(cc(Cl)c1)-c1cc(Cl)c(Cl)cc1Cl

> <preferred_name>
2,3',4,5,5'-Pentachlorobiphenyl

> <dsstox_substance_id>
DTXSID6073609

> <dsstox_compound_id>
DTXCID5045675

> <qc_level>
Public_High

> <Canonical_QSARr>
ClC1C=C(Cl)C(Cl)=CC=1C1C=C(Cl)C=C(Cl)C=1

> <InChI_Code_QSARr>
InChI=1S/C12H5Cl5/c13-7-1-6(2-8(14)3-7)9-4-11(16)12(17)5-10(9)15/h1-5H

> <InChI Key_QSARr>
ZLGYJAIAVPVCNF-UHFFFAOYSA-N

> <Salt_Solvent>


> <Salt_Solvent_ID>
0

> <MPID>
102773

> <HL Reference>
BRUNNER,S ET AL. (1990)

> <HL Temperature>
25

> <LogHL>
-4.251811972993801

> <Tr_1_Tst_0>
1

$$$$
101668
  Mrv171c012241914302D          

 18 19  0  0  0  0            999 V2000
    2.4609   -4.5375    0.0000 C   0  0  0  0  0  0  0  0  0  0  0  0
    3.1754   -4.9500    0.0000 Cl  0  0  0  0  0  0  0  0  0  0  0  0
    2.4609   -3.7125    0.0000 C   0  0  0  0  0  0  0  0  0  0  0  0
    1.7465   -3.3000    0.0000 C   0  0  0  0  0  0  0  0  0  0  0  0
    1.7465   -2.4750    0.0000 Cl  0  0  0  0  0  0  0  0  0  0  0  0
    1.0320   -3.7125    0.0000 C   0  0  0  0  0  0  0  0  0  0  0  0
    0.3175   -3.3000    0.0000 C   0  0  0  0  0  0  0  0  0  0  0  0
    0.3175   -2.4750    0.0000 C   0  0  0  0  0  0  0  0  0  0  0  0
    1.0320   -2.0625    0.0000 Cl  0  0  0  0  0  0  0  0  0  0  0  0
   -0.3969   -2.0625    0.0000 C   0  0  0  0  0  0  0  0  0  0  0  0
   -0.3969   -1.2375    0.0000 Cl  0  0  0  0  0  0  0  0  0  0  0  0
   -1.1114   -2.4750    0.0000 C   0  0  0  0  0  0  0  0  0  0  0  0
   -1.1114   -3.3000    0.0000 C   0  0  0  0  0  0  0  0  0  0  0  0
   -1.8259   -3.7125    0.0000 Cl  0  0  0  0  0  0  0  0  0  0  0  0
   -0.3969   -3.7125    0.0000 C   0  0  0  0  0  0  0  0  0  0  0  0
   -0.3969   -4.5375    0.0000 Cl  0  0  0  0  0  0  0  0  0  0  0  0
    1.0320   -4.5375    0.0000 C   0  0  0  0  0  0  0  0  0  0  0  0
    1.7465   -4.9500    0.0000 C   0  0  0  0  0  0  0  0  0  0  0  0
  1  2  1  0  0  0  0
  3  1  1  0  0  0  0
  4  3  2  0  0  0  0
  4  5  1  0  0  0  0
  6  4  1  0  0  0  0
  6  7  1  0  0  0  0
  8  7  1  0  0  0  0
  8  9  1  0  0  0  0
 10  8  2  0  0  0  0
 10 11  1  0  0  0  0
 12 10  1  0  0  0  0
 13 12  2  0  0  0  0
 13 14  1  0  0  0  0
 15 13  1  0  0  0  0
  7 15  2  0  0  0  0
 15 16  1  0  0  0  0
 17  6  2  0  0  0  0
 18 17  1  0  0  0  0
  1 18  2  0  0  0  0
M  END
> <ChemID>
101668

> <CAS>
68194-13-8

> <Original_SMILES>
Clc1cc(Cl)c(cc1)-c1c(Cl)c(Cl)cc(Cl)c1Cl

> <preferred_name>
2,2',3,4',5,6-Hexachlorobiphenyl

> <dsstox_substance_id>
DTXSID1074200

> <dsstox_compound_id>
DTXCID0045676

> <qc_level>
Public_High

> <Canonical_QSARr>
ClC1C=C(Cl)C(Cl)=C(C2=CC=C(Cl)C=C2Cl)C=1Cl

> <InChI_Code_QSARr>
InChI=1S/C12H4Cl6/c13-5-1-2-6(7(14)3-5)10-11(17)8(15)4-9(16)12(10)18/h1-4H

> <InChI Key_QSARr>
AQONCPKMJSBHQT-UHFFFAOYSA-N

> <Salt_Solvent>


> <Salt_Solvent_ID>
0

> <MPID>
102774

> <HL Reference>
BRUNNER,S ET AL. (1990)

> <HL Temperature>
25

> <LogHL>
-4.292429823902063

> <Tr_1_Tst_0>
0

$$$$
101669
  Mrv171c012241914302D          

 18 19  0  0  0  0            999 V2000
    1.4290   -2.4750    0.0000 C   0  0  0  0  0  0  0  0  0  0  0  0
    1.4290   -1.6500    0.0000 C   0  0  0  0  0  0  0  0  0  0  0  0
    0.7145   -1.2375    0.0000 C   0  0  0  0  0  0  0  0  0  0  0  0
    0.7145   -0.4125    0.0000 Cl  0  0  0  0  0  0  0  0  0  0  0  0
    0.0000   -1.6500    0.0000 C   0  0  0  0  0  0  0  0  0  0  0  0
   -0.7144   -1.2375    0.0000 C   0  0  0  0  0  0  0  0  0  0  0  0
   -0.7144   -0.4125    0.0000 C   0  0  0  0  0  0  0  0  0  0  0  0
   -1.4289    0.0000    0.0000 C   0  0  0  0  0  0  0  0  0  0  0  0
   -1.4289    0.8250    0.0000 Cl  0  0  0  0  0  0  0  0  0  0  0  0
   -2.1434   -0.4125    0.0000 C   0  0  0  0  0  0  0  0  0  0  0  0
   -2.8579   -0.0000    0.0000 Cl  0  0  0  0  0  0  0  0  0  0  0  0
   -2.1434   -1.2375    0.0000 C   0  0  0  0  0  0  0  0  0  0  0  0
   -2.8579   -1.6500    0.0000 Cl  0  0  0  0  0  0  0  0  0  0  0  0
   -1.4289   -1.6500    0.0000 C   0  0  0  0  0  0  0  0  0  0  0  0
   -1.4289   -2.4750    0.0000 Cl  0  0  0  0  0  0  0  0  0  0  0  0
    0.0000   -2.4750    0.0000 C   0  0  0  0  0  0  0  0  0  0  0  0
   -0.7144   -2.8875    0.0000 Cl  0  0  0  0  0  0  0  0  0  0  0  0
    0.7145   -2.8875    0.0000 C   0  0  0  0  0  0  0  0  0  0  0  0
  2  1  1  0  0  0  0
  3  2  2  0  0  0  0
  3  4  1  0  0  0  0
  5  3  1  0  0  0  0
  5  6  1  0  0  0  0
  7  6  1  0  0  0  0
  8  7  2  0  0  0  0
  8  9  1  0  0  0  0
 10  8  1  0  0  0  0
 10 11  1  0  0  0  0
 12 10  2  0  0  0  0
 12 13  1  0  0  0  0
 14 12  1  0  0  0  0
  6 14  2  0  0  0  0
 14 15  1  0  0  0  0
 16  5  2  0  0  0  0
 16 17  1  0  0  0  0
 18 16  1  0  0  0  0
  1 18  2  0  0  0  0
M  END
> <ChemID>
101669

> <CAS>
68194-15-0

> <Original_SMILES>
Clc1c(cc(Cl)c(Cl)c1Cl)-c1c(Cl)cccc1Cl

> <preferred_name>
2,2',3,4,5,6'-Hexachlorobiphenyl

> <dsstox_substance_id>
DTXSID1074202

> <dsstox_compound_id>
DTXCID0045678

> <qc_level>
Public_High

> <Canonical_QSARr>
ClC1C=CC=C(Cl)C=1C1C=C(Cl)C(Cl)=C(Cl)C=1Cl

> <InChI_Code_QSARr>
InChI=1S/C12H4Cl6/c13-6-2-1-3-7(14)9(6)5-4-8(15)11(17)12(18)10(5)16/h1-4H

> <InChI Key_QSARr>
UQPQKLGBEKEZBV-UHFFFAOYSA-N

> <Salt_Solvent>


> <Salt_Solvent_ID>
0

> <MPID>
102775

> <HL Reference>
BRUNNER,S ET AL. (1990)

> <HL Temperature>
25

> <LogHL>
-4.408935392973488

> <Tr_1_Tst_0>
1

$$$$
101670
  Mrv171c012241914302D          

 19 20  0  0  0  0            999 V2000
    0.8273    1.7369    0.0000 C   0  0  0  0  0  0  0  0  0  0  0  0
    0.1128    2.1494    0.0000 C   0  0  0  0  0  0  0  0  0  0  0  0
    0.1128    2.9744    0.0000 Cl  0  0  0  0  0  0  0  0  0  0  0  0
   -0.6017    1.7369    0.0000 C   0  0  0  0  0  0  0  0  0  0  0  0
   -1.3161    2.1494    0.0000 Cl  0  0  0  0  0  0  0  0  0  0  0  0
   -0.6017    0.9119    0.0000 C   0  0  0  0  0  0  0  0  0  0  0  0
   -1.3161    0.4994    0.0000 Cl  0  0  0  0  0  0  0  0  0  0  0  0
    0.1128    0.4994    0.0000 C   0  0  0  0  0  0  0  0  0  0  0  0
    0.1128   -0.3256    0.0000 Cl  0  0  0  0  0  0  0  0  0  0  0  0
    0.8273    0.9119    0.0000 C   0  0  0  0  0  0  0  0  0  0  0  0
    1.5417    0.4994    0.0000 Cl  0  0  0  0  0  0  0  0  0  0  0  0
    1.5417    2.1494    0.0000 C   0  0  0  0  0  0  0  0  0  0  0  0
    2.2562    1.7369    0.0000 C   0  0  0  0  0  0  0  0  0  0  0  0
    2.9707    2.1494    0.0000 C   0  0  0  0  0  0  0  0  0  0  0  0
    2.9707    2.9744    0.0000 C   0  0  0  0  0  0  0  0  0  0  0  0
    2.2562    3.3869    0.0000 C   0  0  0  0  0  0  0  0  0  0  0  0
    2.2562    4.2119    0.0000 Cl  0  0  0  0  0  0  0  0  0  0  0  0
    1.5417    2.9744    0.0000 C   0  0  0  0  0  0  0  0  0  0  0  0
    0.8273    3.3869    0.0000 Cl  0  0  0  0  0  0  0  0  0  0  0  0
  2  1  1  0  0  0  0
  2  3  1  0  0  0  0
  4  2  2  0  0  0  0
  4  5  1  0  0  0  0
  6  4  1  0  0  0  0
  6  7  1  0  0  0  0
  8  6  2  0  0  0  0
  8  9  1  0  0  0  0
 10  8  1  0  0  0  0
  1 10  2  0  0  0  0
 10 11  1  0  0  0  0
  1 12  1  0  0  0  0
 13 12  1  0  0  0  0
 14 13  2  0  0  0  0
 15 14  1  0  0  0  0
 16 15  2  0  0  0  0
 16 17  1  0  0  0  0
 18 16  1  0  0  0  0
 12 18  2  0  0  0  0
 18 19  1  0  0  0  0
M  END
> <ChemID>
101670

> <CAS>
68194-16-1

> <Original_SMILES>
Clc1cccc(-c2c(Cl)c(Cl)c(Cl)c(Cl)c2Cl)c1Cl

> <preferred_name>
2,2',3,3',4,5,6-Heptachlorobiphenyl

> <dsstox_substance_id>
DTXSID6074203

> <dsstox_compound_id>
DTXCID5045679

> <qc_level>
Public_High

> <Canonical_QSARr>
ClC1=C(C2C=CC=C(Cl)C=2Cl)C(Cl)=C(Cl)C(Cl)=C1Cl

> <InChI_Code_QSARr>
InChI=1S/C12H3Cl7/c13-5-3-1-2-4(7(5)14)6-8(15)10(17)12(19)11(18)9(6)16/h1-3H

> <InChI Key_QSARr>
PAYFWJAKKLILIT-UHFFFAOYSA-N

> <Salt_Solvent>


> <Salt_Solvent_ID>
0

> <MPID>
102776

> <HL Reference>
BRUNNER,S ET AL. (1990)

> <HL Temperature>
25

> <LogHL>
-4.853871964321755

> <Tr_1_Tst_0>
1

$$$$
101671
  Mrv171c012241914302D          

 20 21  0  0  0  0            999 V2000
    0.1786    1.8356    0.0000 C   0  0  0  0  0  0  0  0  0  0  0  0
    0.1786    2.6606    0.0000 C   0  0  0  0  0  0  0  0  0  0  0  0
   -0.5359    3.0731    0.0000 C   0  0  0  0  0  0  0  0  0  0  0  0
   -0.5359    3.8981    0.0000 Cl  0  0  0  0  0  0  0  0  0  0  0  0
   -1.2503    2.6606    0.0000 C   0  0  0  0  0  0  0  0  0  0  0  0
   -1.2503    1.8356    0.0000 C   0  0  0  0  0  0  0  0  0  0  0  0
   -1.9648    1.4231    0.0000 Cl  0  0  0  0  0  0  0  0  0  0  0  0
   -0.5359    1.4231    0.0000 C   0  0  0  0  0  0  0  0  0  0  0  0
   -0.5359    0.5981    0.0000 Cl  0  0  0  0  0  0  0  0  0  0  0  0
    0.8931    1.4231    0.0000 C   0  0  0  0  0  0  0  0  0  0  0  0
    0.8931    0.5981    0.0000 C   0  0  0  0  0  0  0  0  0  0  0  0
    0.1786    0.1856    0.0000 Cl  0  0  0  0  0  0  0  0  0  0  0  0
    1.6076    0.1856    0.0000 C   0  0  0  0  0  0  0  0  0  0  0  0
    1.6076   -0.6394    0.0000 Cl  0  0  0  0  0  0  0  0  0  0  0  0
    2.3220    0.5981    0.0000 C   0  0  0  0  0  0  0  0  0  0  0  0
    3.0365    0.1856    0.0000 Cl  0  0  0  0  0  0  0  0  0  0  0  0
    2.3220    1.4231    0.0000 C   0  0  0  0  0  0  0  0  0  0  0  0
    3.0365    1.8356    0.0000 Cl  0  0  0  0  0  0  0  0  0  0  0  0
    1.6076    1.8356    0.0000 C   0  0  0  0  0  0  0  0  0  0  0  0
    1.6076    2.6606    0.0000 Cl  0  0  0  0  0  0  0  0  0  0  0  0
  2  1  1  0  0  0  0
  3  2  2  0  0  0  0
  3  4  1  0  0  0  0
  5  3  1  0  0  0  0
  6  5  2  0  0  0  0
  6  7  1  0  0  0  0
  8  6  1  0  0  0  0
  1  8  2  0  0  0  0
  8  9  1  0  0  0  0
  1 10  1  0  0  0  0
 11 10  1  0  0  0  0
 11 12  1  0  0  0  0
 13 11  2  0  0  0  0
 13 14  1  0  0  0  0
 15 13  1  0  0  0  0
 15 16  1  0  0  0  0
 17 15  2  0  0  0  0
 17 18  1  0  0  0  0
 19 17  1  0  0  0  0
 10 19  2  0  0  0  0
 19 20  1  0  0  0  0
M  END
> <ChemID>
101671

> <CAS>
68194-17-2

> <Original_SMILES>
Clc1cc(-c2c(Cl)c(Cl)c(Cl)c(Cl)c2Cl)c(Cl)c(Cl)c1

> <preferred_name>
2,2',3,3',4,5,5',6-Octachlorobiphenyl

> <dsstox_substance_id>
DTXSID1074204

> <dsstox_compound_id>
DTXCID4045680

> <qc_level>
Public_High

> <Canonical_QSARr>
ClC1C=C(Cl)C(Cl)=C(C=1)C1C(Cl)=C(Cl)C(Cl)=C(Cl)C=1Cl

> <InChI_Code_QSARr>
InChI=1S/C12H2Cl8/c13-3-1-4(7(15)5(14)2-3)6-8(16)10(18)12(20)11(19)9(6)17/h1-2H

> <InChI Key_QSARr>
PJHBSPRZHUOIAS-UHFFFAOYSA-N

> <Salt_Solvent>


> <Salt_Solvent_ID>
0

> <MPID>
102777

> <HL Reference>
BRUNNER,S ET AL. (1990)

> <HL Temperature>
25

> <LogHL>
-4.853871964321755

> <Tr_1_Tst_0>
1

$$$$
101683
  Mrv171c012241914302D          

 34 36  0  0  0  0            999 V2000
    2.1388   -1.8219    0.0000 C   0  0  0  0  0  0  0  0  0  0  0  0
    2.8533   -2.2344    0.0000 N   0  0  0  0  0  0  0  0  0  0  0  0
    3.5677   -1.8219    0.0000 C   0  0  0  0  0  0  0  0  0  0  0  0
    4.2822   -2.2344    0.0000 N   0  0  0  0  0  0  0  0  0  0  0  0
    4.9967   -1.8219    0.0000 C   0  0  0  0  0  0  0  0  0  0  0  0
    5.7112   -2.2344    0.0000 C   0  0  0  0  0  0  0  0  0  0  0  0
    6.4256   -1.8219    0.0000 C   0  0  0  0  0  0  0  0  0  0  0  0
    7.1401   -2.2344    0.0000 Cl  0  0  0  0  0  0  0  0  0  0  0  0
    6.4256   -0.9969    0.0000 C   0  0  0  0  0  0  0  0  0  0  0  0
    7.1401   -0.5844    0.0000 O   0  0  0  0  0  0  0  0  0  0  0  0
    7.8546   -0.9969    0.0000 C   0  0  0  0  0  0  0  0  0  0  0  0
    8.5690   -0.5844    0.0000 C   0  0  0  0  0  0  0  0  0  0  0  0
    8.5690    0.2406    0.0000 Cl  0  0  0  0  0  0  0  0  0  0  0  0
    9.2835   -0.9969    0.0000 C   0  0  0  0  0  0  0  0  0  0  0  0
    9.2835   -1.8219    0.0000 C   0  0  0  0  0  0  0  0  0  0  0  0
    9.9980   -2.2344    0.0000 C   0  0  0  0  0  0  0  0  0  0  0  0
   10.7125   -2.6469    0.0000 F   0  0  0  0  0  0  0  0  0  0  0  0
   10.4105   -1.5200    0.0000 F   0  0  0  0  0  0  0  0  0  0  0  0
    9.5855   -2.9489    0.0000 F   0  0  0  0  0  0  0  0  0  0  0  0
    8.5690   -2.2344    0.0000 C   0  0  0  0  0  0  0  0  0  0  0  0
    7.8546   -1.8219    0.0000 N   0  0  0  0  0  0  0  0  0  0  0  0
    5.7112   -0.5844    0.0000 C   0  0  0  0  0  0  0  0  0  0  0  0
    5.7112    0.2406    0.0000 Cl  0  0  0  0  0  0  0  0  0  0  0  0
    4.9967   -0.9969    0.0000 C   0  0  0  0  0  0  0  0  0  0  0  0
    3.5677   -0.9969    0.0000 O   0  0  0  0  0  0  0  0  0  0  0  0
    1.4243   -2.2344    0.0000 C   0  0  0  0  0  0  0  0  0  0  0  0
    0.7099   -1.8219    0.0000 C   0  0  0  0  0  0  0  0  0  0  0  0
    0.7099   -0.9969    0.0000 F   0  0  0  0  0  0  0  0  0  0  0  0
   -0.0046   -2.2344    0.0000 C   0  0  0  0  0  0  0  0  0  0  0  0
   -0.0046   -3.0594    0.0000 C   0  0  0  0  0  0  0  0  0  0  0  0
    0.7099   -3.4719    0.0000 C   0  0  0  0  0  0  0  0  0  0  0  0
    1.4243   -3.0594    0.0000 C   0  0  0  0  0  0  0  0  0  0  0  0
    2.1388   -3.4719    0.0000 F   0  0  0  0  0  0  0  0  0  0  0  0
    2.1388   -0.9969    0.0000 O   0  0  0  0  0  0  0  0  0  0  0  0
  1  2  1  0  0  0  0
  2  3  1  0  0  0  0
  3  4  1  0  0  0  0
  4  5  1  0  0  0  0
  6  5  1  0  0  0  0
  7  6  2  0  0  0  0
  7  8  1  0  0  0  0
  9  7  1  0  0  0  0
  9 10  1  0  0  0  0
 10 11  1  0  0  0  0
 12 11  1  0  0  0  0
 12 13  1  0  0  0  0
 14 12  2  0  0  0  0
 15 14  1  0  0  0  0
 15 16  1  0  0  0  0
 16 17  1  0  0  0  0
 16 18  1  0  0  0  0
 16 19  1  0  0  0  0
 20 15  2  0  0  0  0
 21 20  1  0  0  0  0
 11 21  2  0  0  0  0
 22  9  2  0  0  0  0
 22 23  1  0  0  0  0
 24 22  1  0  0  0  0
  5 24  2  0  0  0  0
  3 25  2  0  0  0  0
  1 26  1  0  0  0  0
 27 26  1  0  0  0  0
 27 28  1  0  0  0  0
 29 27  2  0  0  0  0
 30 29  1  0  0  0  0
 31 30  2  0  0  0  0
 32 31  1  0  0  0  0
 26 32  2  0  0  0  0
 32 33  1  0  0  0  0
  1 34  2  0  0  0  0
M  END
> <ChemID>
101683

> <CAS>
71422-67-8

> <Original_SMILES>
O=C(Nc1cc(Cl)c(Oc2[n]cc(cc2Cl)C(F)(F)F)c(Cl)c1)NC(=O)c1c(F)cccc1F

> <preferred_name>
Chlorfluazuron

> <dsstox_substance_id>
DTXSID5041772

> <dsstox_compound_id>
DTXCID3021772

> <qc_level>
DSSTox_Low

> <Canonical_QSARr>
O=C(NC1C=C(Cl)C(OC2=NC=C(C=C2Cl)C(F)(F)F)=C(Cl)C=1)NC(=O)C1C(F)=CC=CC=1F

> <InChI_Code_QSARr>
InChI=1S/C20H9Cl3F5N3O3/c21-10-5-9(30-19(33)31-17(32)15-13(24)2-1-3-14(15)25)6-11(22)16(10)34-18-12(23)4-8(7-29-18)20(26,27)28/h1-7H,(H2,30,31,32,33)

> <InChI Key_QSARr>
UISUNVFOGSJSKD-UHFFFAOYSA-N

> <Salt_Solvent>


> <Salt_Solvent_ID>
0

> <MPID>
102778

> <HL Reference>
TOMLIN,C (1997)

> <HL Temperature>
25

> <LogHL>
-11.744727494896681

> <Tr_1_Tst_0>
0

$$$$
101692
  Mrv171c012241914302D          

 16 17  0  0  0  0            999 V2000
    3.1704   -1.4179    0.0000 Cl  0  0  0  0  0  0  0  0  0  0  0  0
    2.4560   -1.0054    0.0000 C   0  0  0  0  0  0  0  0  0  0  0  0
    2.4560   -0.1804    0.0000 C   0  0  0  0  0  0  0  0  0  0  0  0
    1.7415    0.2321    0.0000 C   0  0  0  0  0  0  0  0  0  0  0  0
    1.7415    1.0571    0.0000 Cl  0  0  0  0  0  0  0  0  0  0  0  0
    1.0270   -0.1804    0.0000 C   0  0  0  0  0  0  0  0  0  0  0  0
    0.3126    0.2321    0.0000 Cl  0  0  0  0  0  0  0  0  0  0  0  0
    1.0270   -1.0054    0.0000 C   0  0  0  0  0  0  0  0  0  0  0  0
    1.7415   -1.4179    0.0000 C   0  0  0  0  0  0  0  0  0  0  0  0
    1.7415   -2.2429    0.0000 C   0  0  0  0  0  0  0  0  0  0  0  0
    1.0270   -2.6554    0.0000 C   0  0  0  0  0  0  0  0  0  0  0  0
    1.0270   -3.4804    0.0000 C   0  0  0  0  0  0  0  0  0  0  0  0
    0.3126   -3.8929    0.0000 Cl  0  0  0  0  0  0  0  0  0  0  0  0
    1.7415   -3.8929    0.0000 C   0  0  0  0  0  0  0  0  0  0  0  0
    2.4560   -3.4804    0.0000 C   0  0  0  0  0  0  0  0  0  0  0  0
    2.4560   -2.6554    0.0000 C   0  0  0  0  0  0  0  0  0  0  0  0
  1  2  1  0  0  0  0
  3  2  1  0  0  0  0
  4  3  2  0  0  0  0
  4  5  1  0  0  0  0
  6  4  1  0  0  0  0
  6  7  1  0  0  0  0
  8  6  2  0  0  0  0
  9  8  1  0  0  0  0
  2  9  2  0  0  0  0
  9 10  1  0  0  0  0
 11 10  1  0  0  0  0
 12 11  2  0  0  0  0
 12 13  1  0  0  0  0
 14 12  1  0  0  0  0
 15 14  2  0  0  0  0
 16 15  1  0  0  0  0
 10 16  2  0  0  0  0
M  END
> <ChemID>
101692

> <CAS>
73575-53-8

> <Original_SMILES>
Clc1cc(ccc1)-c1cc(Cl)c(Cl)cc1Cl

> <preferred_name>
2,3',4,5-Tetrachlorobiphenyl

> <dsstox_substance_id>
DTXSID0074215

> <dsstox_compound_id>
DTXCID2047561

> <qc_level>
Public_High

> <Canonical_QSARr>
ClC1C=C(Cl)C(Cl)=CC=1C1C=C(Cl)C=CC=1

> <InChI_Code_QSARr>
InChI=1S/C12H6Cl4/c13-8-3-1-2-7(4-8)9-5-11(15)12(16)6-10(9)14/h1-6H

> <InChI Key_QSARr>
LQEGJNOKOZHBBZ-UHFFFAOYSA-N

> <Salt_Solvent>


> <Salt_Solvent_ID>
0

> <MPID>
102779

> <HL Reference>
BRUNNER,S ET AL. (1990)

> <HL Temperature>
25

> <LogHL>
-3.9999999999999987

> <Tr_1_Tst_0>
1

$$$$
101696
  Mrv171c012241914302D          

 18 19  0  0  0  0            999 V2000
    2.2228    0.0000    0.0000 Cl  0  0  0  0  0  0  0  0  0  0  0  0
    1.5083   -0.4125    0.0000 C   0  0  0  0  0  0  0  0  0  0  0  0
    0.7938    0.0000    0.0000 C   0  0  0  0  0  0  0  0  0  0  0  0
    0.7938    0.8250    0.0000 Cl  0  0  0  0  0  0  0  0  0  0  0  0
    0.0794   -0.4125    0.0000 C   0  0  0  0  0  0  0  0  0  0  0  0
    0.0794   -1.2375    0.0000 C   0  0  0  0  0  0  0  0  0  0  0  0
   -0.6351   -1.6500    0.0000 Cl  0  0  0  0  0  0  0  0  0  0  0  0
    0.7938   -1.6500    0.0000 C   0  0  0  0  0  0  0  0  0  0  0  0
    0.7938   -2.4750    0.0000 Cl  0  0  0  0  0  0  0  0  0  0  0  0
    1.5083   -1.2375    0.0000 C   0  0  0  0  0  0  0  0  0  0  0  0
    2.2228   -1.6500    0.0000 C   0  0  0  0  0  0  0  0  0  0  0  0
    2.2228   -2.4750    0.0000 C   0  0  0  0  0  0  0  0  0  0  0  0
    2.9372   -2.8875    0.0000 C   0  0  0  0  0  0  0  0  0  0  0  0
    2.9372   -3.7125    0.0000 Cl  0  0  0  0  0  0  0  0  0  0  0  0
    3.6517   -2.4750    0.0000 C   0  0  0  0  0  0  0  0  0  0  0  0
    4.3662   -2.8875    0.0000 Cl  0  0  0  0  0  0  0  0  0  0  0  0
    3.6517   -1.6500    0.0000 C   0  0  0  0  0  0  0  0  0  0  0  0
    2.9372   -1.2375    0.0000 C   0  0  0  0  0  0  0  0  0  0  0  0
  1  2  1  0  0  0  0
  3  2  1  0  0  0  0
  3  4  1  0  0  0  0
  5  3  2  0  0  0  0
  6  5  1  0  0  0  0
  6  7  1  0  0  0  0
  8  6  2  0  0  0  0
  8  9  1  0  0  0  0
 10  8  1  0  0  0  0
  2 10  2  0  0  0  0
 10 11  1  0  0  0  0
 12 11  1  0  0  0  0
 13 12  2  0  0  0  0
 13 14  1  0  0  0  0
 15 13  1  0  0  0  0
 15 16  1  0  0  0  0
 17 15  2  0  0  0  0
 18 17  1  0  0  0  0
 11 18  2  0  0  0  0
M  END
> <ChemID>
101696

> <CAS>
74472-44-9

> <Original_SMILES>
Clc1ccc(cc1Cl)-c1c(Cl)c(Cl)cc(Cl)c1Cl

> <preferred_name>
2,3,3',4',5,6-Hexachlorobiphenyl

> <dsstox_substance_id>
DTXSID8074233

> <dsstox_compound_id>
DTXCID3047683

> <qc_level>
Public_High

> <Canonical_QSARr>
ClC1C=C(Cl)C(Cl)=C(C2C=C(Cl)C(Cl)=CC=2)C=1Cl

> <InChI_Code_QSARr>
InChI=1S/C12H4Cl6/c13-6-2-1-5(3-7(6)14)10-11(17)8(15)4-9(16)12(10)18/h1-4H

> <InChI Key_QSARr>
ZAGRQXMWMRUYRB-UHFFFAOYSA-N

> <Salt_Solvent>


> <Salt_Solvent_ID>
0

> <MPID>
102780

> <HL Reference>
BRUNNER,S ET AL. (1990)

> <HL Temperature>
25

> <LogHL>
-4.823908740944334

> <Tr_1_Tst_0>
1

$$$$
101697
  Mrv171c012241914302D          

 18 19  0  0  0  0            999 V2000
    0.3969    1.5125    0.0000 C   0  0  0  0  0  0  0  0  0  0  0  0
   -0.3176    1.9250    0.0000 C   0  0  0  0  0  0  0  0  0  0  0  0
   -0.3176    2.7500    0.0000 Cl  0  0  0  0  0  0  0  0  0  0  0  0
   -1.0320    1.5125    0.0000 C   0  0  0  0  0  0  0  0  0  0  0  0
   -1.7465    1.9250    0.0000 Cl  0  0  0  0  0  0  0  0  0  0  0  0
   -1.0320    0.6875    0.0000 C   0  0  0  0  0  0  0  0  0  0  0  0
   -0.3176    0.2750    0.0000 C   0  0  0  0  0  0  0  0  0  0  0  0
   -0.3176   -0.5500    0.0000 Cl  0  0  0  0  0  0  0  0  0  0  0  0
    0.3969    0.6875    0.0000 C   0  0  0  0  0  0  0  0  0  0  0  0
    1.1114    0.2750    0.0000 Cl  0  0  0  0  0  0  0  0  0  0  0  0
    1.1114    1.9250    0.0000 C   0  0  0  0  0  0  0  0  0  0  0  0
    1.8259    1.5125    0.0000 C   0  0  0  0  0  0  0  0  0  0  0  0
    2.5403    1.9250    0.0000 C   0  0  0  0  0  0  0  0  0  0  0  0
    3.2548    1.5125    0.0000 Cl  0  0  0  0  0  0  0  0  0  0  0  0
    2.5403    2.7500    0.0000 C   0  0  0  0  0  0  0  0  0  0  0  0
    1.8259    3.1625    0.0000 C   0  0  0  0  0  0  0  0  0  0  0  0
    1.8259    3.9875    0.0000 Cl  0  0  0  0  0  0  0  0  0  0  0  0
    1.1114    2.7500    0.0000 C   0  0  0  0  0  0  0  0  0  0  0  0
  2  1  1  0  0  0  0
  2  3  1  0  0  0  0
  4  2  2  0  0  0  0
  4  5  1  0  0  0  0
  6  4  1  0  0  0  0
  7  6  2  0  0  0  0
  7  8  1  0  0  0  0
  9  7  1  0  0  0  0
  1  9  2  0  0  0  0
  9 10  1  0  0  0  0
  1 11  1  0  0  0  0
 12 11  1  0  0  0  0
 13 12  2  0  0  0  0
 13 14  1  0  0  0  0
 15 13  1  0  0  0  0
 16 15  2  0  0  0  0
 16 17  1  0  0  0  0
 18 16  1  0  0  0  0
 11 18  2  0  0  0  0
M  END
> <ChemID>
101697

> <CAS>
74472-46-1

> <Original_SMILES>
Clc1cc(cc(Cl)c1)-c1c(Cl)c(Cl)cc(Cl)c1Cl

> <preferred_name>
2,3,3',5,5',6-Hexachlorobiphenyl

> <dsstox_substance_id>
DTXSID8073631

> <dsstox_compound_id>
DTXCID3047685

> <qc_level>
Public_High

> <Canonical_QSARr>
ClC1C=C(Cl)C(Cl)=C(C2C=C(Cl)C=C(Cl)C=2)C=1Cl

> <InChI_Code_QSARr>
InChI=1S/C12H4Cl6/c13-6-1-5(2-7(14)3-6)10-11(17)8(15)4-9(16)12(10)18/h1-4H

> <InChI Key_QSARr>
ZEATXTCWXKQPHO-UHFFFAOYSA-N

> <Salt_Solvent>


> <Salt_Solvent_ID>
0

> <MPID>
102781

> <HL Reference>
BRUNNER,S ET AL. (1990)

> <HL Temperature>
25

> <LogHL>
-4.5376020021010435

> <Tr_1_Tst_0>
1

$$$$
101723
  Mrv171c012241914302D          

 28 30  0  0  0  0            999 V2000
    5.1506   -5.5702    0.0000 N   0  0  0  0  0  0  0  0  0  0  0  0
    4.4362   -5.1577    0.0000 C   0  0  0  0  0  0  0  0  0  0  0  0
    4.4362   -4.3327    0.0000 O   0  0  0  0  0  0  0  0  0  0  0  0
    5.1506   -3.9202    0.0000 C   0  0  0  0  0  0  0  0  0  0  0  0
    5.8651   -4.3327    0.0000 C   0  0  0  0  0  0  0  0  0  0  0  0
    6.5796   -3.9202    0.0000 C   0  0  0  0  0  0  0  0  0  0  0  0
    6.5796   -3.0952    0.0000 C   0  0  0  0  0  0  0  0  0  0  0  0
    5.8651   -2.6827    0.0000 C   0  0  0  0  0  0  0  0  0  0  0  0
    5.8651   -1.8577    0.0000 C   0  0  0  0  0  0  0  0  0  0  0  0
    5.8651   -1.0327    0.0000 F   0  0  0  0  0  0  0  0  0  0  0  0
    5.0401   -1.8577    0.0000 F   0  0  0  0  0  0  0  0  0  0  0  0
    6.6901   -1.8577    0.0000 F   0  0  0  0  0  0  0  0  0  0  0  0
    5.1506   -3.0952    0.0000 C   0  0  0  0  0  0  0  0  0  0  0  0
    3.7217   -5.5702    0.0000 C   0  0  0  0  0  0  0  0  0  0  0  0
    3.0072   -5.1577    0.0000 C   0  0  0  0  0  0  0  0  0  0  0  0
    3.0072   -4.3327    0.0000 N   0  0  0  0  0  0  0  0  0  0  0  0
    2.2927   -3.9202    0.0000 C   0  0  0  0  0  0  0  0  0  0  0  0
    2.2927   -3.0952    0.0000 C   0  0  0  0  0  0  0  0  0  0  0  0
    3.0072   -2.6827    0.0000 F   0  0  0  0  0  0  0  0  0  0  0  0
    1.5783   -2.6827    0.0000 C   0  0  0  0  0  0  0  0  0  0  0  0
    0.8638   -3.0952    0.0000 C   0  0  0  0  0  0  0  0  0  0  0  0
    0.1493   -2.6827    0.0000 F   0  0  0  0  0  0  0  0  0  0  0  0
    0.8638   -3.9202    0.0000 C   0  0  0  0  0  0  0  0  0  0  0  0
    1.5783   -4.3327    0.0000 C   0  0  0  0  0  0  0  0  0  0  0  0
    2.2927   -5.5702    0.0000 O   0  0  0  0  0  0  0  0  0  0  0  0
    3.7217   -6.3952    0.0000 C   0  0  0  0  0  0  0  0  0  0  0  0
    4.4362   -6.8077    0.0000 C   0  0  0  0  0  0  0  0  0  0  0  0
    5.1506   -6.3952    0.0000 C   0  0  0  0  0  0  0  0  0  0  0  0
  2  1  1  0  0  0  0
  2  3  1  0  0  0  0
  3  4  1  0  0  0  0
  5  4  1  0  0  0  0
  6  5  2  0  0  0  0
  7  6  1  0  0  0  0
  8  7  2  0  0  0  0
  8  9  1  0  0  0  0
  9 10  1  0  0  0  0
  9 11  1  0  0  0  0
  9 12  1  0  0  0  0
 13  8  1  0  0  0  0
  4 13  2  0  0  0  0
 14  2  2  0  0  0  0
 14 15  1  0  0  0  0
 15 16  1  0  0  0  0
 16 17  1  0  0  0  0
 18 17  1  0  0  0  0
 18 19  1  0  0  0  0
 20 18  2  0  0  0  0
 21 20  1  0  0  0  0
 21 22  1  0  0  0  0
 23 21  2  0  0  0  0
 24 23  1  0  0  0  0
 17 24  2  0  0  0  0
 15 25  2  0  0  0  0
 26 14  1  0  0  0  0
 27 26  2  0  0  0  0
 28 27  1  0  0  0  0
  1 28  2  0  0  0  0
M  END
> <ChemID>
101723

> <CAS>
83164-33-4

> <Original_SMILES>
O=C(Nc1ccc(F)cc1F)c1ccc[n]c1Oc1cc(ccc1)C(F)(F)F

> <preferred_name>
Diflufenican

> <dsstox_substance_id>
DTXSID4041494

> <dsstox_compound_id>
DTXCID2021494

> <qc_level>
DSSTox_Low

> <Canonical_QSARr>
O=C(NC1=CC=C(F)C=C1F)C1C=CC=NC=1OC1=CC(=CC=C1)C(F)(F)F

> <InChI_Code_QSARr>
InChI=1S/C19H11F5N2O2/c20-12-6-7-16(15(21)10-12)26-17(27)14-5-2-8-25-18(14)28-13-4-1-3-11(9-13)19(22,23)24/h1-10H,(H,26,27)

> <InChI Key_QSARr>
WYEHFWKAOXOVJD-UHFFFAOYSA-N

> <Salt_Solvent>


> <Salt_Solvent_ID>
0

> <MPID>
102782

> <HL Reference>
TOMLIN,C (1997)

> <HL Temperature>
25

> <LogHL>
-6.488116639021136

> <Tr_1_Tst_0>
0

$$$$
101735
  Mrv171c012241914302D          

 17 17  0  0  0  0            999 V2000
    1.1897   -2.8029    0.0000 C   0  0  0  0  0  0  0  0  0  0  0  0
    0.4752   -2.3904    0.0000 C   0  0  0  0  0  0  0  0  0  0  0  0
   -0.2393   -2.8029    0.0000 Cl  0  0  0  0  0  0  0  0  0  0  0  0
    1.9041   -2.3904    0.0000 N   0  0  0  0  0  0  0  0  0  0  0  0
    2.6186   -2.8029    0.0000 C   0  0  0  0  0  0  0  0  0  0  0  0
    2.6186   -3.6279    0.0000 C   0  0  0  0  0  0  0  0  0  0  0  0
    3.3331   -2.3904    0.0000 C   0  0  0  0  0  0  0  0  0  0  0  0
    4.0476   -2.8029    0.0000 O   0  0  0  0  0  0  0  0  0  0  0  0
    4.7620   -2.3904    0.0000 C   0  0  0  0  0  0  0  0  0  0  0  0
    1.9041   -1.5654    0.0000 C   0  0  0  0  0  0  0  0  0  0  0  0
    2.5716   -1.0805    0.0000 C   0  0  0  0  0  0  0  0  0  0  0  0
    3.3562   -1.3354    0.0000 C   0  0  0  0  0  0  0  0  0  0  0  0
    2.3166   -0.2959    0.0000 C   0  0  0  0  0  0  0  0  0  0  0  0
    1.4916   -0.2959    0.0000 S   0  0  0  0  0  0  0  0  0  0  0  0
    1.2367   -1.0805    0.0000 C   0  0  0  0  0  0  0  0  0  0  0  0
    0.4521   -1.3354    0.0000 C   0  0  0  0  0  0  0  0  0  0  0  0
    1.1897   -3.6279    0.0000 O   0  0  0  0  0  0  0  0  0  0  0  0
  1  2  1  0  0  0  0
  2  3  1  0  0  0  0
  1  4  1  0  0  0  0
  4  5  1  0  0  0  0
  5  6  1  0  0  0  0
  5  7  1  0  0  0  0
  7  8  1  0  0  0  0
  8  9  1  0  0  0  0
  4 10  1  0  0  0  0
 11 10  1  0  0  0  0
 11 12  1  0  0  0  0
 13 11  2  0  0  0  0
 14 13  1  0  0  0  0
 15 14  1  0  0  0  0
 10 15  2  0  0  0  0
 15 16  1  0  0  0  0
  1 17  2  0  0  0  0
M  END
> <ChemID>
101735

> <CAS>
87674-68-8

> <Original_SMILES>
COCC(C)N(C(=O)CCl)c1c(C)c[s]c1C

> <preferred_name>
Dimethenamid

> <dsstox_substance_id>
DTXSID4032376

> <dsstox_compound_id>
DTXCID2012376

> <qc_level>
DSSTox_High

> <Canonical_QSARr>
CC1SC=C(C)C=1N(C(C)COC)C(=O)CCl

> <InChI_Code_QSARr>
InChI=1S/C12H18ClNO2S/c1-8-7-17-10(3)12(8)14(11(15)5-13)9(2)6-16-4/h7,9H,5-6H2,1-4H3

> <InChI Key_QSARr>
JLYFCTQDENRSOL-UHFFFAOYSA-N

> <Salt_Solvent>


> <Salt_Solvent_ID>
0

> <MPID>
102783

> <HL Reference>
TOMLIN,C (1997)

> <HL Temperature>
25

> <LogHL>
-7.086186147616301

> <Tr_1_Tst_0>
1

$$$$
101751
  Mrv171c012241914302D          

 16 16  0  0  0  0            999 V2000
    2.0983   -1.6020    0.0000 P   0  0  0  0  0  0  0  0  0  0  0  0
    2.8829   -1.8569    0.0000 N   0  0  0  0  0  0  0  0  0  0  0  0
    3.1379   -2.6415    0.0000 C   0  0  0  0  0  0  0  0  0  0  0  0
    3.9629   -2.6415    0.0000 C   0  0  0  0  0  0  0  0  0  0  0  0
    4.2178   -1.8569    0.0000 S   0  0  0  0  0  0  0  0  0  0  0  0
    3.5504   -1.3720    0.0000 C   0  0  0  0  0  0  0  0  0  0  0  0
    3.5504   -0.5470    0.0000 O   0  0  0  0  0  0  0  0  0  0  0  0
    1.3137   -1.3470    0.0000 S   0  0  0  0  0  0  0  0  0  0  0  0
    0.7006   -1.8991    0.0000 C   0  0  0  0  0  0  0  0  0  0  0  0
    0.8721   -2.7060    0.0000 C   0  0  0  0  0  0  0  0  0  0  0  0
   -0.0840   -1.6441    0.0000 C   0  0  0  0  0  0  0  0  0  0  0  0
   -0.6971   -2.1961    0.0000 C   0  0  0  0  0  0  0  0  0  0  0  0
    2.3532   -0.8173    0.0000 O   0  0  0  0  0  0  0  0  0  0  0  0
    1.8012   -0.2042    0.0000 C   0  0  0  0  0  0  0  0  0  0  0  0
    2.0562    0.5804    0.0000 C   0  0  0  0  0  0  0  0  0  0  0  0
    1.8434   -2.3866    0.0000 O   0  0  0  0  0  0  0  0  0  0  0  0
  1  2  1  0  0  0  0
  3  2  1  0  0  0  0
  4  3  1  0  0  0  0
  5  4  1  0  0  0  0
  6  5  1  0  0  0  0
  2  6  1  0  0  0  0
  6  7  2  0  0  0  0
  1  8  1  0  0  0  0
  8  9  1  0  0  0  0
  9 10  1  0  0  0  0
  9 11  1  0  0  0  0
 11 12  1  0  0  0  0
  1 13  1  0  0  0  0
 13 14  1  0  0  0  0
 14 15  1  0  0  0  0
  1 16  2  0  0  0  0
M  END
> <ChemID>
101751

> <CAS>
98886-44-3

> <Original_SMILES>
CC(CC)SP(=O)(OCC)N1CCSC1=O

> <preferred_name>
Fosthiazate

> <dsstox_substance_id>
DTXSID0034930

> <dsstox_compound_id>
DTXCID8014930

> <qc_level>
DSSTox_Low

> <Canonical_QSARr>
CC(CC)SP(=O)(OCC)N1CCSC1=O

> <InChI_Code_QSARr>
InChI=1S/C9H18NO3PS2/c1-4-8(3)16-14(12,13-5-2)10-6-7-15-9(10)11/h8H,4-7H2,1-3H3

> <InChI Key_QSARr>
DUFVKSUJRWYZQP-UHFFFAOYSA-N

> <Salt_Solvent>


> <Salt_Solvent_ID>
0

> <MPID>
102784

> <HL Reference>
TOMLIN,C (1997)

> <HL Temperature>
25

> <LogHL>
-9.759450751717392

> <Tr_1_Tst_0>
1

$$$$
101755
  Mrv171c012241914302D          

 27 28  0  0  0  0            999 V2000
    4.2835   -4.0261    0.0000 C   0  0  0  0  0  0  0  0  0  0  0  0
    4.2835   -4.8511    0.0000 C   0  0  0  0  0  0  0  0  0  0  0  0
    4.9980   -5.2636    0.0000 C   0  0  0  0  0  0  0  0  0  0  0  0
    5.7124   -4.8511    0.0000 C   0  0  0  0  0  0  0  0  0  0  0  0
    5.7124   -4.0261    0.0000 C   0  0  0  0  0  0  0  0  0  0  0  0
    4.9980   -3.6136    0.0000 C   0  0  0  0  0  0  0  0  0  0  0  0
    4.9980   -2.7886    0.0000 C   0  0  0  0  0  0  0  0  0  0  0  0
    4.2835   -2.3761    0.0000 O   0  0  0  0  0  0  0  0  0  0  0  0
    5.7124   -2.3761    0.0000 O   0  0  0  0  0  0  0  0  0  0  0  0
    5.7124   -1.5511    0.0000 C   0  0  0  0  0  0  0  0  0  0  0  0
    3.5690   -3.6136    0.0000 S   0  0  0  0  0  0  0  0  0  0  0  0
    3.9815   -2.8991    0.0000 O   0  0  0  0  0  0  0  0  0  0  0  0
    3.1565   -4.3280    0.0000 O   0  0  0  0  0  0  0  0  0  0  0  0
    2.8546   -3.2011    0.0000 N   0  0  0  0  0  0  0  0  0  0  0  0
    2.8546   -2.3761    0.0000 C   0  0  0  0  0  0  0  0  0  0  0  0
    3.5690   -1.9636    0.0000 O   0  0  0  0  0  0  0  0  0  0  0  0
    2.1401   -1.9636    0.0000 N   0  0  0  0  0  0  0  0  0  0  0  0
    1.4256   -2.3761    0.0000 C   0  0  0  0  0  0  0  0  0  0  0  0
    2.1401   -1.1386    0.0000 C   0  0  0  0  0  0  0  0  0  0  0  0
    2.8546   -0.7261    0.0000 N   0  0  0  0  0  0  0  0  0  0  0  0
    2.8546    0.0989    0.0000 C   0  0  0  0  0  0  0  0  0  0  0  0
    3.5690    0.5114    0.0000 C   0  0  0  0  0  0  0  0  0  0  0  0
    2.1401    0.5114    0.0000 N   0  0  0  0  0  0  0  0  0  0  0  0
    1.4256    0.0989    0.0000 C   0  0  0  0  0  0  0  0  0  0  0  0
    0.7111    0.5114    0.0000 O   0  0  0  0  0  0  0  0  0  0  0  0
   -0.0033    0.0989    0.0000 C   0  0  0  0  0  0  0  0  0  0  0  0
    1.4256   -0.7261    0.0000 N   0  0  0  0  0  0  0  0  0  0  0  0
  2  1  2  0  0  0  0
  3  2  1  0  0  0  0
  4  3  2  0  0  0  0
  5  4  1  0  0  0  0
  6  5  2  0  0  0  0
  1  6  1  0  0  0  0
  6  7  1  0  0  0  0
  7  8  2  0  0  0  0
  7  9  1  0  0  0  0
  9 10  1  0  0  0  0
  1 11  1  0  0  0  0
 11 12  2  0  0  0  0
 11 13  2  0  0  0  0
 11 14  1  0  0  0  0
 14 15  1  0  0  0  0
 15 16  2  0  0  0  0
 15 17  1  0  0  0  0
 17 18  1  0  0  0  0
 17 19  1  0  0  0  0
 20 19  1  0  0  0  0
 21 20  2  0  0  0  0
 21 22  1  0  0  0  0
 23 21  1  0  0  0  0
 24 23  2  0  0  0  0
 24 25  1  0  0  0  0
 25 26  1  0  0  0  0
 27 24  1  0  0  0  0
 19 27  2  0  0  0  0
M  END
> <ChemID>
101755

> <CAS>
101200-48-0

> <Original_SMILES>
Cc1[n]c([n]c([n]1)OC)N(C)C(=O)NS(=O)(=O)c1ccccc1C(=O)OC

> <preferred_name>
Tribenuron-methyl

> <dsstox_substance_id>
DTXSID8024101

> <dsstox_compound_id>
DTXCID004101

> <qc_level>
DSSTox_Low

> <Canonical_QSARr>
CC1N=C(N=C(N=1)N(C)C(=O)NS(=O)(=O)C1=CC=CC=C1C(=O)OC)OC

> <InChI_Code_QSARr>
InChI=1S/C15H17N5O6S/c1-9-16-13(18-14(17-9)26-4)20(2)15(22)19-27(23,24)11-8-6-5-7-10(11)12(21)25-3/h5-8H,1-4H3,(H,19,22)

> <InChI Key_QSARr>
VLCQZHSMCYCDJL-UHFFFAOYSA-N

> <Salt_Solvent>


> <Salt_Solvent_ID>
0

> <MPID>
102785

> <HL Reference>
TOMLIN,C (2003)

> <HL Temperature>
25

> <LogHL>
-12.991399828238075

> <Tr_1_Tst_0>
1

$$$$
101806
  Mrv171c012241914302D          

 25 28  0  0  0  0            999 V2000
    1.2022   -1.7112    0.0000 C   0  0  0  0  0  0  0  0  0  0  0  0
    1.2022   -0.8862    0.0000 C   0  0  0  0  0  0  0  0  0  0  0  0
    0.4878   -0.4737    0.0000 Cl  0  0  0  0  0  0  0  0  0  0  0  0
    1.9167   -0.4737    0.0000 C   0  0  0  0  0  0  0  0  0  0  0  0
    2.6312   -0.8862    0.0000 C   0  0  0  0  0  0  0  0  0  0  0  0
    3.3456   -0.4737    0.0000 Cl  0  0  0  0  0  0  0  0  0  0  0  0
    2.6312   -1.7112    0.0000 C   0  0  0  0  0  0  0  0  0  0  0  0
    3.3456   -2.1237    0.0000 N   0  0  0  0  0  0  0  0  0  0  0  0
    3.3456   -2.9487    0.0000 C   0  0  0  0  0  0  0  0  0  0  0  0
    2.6312   -3.3612    0.0000 N   0  0  0  0  0  0  0  0  0  0  0  0
    1.8775   -3.0256    0.0000 N   0  0  0  0  0  0  0  0  0  0  0  0
    1.3255   -3.6387    0.0000 C   0  0  0  0  0  0  0  0  0  0  0  0
    1.7380   -4.3532    0.0000 N   0  0  0  0  0  0  0  0  0  0  0  0
    2.5449   -4.1817    0.0000 C   0  0  0  0  0  0  0  0  0  0  0  0
    4.0601   -3.3612    0.0000 N   0  0  0  0  0  0  0  0  0  0  0  0
    4.7746   -2.9487    0.0000 C   0  0  0  0  0  0  0  0  0  0  0  0
    4.7746   -2.1237    0.0000 C   0  0  0  0  0  0  0  0  0  0  0  0
    5.4891   -1.7112    0.0000 C   0  0  0  0  0  0  0  0  0  0  0  0
    6.2035   -2.1237    0.0000 C   0  0  0  0  0  0  0  0  0  0  0  0
    6.9180   -1.7112    0.0000 F   0  0  0  0  0  0  0  0  0  0  0  0
    6.2035   -2.9487    0.0000 C   0  0  0  0  0  0  0  0  0  0  0  0
    5.4891   -3.3612    0.0000 C   0  0  0  0  0  0  0  0  0  0  0  0
    4.0601   -1.7112    0.0000 C   0  0  0  0  0  0  0  0  0  0  0  0
    4.0601   -0.8862    0.0000 O   0  0  0  0  0  0  0  0  0  0  0  0
    1.9167   -2.1237    0.0000 C   0  0  0  0  0  0  0  0  0  0  0  0
  2  1  1  0  0  0  0
  2  3  1  0  0  0  0
  4  2  2  0  0  0  0
  5  4  1  0  0  0  0
  5  6  1  0  0  0  0
  7  5  2  0  0  0  0
  7  8  1  0  0  0  0
  9  8  1  0  0  0  0
  9 10  1  0  0  0  0
 11 10  1  0  0  0  0
 12 11  2  0  0  0  0
 13 12  1  0  0  0  0
 14 13  2  0  0  0  0
 10 14  1  0  0  0  0
 15  9  2  0  0  0  0
 16 15  1  0  0  0  0
 16 17  2  0  0  0  0
 17 18  1  0  0  0  0
 18 19  2  0  0  0  0
 19 20  1  0  0  0  0
 19 21  1  0  0  0  0
 21 22  2  0  0  0  0
 22 16  1  0  0  0  0
 23 17  1  0  0  0  0
  8 23  1  0  0  0  0
 23 24  2  0  0  0  0
 25  7  1  0  0  0  0
  1 25  2  0  0  0  0
M  END
> <ChemID>
101806

> <CAS>
136426-54-5

> <Original_SMILES>
O=C1c2cc(F)ccc2N=C(N1c1ccc(Cl)cc1Cl)[n]1c[n]c[n]1

> <preferred_name>
Fluquinconazole

> <dsstox_substance_id>
DTXSID5057965

> <dsstox_compound_id>
DTXCID3031733

> <qc_level>
DSSTox_High

> <Canonical_QSARr>
O=C1C2C=C(F)C=CC=2N=C(N1C1C=CC(Cl)=CC=1Cl)N1C=NC=N1

> <InChI_Code_QSARr>
InChI=1S/C16H8Cl2FN5O/c17-9-1-4-14(12(18)5-9)24-15(25)11-6-10(19)2-3-13(11)22-16(24)23-8-20-7-21-23/h1-8H

> <InChI Key_QSARr>
IJJVMEJXYNJXOJ-UHFFFAOYSA-N

> <Salt_Solvent>


> <Salt_Solvent_ID>
0

> <MPID>
102786

> <HL Reference>
TOMLIN,C (1997)

> <HL Temperature>
20

> <LogHL>
-10.68613277963084

> <Tr_1_Tst_0>
1

$$$$
101810
  Mrv171c012241914302D          

 24 26  0  0  0  0            999 V2000
    2.8034   -2.7998    0.0000 C   0  0  0  0  0  0  0  0  0  0  0  0
    3.4165   -2.2478    0.0000 C   0  0  0  0  0  0  0  0  0  0  0  0
    4.2011   -2.5027    0.0000 C   0  0  0  0  0  0  0  0  0  0  0  0
    4.8142   -1.9507    0.0000 C   0  0  0  0  0  0  0  0  0  0  0  0
    4.6427   -1.1437    0.0000 C   0  0  0  0  0  0  0  0  0  0  0  0
    5.2558   -0.5917    0.0000 C   0  0  0  0  0  0  0  0  0  0  0  0
    5.8689   -0.0397    0.0000 F   0  0  0  0  0  0  0  0  0  0  0  0
    4.7037    0.0214    0.0000 F   0  0  0  0  0  0  0  0  0  0  0  0
    5.8078   -1.2048    0.0000 F   0  0  0  0  0  0  0  0  0  0  0  0
    3.8580   -0.8888    0.0000 C   0  0  0  0  0  0  0  0  0  0  0  0
    3.2449   -1.4408    0.0000 C   0  0  0  0  0  0  0  0  0  0  0  0
    2.4603   -1.1859    0.0000 S   0  0  0  0  0  0  0  0  0  0  0  0
    1.6757   -0.9309    0.0000 C   0  0  0  0  0  0  0  0  0  0  0  0
    2.2054   -1.9705    0.0000 O   0  0  0  0  0  0  0  0  0  0  0  0
    2.7153   -0.4013    0.0000 O   0  0  0  0  0  0  0  0  0  0  0  0
    2.0188   -2.5449    0.0000 C   0  0  0  0  0  0  0  0  0  0  0  0
    1.7638   -1.7603    0.0000 C   0  0  0  0  0  0  0  0  0  0  0  0
    0.9388   -1.7603    0.0000 N   0  0  0  0  0  0  0  0  0  0  0  0
    0.6839   -2.5449    0.0000 O   0  0  0  0  0  0  0  0  0  0  0  0
    1.3513   -3.0298    0.0000 C   0  0  0  0  0  0  0  0  0  0  0  0
    1.3513   -3.8548    0.0000 C   0  0  0  0  0  0  0  0  0  0  0  0
    0.9388   -4.5693    0.0000 C   0  0  0  0  0  0  0  0  0  0  0  0
    1.7638   -4.5693    0.0000 C   0  0  0  0  0  0  0  0  0  0  0  0
    2.9749   -3.6068    0.0000 O   0  0  0  0  0  0  0  0  0  0  0  0
  1  2  1  0  0  0  0
  3  2  1  0  0  0  0
  4  3  2  0  0  0  0
  5  4  1  0  0  0  0
  5  6  1  0  0  0  0
  6  7  1  0  0  0  0
  6  8  1  0  0  0  0
  6  9  1  0  0  0  0
 10  5  2  0  0  0  0
 11 10  1  0  0  0  0
  2 11  2  0  0  0  0
 11 12  1  0  0  0  0
 12 13  1  0  0  0  0
 12 14  2  0  0  0  0
 12 15  2  0  0  0  0
  1 16  1  0  0  0  0
 17 16  1  0  0  0  0
 18 17  2  0  0  0  0
 19 18  1  0  0  0  0
 20 19  1  0  0  0  0
 16 20  2  0  0  0  0
 20 21  1  0  0  0  0
 22 21  1  0  0  0  0
 23 22  1  0  0  0  0
 21 23  1  0  0  0  0
  1 24  2  0  0  0  0
M  END
> <ChemID>
101810

> <CAS>
141112-29-0

> <Original_SMILES>
CS(=O)(=O)c1cc(ccc1C(=O)c1c[n]oc1C1CC1)C(F)(F)F

> <preferred_name>
Isoxaflutole

> <dsstox_substance_id>
DTXSID5034723

> <dsstox_compound_id>
DTXCID3014723

> <qc_level>
DSSTox_Low

> <Canonical_QSARr>
CS(=O)(=O)C1C=C(C=CC=1C(=O)C1C=NOC=1C1CC1)C(F)(F)F

> <InChI_Code_QSARr>
InChI=1S/C15H12F3NO4S/c1-24(21,22)12-6-9(15(16,17)18)4-5-10(12)13(20)11-7-19-23-14(11)8-2-3-8/h4-8H,2-3H2,1H3

> <InChI Key_QSARr>
OYIKARCXOQLFHF-UHFFFAOYSA-N

> <Salt_Solvent>


> <Salt_Solvent_ID>
0

> <MPID>
102787

> <HL Reference>
TOMLIN,C (1997)

> <HL Temperature>
20

> <LogHL>
-9.732828271596976

> <Tr_1_Tst_0>
1

$$$$
101815
  Mrv171c012241914302D          

  9  8  0  0  0  0            999 V2000
    1.6002   -0.6498    0.0000 C   0  0  0  0  0  0  0  0  0  0  0  0
    1.6002   -1.4748    0.0000 C   0  0  0  0  0  0  0  0  0  0  0  0
    0.8857   -1.8873    0.0000 O   0  0  0  0  0  0  0  0  0  0  0  0
    0.1713   -1.4748    0.0000 N   0  3  0  0  0  0  0  0  0  0  0  0
   -0.5432   -1.8873    0.0000 O   0  0  0  0  0  0  0  0  0  0  0  0
    0.1713   -0.6498    0.0000 O   0  5  0  0  0  0  0  0  0  0  0  0
    2.3147   -1.8873    0.0000 C   0  0  0  0  0  0  0  0  0  0  0  0
    3.0291   -1.4748    0.0000 O   0  0  0  0  0  0  0  0  0  0  0  0
    2.3147   -2.7123    0.0000 C   0  0  0  0  0  0  0  0  0  0  0  0
  1  2  1  0  0  0  0
  2  3  1  0  0  0  0
  3  4  1  0  0  0  0
  4  5  2  0  0  0  0
  4  6  1  0  0  0  0
  2  7  1  0  0  0  0
  7  8  1  0  0  0  0
  7  9  1  0  0  0  0
M  CHG  2   4   1   6  -1
M  END
> <ChemID>
101815

> <CAS>
147794-10-3

> <Original_SMILES>
CC(O[N+]([O-])=O)C(C)O

> <preferred_name>


> <dsstox_substance_id>
DTXSID10873565

> <dsstox_compound_id>
DTXCID401011791

> <qc_level>


> <Canonical_QSARr>
CC(O[N+]([O-])=O)C(C)O

> <InChI_Code_QSARr>
InChI=1S/C4H9NO4/c1-3(6)4(2)9-5(7)8/h3-4,6H,1-2H3

> <InChI Key_QSARr>
CGFCSKMZZXPWEY-UHFFFAOYSA-N

> <Salt_Solvent>


> <Salt_Solvent_ID>
0

> <MPID>
102788

> <HL Reference>
SHEPSON,PB ET AL. (1996)

> <HL Temperature>
25

> <LogHL>
-7.00436480540244

> <Tr_1_Tst_0>
1

$$$$
101816
  Mrv171c012241914302D          

  9  8  0  0  0  0            999 V2000
    1.7564   -1.9799    0.0000 C   0  0  0  0  0  0  0  0  0  0  0  0
    1.0420   -1.5674    0.0000 O   0  0  0  0  0  0  0  0  0  0  0  0
    0.3275   -1.9799    0.0000 N   0  3  0  0  0  0  0  0  0  0  0  0
   -0.3870   -1.5674    0.0000 O   0  0  0  0  0  0  0  0  0  0  0  0
    0.3275   -2.8049    0.0000 O   0  5  0  0  0  0  0  0  0  0  0  0
    2.4709   -1.5674    0.0000 C   0  0  0  0  0  0  0  0  0  0  0  0
    2.4709   -0.7424    0.0000 O   0  0  0  0  0  0  0  0  0  0  0  0
    3.1854   -1.9799    0.0000 C   0  0  0  0  0  0  0  0  0  0  0  0
    3.8998   -1.5674    0.0000 C   0  0  0  0  0  0  0  0  0  0  0  0
  1  2  1  0  0  0  0
  2  3  1  0  0  0  0
  3  4  2  0  0  0  0
  3  5  1  0  0  0  0
  1  6  1  0  0  0  0
  6  7  1  0  0  0  0
  6  8  1  0  0  0  0
  8  9  1  0  0  0  0
M  CHG  2   3   1   5  -1
M  END
> <ChemID>
101816

> <CAS>
147794-11-4

> <Original_SMILES>
CCC(O)CO[N+]([O-])=O

> <preferred_name>


> <dsstox_substance_id>
DTXSID00873559

> <dsstox_compound_id>
DTXCID601011785

> <qc_level>


> <Canonical_QSARr>
CCC(O)CO[N+]([O-])=O

> <InChI_Code_QSARr>
InChI=1S/C4H9NO4/c1-2-4(6)3-9-5(7)8/h4,6H,2-3H2,1H3

> <InChI Key_QSARr>
KNUQGVIXAYDSOX-UHFFFAOYSA-N

> <Salt_Solvent>


> <Salt_Solvent_ID>
0

> <MPID>
102789

> <HL Reference>
SHEPSON,PB ET AL. (1996)

> <HL Temperature>
25

> <LogHL>
-6.764471553092469

> <Tr_1_Tst_0>
1

$$$$
101817
  Mrv171c012241914302D          

  9  8  0  0  0  0            999 V2000
    1.7501   -2.0585    0.0000 C   0  0  0  0  0  0  0  0  0  0  0  0
    2.4646   -2.4710    0.0000 O   0  0  0  0  0  0  0  0  0  0  0  0
    1.7501   -1.2335    0.0000 C   0  0  0  0  0  0  0  0  0  0  0  0
    1.0357   -0.8210    0.0000 O   0  0  0  0  0  0  0  0  0  0  0  0
    1.0357    0.0040    0.0000 N   0  3  0  0  0  0  0  0  0  0  0  0
    0.3212    0.4165    0.0000 O   0  0  0  0  0  0  0  0  0  0  0  0
    1.7501    0.4165    0.0000 O   0  5  0  0  0  0  0  0  0  0  0  0
    2.4646   -0.8210    0.0000 C   0  0  0  0  0  0  0  0  0  0  0  0
    3.1791   -1.2335    0.0000 C   0  0  0  0  0  0  0  0  0  0  0  0
  1  2  1  0  0  0  0
  1  3  1  0  0  0  0
  3  4  1  0  0  0  0
  4  5  1  0  0  0  0
  5  6  2  0  0  0  0
  5  7  1  0  0  0  0
  3  8  1  0  0  0  0
  8  9  1  0  0  0  0
M  CHG  2   5   1   7  -1
M  END
> <ChemID>
101817

> <CAS>
147794-12-5

> <Original_SMILES>
CCC(CO)O[N+]([O-])=O

> <preferred_name>


> <dsstox_substance_id>
DTXSID40873558

> <dsstox_compound_id>
DTXCID901011784

> <qc_level>


> <Canonical_QSARr>
CCC(CO)O[N+]([O-])=O

> <InChI_Code_QSARr>
InChI=1S/C4H9NO4/c1-2-4(3-6)9-5(7)8/h4,6H,2-3H2,1H3

> <InChI Key_QSARr>
YXMNEYKMHSBVTD-UHFFFAOYSA-N

> <Salt_Solvent>


> <Salt_Solvent_ID>
0

> <MPID>
102790

> <HL Reference>
SHEPSON,PB ET AL. (1996)

> <HL Temperature>
25

> <LogHL>
-6.777283528852435

> <Tr_1_Tst_0>
0

$$$$
101818
  Mrv171c012241914302D          

 13 14  0  0  0  0            999 V2000
    3.5155   -1.7446    0.0000 C   0  0  0  0  0  0  0  0  0  0  0  0
    2.8010   -1.3321    0.0000 C   0  0  0  0  0  0  0  0  0  0  0  0
    2.8010   -0.5071    0.0000 O   0  0  0  0  0  0  0  0  0  0  0  0
    2.0865   -0.0946    0.0000 C   0  0  0  0  0  0  0  0  0  0  0  0
    2.0865    0.7304    0.0000 C   0  0  0  0  0  0  0  0  0  0  0  0
    1.3721    1.1429    0.0000 C   0  0  0  0  0  0  0  0  0  0  0  0
    0.6576    0.7304    0.0000 C   0  0  0  0  0  0  0  0  0  0  0  0
    0.6576   -0.0946    0.0000 C   0  0  0  0  0  0  0  0  0  0  0  0
    1.3721   -0.5071    0.0000 C   0  0  0  0  0  0  0  0  0  0  0  0
    2.0865   -1.7446    0.0000 C   0  0  0  0  0  0  0  0  0  0  0  0
    2.0865   -2.5696    0.0000 C   0  0  0  0  0  0  0  0  0  0  0  0
    2.8010   -2.9821    0.0000 C   0  0  0  0  0  0  0  0  0  0  0  0
    3.5155   -2.5696    0.0000 C   0  0  0  0  0  0  0  0  0  0  0  0
  2  1  1  0  0  0  0
  2  3  1  0  0  0  0
  3  4  1  0  0  0  0
  5  4  1  0  0  0  0
  6  5  2  0  0  0  0
  7  6  1  0  0  0  0
  8  7  2  0  0  0  0
  9  8  1  0  0  0  0
  4  9  2  0  0  0  0
 10  2  2  0  0  0  0
 11 10  1  0  0  0  0
 12 11  2  0  0  0  0
 13 12  1  0  0  0  0
  1 13  2  0  0  0  0
M  END
> <ChemID>
101818

> <CAS>
101-84-8

> <Original_SMILES>
c1ccccc1Oc1ccccc1

> <preferred_name>
Diphenyl oxide

> <dsstox_substance_id>
DTXSID9021847

> <dsstox_compound_id>
DTXCID701847

> <qc_level>


> <Canonical_QSARr>
C1=CC=CC=C1OC1C=CC=CC=1

> <InChI_Code_QSARr>
InChI=1S/C12H10O/c1-3-7-11(8-4-1)13-12-9-5-2-6-10-12/h1-10H

> <InChI Key_QSARr>
USIUVYZYUHIAEV-UHFFFAOYSA-N

> <Salt_Solvent>


> <Salt_Solvent_ID>
0

> <MPID>
319594

> <HL Reference>


> <HL Temperature>


> <LogHL>
-4.065698540924245

> <Tr_1_Tst_0>


$$$$
101819
  Mrv171c012241914302D          

 14 15  0  0  0  0            999 V2000
    2.8749   -0.4125    0.0000 Cl  0  0  0  0  0  0  0  0  0  0  0  0
    3.5893   -0.8250    0.0000 C   0  0  0  0  0  0  0  0  0  0  0  0
    3.5893   -1.6500    0.0000 C   0  0  0  0  0  0  0  0  0  0  0  0
    4.3038   -2.0625    0.0000 C   0  0  0  0  0  0  0  0  0  0  0  0
    5.0183   -1.6500    0.0000 C   0  0  0  0  0  0  0  0  0  0  0  0
    5.0183   -0.8250    0.0000 C   0  0  0  0  0  0  0  0  0  0  0  0
    4.3038   -0.4125    0.0000 C   0  0  0  0  0  0  0  0  0  0  0  0
    4.3038    0.4125    0.0000 O   0  0  0  0  0  0  0  0  0  0  0  0
    3.5893    0.8250    0.0000 C   0  0  0  0  0  0  0  0  0  0  0  0
    3.5893    1.6500    0.0000 C   0  0  0  0  0  0  0  0  0  0  0  0
    2.8749    2.0625    0.0000 C   0  0  0  0  0  0  0  0  0  0  0  0
    2.1604    1.6500    0.0000 C   0  0  0  0  0  0  0  0  0  0  0  0
    2.1604    0.8250    0.0000 C   0  0  0  0  0  0  0  0  0  0  0  0
    2.8749    0.4125    0.0000 C   0  0  0  0  0  0  0  0  0  0  0  0
  1  2  1  0  0  0  0
  3  2  2  0  0  0  0
  4  3  1  0  0  0  0
  5  4  2  0  0  0  0
  6  5  1  0  0  0  0
  7  6  2  0  0  0  0
  2  7  1  0  0  0  0
  7  8  1  0  0  0  0
  8  9  1  0  0  0  0
 10  9  1  0  0  0  0
 11 10  2  0  0  0  0
 12 11  1  0  0  0  0
 13 12  2  0  0  0  0
 14 13  1  0  0  0  0
  9 14  2  0  0  0  0
M  END
> <ChemID>
101819

> <CAS>
2689-07-8

> <Original_SMILES>
Clc1ccccc1Oc1ccccc1

> <preferred_name>
2-Chlorodiphenyl ether

> <dsstox_substance_id>
DTXSID90181397

> <dsstox_compound_id>
DTXCID00103888

> <qc_level>


> <Canonical_QSARr>
ClC1=CC=CC=C1OC1C=CC=CC=1

> <InChI_Code_QSARr>
InChI=1S/C12H9ClO/c13-11-8-4-5-9-12(11)14-10-6-2-1-3-7-10/h1-9H

> <InChI Key_QSARr>
IPBRZLMGGXHHMS-UHFFFAOYSA-N

> <Salt_Solvent>


> <Salt_Solvent_ID>
0

> <MPID>
319598

> <HL Reference>


> <HL Temperature>


> <LogHL>
-3.495708601408694

> <Tr_1_Tst_0>


$$$$
101820
  Mrv171c012241914302D          

 14 15  0  0  0  0            999 V2000
    2.7558   -3.9482    0.0000 Cl  0  0  0  0  0  0  0  0  0  0  0  0
    2.0413   -3.5357    0.0000 C   0  0  0  0  0  0  0  0  0  0  0  0
    2.0413   -2.7107    0.0000 C   0  0  0  0  0  0  0  0  0  0  0  0
    1.3269   -2.2982    0.0000 C   0  0  0  0  0  0  0  0  0  0  0  0
    1.3269   -1.4732    0.0000 O   0  0  0  0  0  0  0  0  0  0  0  0
    0.6124   -1.0607    0.0000 C   0  0  0  0  0  0  0  0  0  0  0  0
    0.6124   -0.2357    0.0000 C   0  0  0  0  0  0  0  0  0  0  0  0
   -0.1021    0.1768    0.0000 C   0  0  0  0  0  0  0  0  0  0  0  0
   -0.8165   -0.2357    0.0000 C   0  0  0  0  0  0  0  0  0  0  0  0
   -0.8165   -1.0607    0.0000 C   0  0  0  0  0  0  0  0  0  0  0  0
   -0.1021   -1.4732    0.0000 C   0  0  0  0  0  0  0  0  0  0  0  0
    0.6124   -2.7107    0.0000 C   0  0  0  0  0  0  0  0  0  0  0  0
    0.6124   -3.5357    0.0000 C   0  0  0  0  0  0  0  0  0  0  0  0
    1.3269   -3.9482    0.0000 C   0  0  0  0  0  0  0  0  0  0  0  0
  1  2  1  0  0  0  0
  3  2  1  0  0  0  0
  4  3  2  0  0  0  0
  4  5  1  0  0  0  0
  5  6  1  0  0  0  0
  7  6  1  0  0  0  0
  8  7  2  0  0  0  0
  9  8  1  0  0  0  0
 10  9  2  0  0  0  0
 11 10  1  0  0  0  0
  6 11  2  0  0  0  0
 12  4  1  0  0  0  0
 13 12  2  0  0  0  0
 14 13  1  0  0  0  0
  2 14  2  0  0  0  0
M  END
> <ChemID>
101820

> <CAS>
6452-49-9

> <Original_SMILES>
Clc1cc(ccc1)Oc1ccccc1

> <preferred_name>
3-Chlorodiphenyl ether

> <dsstox_substance_id>
DTXSID1064370

> <dsstox_compound_id>
DTXCID3044338

> <qc_level>


> <Canonical_QSARr>
ClC1C=C(C=CC=1)OC1C=CC=CC=1

> <InChI_Code_QSARr>
InChI=1S/C12H9ClO/c13-10-5-4-8-12(9-10)14-11-6-2-1-3-7-11/h1-9H

> <InChI Key_QSARr>
BMURONZFJJPAOK-UHFFFAOYSA-N

> <Salt_Solvent>


> <Salt_Solvent_ID>
0

> <MPID>
319602

> <HL Reference>


> <HL Temperature>


> <LogHL>
-4.095625858887206

> <Tr_1_Tst_0>


$$$$
101821
  Mrv171c012241914302D          

 14 15  0  0  0  0            999 V2000
    2.7588   -0.1782    0.0000 C   0  0  0  0  0  0  0  0  0  0  0  0
    2.7588    0.6468    0.0000 C   0  0  0  0  0  0  0  0  0  0  0  0
    2.0444    1.0593    0.0000 C   0  0  0  0  0  0  0  0  0  0  0  0
    2.0444    1.8843    0.0000 Cl  0  0  0  0  0  0  0  0  0  0  0  0
    1.3299    0.6468    0.0000 C   0  0  0  0  0  0  0  0  0  0  0  0
    1.3299   -0.1782    0.0000 C   0  0  0  0  0  0  0  0  0  0  0  0
    2.0444   -0.5907    0.0000 C   0  0  0  0  0  0  0  0  0  0  0  0
    2.0444   -1.4157    0.0000 O   0  0  0  0  0  0  0  0  0  0  0  0
    2.7588   -1.8282    0.0000 C   0  0  0  0  0  0  0  0  0  0  0  0
    2.7588   -2.6532    0.0000 C   0  0  0  0  0  0  0  0  0  0  0  0
    3.4733   -3.0657    0.0000 C   0  0  0  0  0  0  0  0  0  0  0  0
    4.1878   -2.6532    0.0000 C   0  0  0  0  0  0  0  0  0  0  0  0
    4.1878   -1.8282    0.0000 C   0  0  0  0  0  0  0  0  0  0  0  0
    3.4733   -1.4157    0.0000 C   0  0  0  0  0  0  0  0  0  0  0  0
  2  1  2  0  0  0  0
  3  2  1  0  0  0  0
  3  4  1  0  0  0  0
  5  3  2  0  0  0  0
  6  5  1  0  0  0  0
  7  6  2  0  0  0  0
  1  7  1  0  0  0  0
  7  8  1  0  0  0  0
  8  9  1  0  0  0  0
 10  9  2  0  0  0  0
 11 10  1  0  0  0  0
 12 11  2  0  0  0  0
 13 12  1  0  0  0  0
 14 13  2  0  0  0  0
  9 14  1  0  0  0  0
M  END
> <ChemID>
101821

> <CAS>
7005-72-3

> <Original_SMILES>
Clc1ccc(cc1)Oc1ccccc1

> <preferred_name>
4-Chlorodiphenyl ether

> <dsstox_substance_id>
DTXSID2052447

> <dsstox_compound_id>
DTXCID4031019

> <qc_level>


> <Canonical_QSARr>
ClC1C=CC(=CC=1)OC1C=CC=CC=1

> <InChI_Code_QSARr>
InChI=1S/C12H9ClO/c13-10-6-8-12(9-7-10)14-11-4-2-1-3-5-11/h1-9H

> <InChI Key_QSARr>
PGPNJCAMHOJTEF-UHFFFAOYSA-N

> <Salt_Solvent>


> <Salt_Solvent_ID>
0

> <MPID>
319606

> <HL Reference>


> <HL Temperature>


> <LogHL>
-4.045721783371216

> <Tr_1_Tst_0>


$$$$
101822
  Mrv171c012241914302D          

 15 16  0  0  0  0            999 V2000
    1.4289    2.4750    0.0000 C   0  0  0  0  0  0  0  0  0  0  0  0
    2.1434    2.0625    0.0000 C   0  0  0  0  0  0  0  0  0  0  0  0
    2.8579    2.4750    0.0000 C   0  0  0  0  0  0  0  0  0  0  0  0
    2.8579    3.3000    0.0000 C   0  0  0  0  0  0  0  0  0  0  0  0
    2.1434    3.7125    0.0000 C   0  0  0  0  0  0  0  0  0  0  0  0
    2.1434    4.5375    0.0000 Cl  0  0  0  0  0  0  0  0  0  0  0  0
    1.4289    3.3000    0.0000 C   0  0  0  0  0  0  0  0  0  0  0  0
    0.7145    3.7125    0.0000 Cl  0  0  0  0  0  0  0  0  0  0  0  0
    0.7145    2.0625    0.0000 O   0  0  0  0  0  0  0  0  0  0  0  0
    0.7145    1.2375    0.0000 C   0  0  0  0  0  0  0  0  0  0  0  0
   -0.0000    0.8250    0.0000 C   0  0  0  0  0  0  0  0  0  0  0  0
   -0.0000    0.0000    0.0000 C   0  0  0  0  0  0  0  0  0  0  0  0
    0.7145   -0.4125    0.0000 C   0  0  0  0  0  0  0  0  0  0  0  0
    1.4289    0.0000    0.0000 C   0  0  0  0  0  0  0  0  0  0  0  0
    1.4289    0.8250    0.0000 C   0  0  0  0  0  0  0  0  0  0  0  0
  2  1  1  0  0  0  0
  3  2  2  0  0  0  0
  4  3  1  0  0  0  0
  5  4  2  0  0  0  0
  5  6  1  0  0  0  0
  7  5  1  0  0  0  0
  1  7  2  0  0  0  0
  7  8  1  0  0  0  0
  1  9  1  0  0  0  0
  9 10  1  0  0  0  0
 11 10  1  0  0  0  0
 12 11  2  0  0  0  0
 13 12  1  0  0  0  0
 14 13  2  0  0  0  0
 15 14  1  0  0  0  0
 10 15  2  0  0  0  0
M  END
> <ChemID>
101822

> <CAS>
28675-08-3

> <Original_SMILES>
Clc1cccc(Oc2ccccc2)c1Cl

> <preferred_name>
2,3-dichlorodiphenyl ether

> <dsstox_substance_id>
DTXSID3074026

> <dsstox_compound_id>
DTXCID2037847

> <qc_level>


> <Canonical_QSARr>
ClC1=CC=CC(OC2C=CC=CC=2)=C1Cl

> <InChI_Code_QSARr>
InChI=1S/C12H8Cl2O/c13-10-7-4-8-11(12(10)14)15-9-5-2-1-3-6-9/h1-8H

> <InChI Key_QSARr>
VSKSUBSGORDMQX-UHFFFAOYSA-N

> <Salt_Solvent>


> <Salt_Solvent_ID>
0

> <MPID>
319610

> <HL Reference>


> <HL Temperature>


> <LogHL>
-4.385580559783288

> <Tr_1_Tst_0>


$$$$
101823
  Mrv171c012241914302D          

 15 16  0  0  0  0            999 V2000
    4.3174    0.4400    0.0000 Cl  0  0  0  0  0  0  0  0  0  0  0  0
    3.6029    0.8525    0.0000 C   0  0  0  0  0  0  0  0  0  0  0  0
    3.6029    1.6775    0.0000 C   0  0  0  0  0  0  0  0  0  0  0  0
    2.8884    2.0900    0.0000 C   0  0  0  0  0  0  0  0  0  0  0  0
    2.8884    2.9150    0.0000 Cl  0  0  0  0  0  0  0  0  0  0  0  0
    2.1740    1.6775    0.0000 C   0  0  0  0  0  0  0  0  0  0  0  0
    2.1740    0.8525    0.0000 C   0  0  0  0  0  0  0  0  0  0  0  0
    2.8884    0.4400    0.0000 C   0  0  0  0  0  0  0  0  0  0  0  0
    2.8884   -0.3850    0.0000 O   0  0  0  0  0  0  0  0  0  0  0  0
    3.6029   -0.7975    0.0000 C   0  0  0  0  0  0  0  0  0  0  0  0
    3.6029   -1.6225    0.0000 C   0  0  0  0  0  0  0  0  0  0  0  0
    4.3174   -2.0350    0.0000 C   0  0  0  0  0  0  0  0  0  0  0  0
    5.0319   -1.6225    0.0000 C   0  0  0  0  0  0  0  0  0  0  0  0
    5.0319   -0.7975    0.0000 C   0  0  0  0  0  0  0  0  0  0  0  0
    4.3174   -0.3850    0.0000 C   0  0  0  0  0  0  0  0  0  0  0  0
  1  2  1  0  0  0  0
  3  2  1  0  0  0  0
  4  3  2  0  0  0  0
  4  5  1  0  0  0  0
  6  4  1  0  0  0  0
  7  6  2  0  0  0  0
  8  7  1  0  0  0  0
  2  8  2  0  0  0  0
  8  9  1  0  0  0  0
  9 10  1  0  0  0  0
 11 10  1  0  0  0  0
 12 11  2  0  0  0  0
 13 12  1  0  0  0  0
 14 13  2  0  0  0  0
 15 14  1  0  0  0  0
 10 15  2  0  0  0  0
M  END
> <ChemID>
101823

> <CAS>
51892-26-3

> <Original_SMILES>
Clc1cc(Cl)c(cc1)Oc1ccccc1

> <preferred_name>
2,4-Dichlorodiphenyl ether

> <dsstox_substance_id>
DTXSID00199847

> <dsstox_compound_id>
DTXCID60122338

> <qc_level>


> <Canonical_QSARr>
ClC1C=C(Cl)C=CC=1OC1C=CC=CC=1

> <InChI_Code_QSARr>
InChI=1S/C12H8Cl2O/c13-9-6-7-12(11(14)8-9)15-10-4-2-1-3-5-10/h1-8H

> <InChI Key_QSARr>
KXIPYLZZJZMMPD-UHFFFAOYSA-N

> <Salt_Solvent>


> <Salt_Solvent_ID>
0

> <MPID>
319614

> <HL Reference>


> <HL Temperature>


> <LogHL>
-4.285557070145874

> <Tr_1_Tst_0>


$$$$
101824
  Mrv171c012241914302D          

 15 16  0  0  0  0            999 V2000
    3.1743   -0.4125    0.0000 Cl  0  0  0  0  0  0  0  0  0  0  0  0
    3.8888   -0.8250    0.0000 C   0  0  0  0  0  0  0  0  0  0  0  0
    3.8888   -1.6500    0.0000 C   0  0  0  0  0  0  0  0  0  0  0  0
    4.6032   -2.0625    0.0000 C   0  0  0  0  0  0  0  0  0  0  0  0
    5.3177   -1.6500    0.0000 C   0  0  0  0  0  0  0  0  0  0  0  0
    5.3177   -0.8250    0.0000 C   0  0  0  0  0  0  0  0  0  0  0  0
    4.6032   -0.4125    0.0000 C   0  0  0  0  0  0  0  0  0  0  0  0
    4.6032    0.4125    0.0000 O   0  0  0  0  0  0  0  0  0  0  0  0
    3.8888    0.8250    0.0000 C   0  0  0  0  0  0  0  0  0  0  0  0
    3.8888    1.6500    0.0000 C   0  0  0  0  0  0  0  0  0  0  0  0
    3.1743    2.0625    0.0000 C   0  0  0  0  0  0  0  0  0  0  0  0
    2.4598    1.6500    0.0000 C   0  0  0  0  0  0  0  0  0  0  0  0
    1.7453    2.0625    0.0000 Cl  0  0  0  0  0  0  0  0  0  0  0  0
    2.4598    0.8250    0.0000 C   0  0  0  0  0  0  0  0  0  0  0  0
    3.1743    0.4125    0.0000 C   0  0  0  0  0  0  0  0  0  0  0  0
  1  2  1  0  0  0  0
  3  2  2  0  0  0  0
  4  3  1  0  0  0  0
  5  4  2  0  0  0  0
  6  5  1  0  0  0  0
  7  6  2  0  0  0  0
  2  7  1  0  0  0  0
  7  8  1  0  0  0  0
  8  9  1  0  0  0  0
 10  9  1  0  0  0  0
 11 10  2  0  0  0  0
 12 11  1  0  0  0  0
 12 13  1  0  0  0  0
 14 12  2  0  0  0  0
 15 14  1  0  0  0  0
  9 15  2  0  0  0  0
M  END
> <ChemID>
101824

> <CAS>
6903-65-7

> <Original_SMILES>
Clc1ccc(cc1)Oc1ccccc1Cl

> <preferred_name>
2,4'-Dichlorodiphenyl ether

> <dsstox_substance_id>
DTXSID00219099

> <dsstox_compound_id>
DTXCID70141590

> <qc_level>


> <Canonical_QSARr>
ClC1C=CC(=CC=1)OC1=CC=CC=C1Cl

> <InChI_Code_QSARr>
InChI=1S/C12H8Cl2O/c13-9-5-7-10(8-6-9)15-12-4-2-1-3-11(12)14/h1-8H

> <InChI Key_QSARr>
MWKULKMSBBSGTP-UHFFFAOYSA-N

> <Salt_Solvent>


> <Salt_Solvent_ID>
0

> <MPID>
319618

> <HL Reference>


> <HL Temperature>


> <LogHL>
-3.5157585451472038

> <Tr_1_Tst_0>


$$$$
101825
  Mrv171c012241914302D          

 15 16  0  0  0  0            999 V2000
    4.3174   -0.7425    0.0000 Cl  0  0  0  0  0  0  0  0  0  0  0  0
    4.3174    0.0825    0.0000 C   0  0  0  0  0  0  0  0  0  0  0  0
    5.0319    0.4950    0.0000 C   0  0  0  0  0  0  0  0  0  0  0  0
    5.0319    1.3200    0.0000 C   0  0  0  0  0  0  0  0  0  0  0  0
    4.3174    1.7325    0.0000 C   0  0  0  0  0  0  0  0  0  0  0  0
    4.3174    2.5575    0.0000 Cl  0  0  0  0  0  0  0  0  0  0  0  0
    3.6030    1.3200    0.0000 C   0  0  0  0  0  0  0  0  0  0  0  0
    3.6030    0.4950    0.0000 C   0  0  0  0  0  0  0  0  0  0  0  0
    2.8885    0.0825    0.0000 O   0  0  0  0  0  0  0  0  0  0  0  0
    2.8885   -0.7425    0.0000 C   0  0  0  0  0  0  0  0  0  0  0  0
    2.1740   -1.1550    0.0000 C   0  0  0  0  0  0  0  0  0  0  0  0
    2.1740   -1.9800    0.0000 C   0  0  0  0  0  0  0  0  0  0  0  0
    2.8885   -2.3925    0.0000 C   0  0  0  0  0  0  0  0  0  0  0  0
    3.6030   -1.9800    0.0000 C   0  0  0  0  0  0  0  0  0  0  0  0
    3.6030   -1.1550    0.0000 C   0  0  0  0  0  0  0  0  0  0  0  0
  1  2  1  0  0  0  0
  3  2  1  0  0  0  0
  4  3  2  0  0  0  0
  5  4  1  0  0  0  0
  5  6  1  0  0  0  0
  7  5  2  0  0  0  0
  8  7  1  0  0  0  0
  2  8  2  0  0  0  0
  8  9  1  0  0  0  0
  9 10  1  0  0  0  0
 11 10  1  0  0  0  0
 12 11  2  0  0  0  0
 13 12  1  0  0  0  0
 14 13  2  0  0  0  0
 15 14  1  0  0  0  0
 10 15  2  0  0  0  0
M  END
> <ChemID>
101825

> <CAS>
24910-69-8

> <Original_SMILES>
Clc1cc(Oc2ccccc2)c(Cl)cc1

> <preferred_name>
2,5-Dichlorodiphenyl ether

> <dsstox_substance_id>
DTXSID80179622

> <dsstox_compound_id>
DTXCID40102113

> <qc_level>


> <Canonical_QSARr>
ClC1C=CC(Cl)=CC=1OC1C=CC=CC=1

> <InChI_Code_QSARr>
InChI=1S/C12H8Cl2O/c13-9-6-7-11(14)12(8-9)15-10-4-2-1-3-5-10/h1-8H

> <InChI Key_QSARr>
VITXVDNQHXYQSK-UHFFFAOYSA-N

> <Salt_Solvent>


> <Salt_Solvent_ID>
0

> <MPID>
319622

> <HL Reference>


> <HL Temperature>


> <LogHL>
-3.905689621508388

> <Tr_1_Tst_0>


$$$$
101826
  Mrv171c012241914302D          

 15 16  0  0  0  0            999 V2000
    3.5553   -0.9625    0.0000 Cl  0  0  0  0  0  0  0  0  0  0  0  0
    4.2698   -0.5500    0.0000 C   0  0  0  0  0  0  0  0  0  0  0  0
    4.9843   -0.9625    0.0000 C   0  0  0  0  0  0  0  0  0  0  0  0
    5.6987   -0.5500    0.0000 C   0  0  0  0  0  0  0  0  0  0  0  0
    5.6987    0.2750    0.0000 C   0  0  0  0  0  0  0  0  0  0  0  0
    4.9843    0.6875    0.0000 C   0  0  0  0  0  0  0  0  0  0  0  0
    4.9843    1.5125    0.0000 Cl  0  0  0  0  0  0  0  0  0  0  0  0
    4.2698    0.2750    0.0000 C   0  0  0  0  0  0  0  0  0  0  0  0
    3.5553    0.6875    0.0000 O   0  0  0  0  0  0  0  0  0  0  0  0
    2.8409    0.2750    0.0000 C   0  0  0  0  0  0  0  0  0  0  0  0
    2.1264    0.6875    0.0000 C   0  0  0  0  0  0  0  0  0  0  0  0
    1.4119    0.2750    0.0000 C   0  0  0  0  0  0  0  0  0  0  0  0
    1.4119   -0.5500    0.0000 C   0  0  0  0  0  0  0  0  0  0  0  0
    2.1264   -0.9625    0.0000 C   0  0  0  0  0  0  0  0  0  0  0  0
    2.8409   -0.5500    0.0000 C   0  0  0  0  0  0  0  0  0  0  0  0
  1  2  1  0  0  0  0
  3  2  1  0  0  0  0
  4  3  2  0  0  0  0
  5  4  1  0  0  0  0
  6  5  2  0  0  0  0
  6  7  1  0  0  0  0
  8  6  1  0  0  0  0
  2  8  2  0  0  0  0
  8  9  1  0  0  0  0
  9 10  1  0  0  0  0
 11 10  1  0  0  0  0
 12 11  2  0  0  0  0
 13 12  1  0  0  0  0
 14 13  2  0  0  0  0
 15 14  1  0  0  0  0
 10 15  2  0  0  0  0
M  END
> <ChemID>
101826

> <CAS>
28419-69-4

> <Original_SMILES>
Clc1cccc(Cl)c1Oc1ccccc1

> <preferred_name>
2,6-Dichlorodiphenyl ether

> <dsstox_substance_id>
DTXSID20182630

> <dsstox_compound_id>
DTXCID60105121

> <qc_level>


> <Canonical_QSARr>
ClC1C=CC=C(Cl)C=1OC1C=CC=CC=1

> <InChI_Code_QSARr>
InChI=1S/C12H8Cl2O/c13-10-7-4-8-11(14)12(10)15-9-5-2-1-3-6-9/h1-8H

> <InChI Key_QSARr>
IRLZOQDGEAEIPX-UHFFFAOYSA-N

> <Salt_Solvent>


> <Salt_Solvent_ID>
0

> <MPID>
319626

> <HL Reference>


> <HL Temperature>


> <LogHL>
-3.705774135256849

> <Tr_1_Tst_0>


$$$$
101827
  Mrv171c012241914302D          

 15 16  0  0  0  0            999 V2000
    4.3174    1.8700    0.0000 Cl  0  0  0  0  0  0  0  0  0  0  0  0
    3.6029    1.4575    0.0000 C   0  0  0  0  0  0  0  0  0  0  0  0
    2.8884    1.8700    0.0000 C   0  0  0  0  0  0  0  0  0  0  0  0
    2.8884    2.6950    0.0000 Cl  0  0  0  0  0  0  0  0  0  0  0  0
    2.1740    1.4575    0.0000 C   0  0  0  0  0  0  0  0  0  0  0  0
    2.1740    0.6325    0.0000 C   0  0  0  0  0  0  0  0  0  0  0  0
    2.8884    0.2200    0.0000 C   0  0  0  0  0  0  0  0  0  0  0  0
    2.8884   -0.6050    0.0000 O   0  0  0  0  0  0  0  0  0  0  0  0
    3.6029   -1.0175    0.0000 C   0  0  0  0  0  0  0  0  0  0  0  0
    3.6029   -1.8425    0.0000 C   0  0  0  0  0  0  0  0  0  0  0  0
    4.3174   -2.2550    0.0000 C   0  0  0  0  0  0  0  0  0  0  0  0
    5.0319   -1.8425    0.0000 C   0  0  0  0  0  0  0  0  0  0  0  0
    5.0319   -1.0175    0.0000 C   0  0  0  0  0  0  0  0  0  0  0  0
    4.3174   -0.6050    0.0000 C   0  0  0  0  0  0  0  0  0  0  0  0
    3.6029    0.6325    0.0000 C   0  0  0  0  0  0  0  0  0  0  0  0
  1  2  1  0  0  0  0
  3  2  2  0  0  0  0
  3  4  1  0  0  0  0
  5  3  1  0  0  0  0
  6  5  2  0  0  0  0
  7  6  1  0  0  0  0
  7  8  1  0  0  0  0
  8  9  1  0  0  0  0
 10  9  1  0  0  0  0
 11 10  2  0  0  0  0
 12 11  1  0  0  0  0
 13 12  2  0  0  0  0
 14 13  1  0  0  0  0
  9 14  2  0  0  0  0
 15  7  2  0  0  0  0
  2 15  1  0  0  0  0
M  END
> <ChemID>
101827

> <CAS>
55538-69-7

> <Original_SMILES>
Clc1ccc(cc1Cl)Oc1ccccc1

> <preferred_name>
3,4-Dichlorodiphenyl ether

> <dsstox_substance_id>
DTXSID20204104

> <dsstox_compound_id>
DTXCID80126595

> <qc_level>


> <Canonical_QSARr>
ClC1C=CC(=CC=1Cl)OC1C=CC=CC=1

> <InChI_Code_QSARr>
InChI=1S/C12H8Cl2O/c13-11-7-6-10(8-12(11)14)15-9-4-2-1-3-5-9/h1-8H

> <InChI Key_QSARr>
QFQLZVAAQOJUFS-UHFFFAOYSA-N

> <Salt_Solvent>


> <Salt_Solvent_ID>
0

> <MPID>
319630

> <HL Reference>


> <HL Temperature>


> <LogHL>
-4.045721783371216

> <Tr_1_Tst_0>


$$$$
101828
  Mrv171c012241914302D          

 15 16  0  0  0  0            999 V2000
    2.2387   -6.0775    0.0000 Cl  0  0  0  0  0  0  0  0  0  0  0  0
    2.2387   -5.2525    0.0000 C   0  0  0  0  0  0  0  0  0  0  0  0
    2.9531   -4.8400    0.0000 C   0  0  0  0  0  0  0  0  0  0  0  0
    2.9531   -4.0150    0.0000 C   0  0  0  0  0  0  0  0  0  0  0  0
    2.2387   -3.6025    0.0000 C   0  0  0  0  0  0  0  0  0  0  0  0
    2.2387   -2.7775    0.0000 O   0  0  0  0  0  0  0  0  0  0  0  0
    1.5242   -2.3650    0.0000 C   0  0  0  0  0  0  0  0  0  0  0  0
    1.5242   -1.5400    0.0000 C   0  0  0  0  0  0  0  0  0  0  0  0
    0.8097   -1.1275    0.0000 C   0  0  0  0  0  0  0  0  0  0  0  0
    0.0953   -1.5400    0.0000 C   0  0  0  0  0  0  0  0  0  0  0  0
    0.0953   -2.3650    0.0000 C   0  0  0  0  0  0  0  0  0  0  0  0
   -0.6192   -2.7775    0.0000 Cl  0  0  0  0  0  0  0  0  0  0  0  0
    0.8097   -2.7775    0.0000 C   0  0  0  0  0  0  0  0  0  0  0  0
    1.5242   -4.0150    0.0000 C   0  0  0  0  0  0  0  0  0  0  0  0
    1.5242   -4.8400    0.0000 C   0  0  0  0  0  0  0  0  0  0  0  0
  1  2  1  0  0  0  0
  3  2  1  0  0  0  0
  4  3  2  0  0  0  0
  5  4  1  0  0  0  0
  5  6  1  0  0  0  0
  6  7  1  0  0  0  0
  8  7  1  0  0  0  0
  9  8  2  0  0  0  0
 10  9  1  0  0  0  0
 11 10  2  0  0  0  0
 11 12  1  0  0  0  0
 13 11  1  0  0  0  0
  7 13  2  0  0  0  0
 14  5  2  0  0  0  0
 15 14  1  0  0  0  0
  2 15  2  0  0  0  0
M  END
> <ChemID>
101828

> <CAS>
NOCAS_871935

> <Original_SMILES>
Clc1ccc(cc1)Oc1cc(Cl)ccc1

> <preferred_name>
3,4'-dichlorodiphenyl ether

> <dsstox_substance_id>
DTXSID60871935

> <dsstox_compound_id>
DTXCID70819545

> <qc_level>


> <Canonical_QSARr>
ClC1C=C(C=CC=1)OC1C=CC(Cl)=CC=1

> <InChI_Code_QSARr>
InChI=1S/C12H8Cl2O/c13-9-4-6-11(7-5-9)15-12-3-1-2-10(14)8-12/h1-8H

> <InChI Key_QSARr>
HPRGYUWRGCTBAV-UHFFFAOYSA-N

> <Salt_Solvent>


> <Salt_Solvent_ID>
0

> <MPID>
319634

> <HL Reference>


> <HL Temperature>


> <LogHL>
-4.105896150872672

> <Tr_1_Tst_0>


$$$$
101829
  Mrv171c012241914302D          

 15 16  0  0  0  0            999 V2000
    5.6511   -0.0825    0.0000 Cl  0  0  0  0  0  0  0  0  0  0  0  0
    4.9366    0.3300    0.0000 C   0  0  0  0  0  0  0  0  0  0  0  0
    4.9366    1.1550    0.0000 C   0  0  0  0  0  0  0  0  0  0  0  0
    4.2222    1.5675    0.0000 C   0  0  0  0  0  0  0  0  0  0  0  0
    4.2222    2.3925    0.0000 Cl  0  0  0  0  0  0  0  0  0  0  0  0
    3.5077    1.1550    0.0000 C   0  0  0  0  0  0  0  0  0  0  0  0
    3.5077    0.3300    0.0000 C   0  0  0  0  0  0  0  0  0  0  0  0
    2.7932   -0.0825    0.0000 O   0  0  0  0  0  0  0  0  0  0  0  0
    2.7932   -0.9075    0.0000 C   0  0  0  0  0  0  0  0  0  0  0  0
    2.0787   -1.3200    0.0000 C   0  0  0  0  0  0  0  0  0  0  0  0
    2.0787   -2.1450    0.0000 C   0  0  0  0  0  0  0  0  0  0  0  0
    2.7932   -2.5575    0.0000 C   0  0  0  0  0  0  0  0  0  0  0  0
    3.5077   -2.1450    0.0000 C   0  0  0  0  0  0  0  0  0  0  0  0
    3.5077   -1.3200    0.0000 C   0  0  0  0  0  0  0  0  0  0  0  0
    4.2222   -0.0825    0.0000 C   0  0  0  0  0  0  0  0  0  0  0  0
  1  2  1  0  0  0  0
  3  2  1  0  0  0  0
  4  3  2  0  0  0  0
  4  5  1  0  0  0  0
  6  4  1  0  0  0  0
  7  6  2  0  0  0  0
  7  8  1  0  0  0  0
  8  9  1  0  0  0  0
 10  9  1  0  0  0  0
 11 10  2  0  0  0  0
 12 11  1  0  0  0  0
 13 12  2  0  0  0  0
 14 13  1  0  0  0  0
  9 14  2  0  0  0  0
 15  7  1  0  0  0  0
  2 15  2  0  0  0  0
M  END
> <ChemID>
101829

> <CAS>
24910-68-7

> <Original_SMILES>
Clc1cc(cc(Cl)c1)Oc1ccccc1

> <preferred_name>
3,5-Dichlorodiphenyl ether

> <dsstox_substance_id>
DTXSID20179621

> <dsstox_compound_id>
DTXCID80102112

> <qc_level>


> <Canonical_QSARr>
ClC1=CC(=CC(Cl)=C1)OC1C=CC=CC=1

> <InChI_Code_QSARr>
InChI=1S/C12H8Cl2O/c13-9-6-10(14)8-12(7-9)15-11-4-2-1-3-5-11/h1-8H

> <InChI Key_QSARr>
LEKOWSSKXYFERR-UHFFFAOYSA-N

> <Salt_Solvent>


> <Salt_Solvent_ID>
0

> <MPID>
319638

> <HL Reference>


> <HL Temperature>


> <LogHL>
-3.815666370811928

> <Tr_1_Tst_0>


$$$$
101830
  Mrv171c012241914302D          

 15 16  0  0  0  0            999 V2000
    3.8887   -2.4750    0.0000 Cl  0  0  0  0  0  0  0  0  0  0  0  0
    3.8887   -1.6500    0.0000 C   0  0  0  0  0  0  0  0  0  0  0  0
    4.6032   -1.2375    0.0000 C   0  0  0  0  0  0  0  0  0  0  0  0
    4.6032   -0.4125    0.0000 C   0  0  0  0  0  0  0  0  0  0  0  0
    3.8887    0.0000    0.0000 C   0  0  0  0  0  0  0  0  0  0  0  0
    3.8887    0.8250    0.0000 O   0  0  0  0  0  0  0  0  0  0  0  0
    3.1742    1.2375    0.0000 C   0  0  0  0  0  0  0  0  0  0  0  0
    3.1742    2.0625    0.0000 C   0  0  0  0  0  0  0  0  0  0  0  0
    2.4597    2.4750    0.0000 C   0  0  0  0  0  0  0  0  0  0  0  0
    1.7453    2.0625    0.0000 C   0  0  0  0  0  0  0  0  0  0  0  0
    1.0308    2.4750    0.0000 Cl  0  0  0  0  0  0  0  0  0  0  0  0
    1.7453    1.2375    0.0000 C   0  0  0  0  0  0  0  0  0  0  0  0
    2.4597    0.8250    0.0000 C   0  0  0  0  0  0  0  0  0  0  0  0
    3.1742   -0.4125    0.0000 C   0  0  0  0  0  0  0  0  0  0  0  0
    3.1742   -1.2375    0.0000 C   0  0  0  0  0  0  0  0  0  0  0  0
  1  2  1  0  0  0  0
  3  2  1  0  0  0  0
  4  3  2  0  0  0  0
  5  4  1  0  0  0  0
  5  6  1  0  0  0  0
  6  7  1  0  0  0  0
  8  7  1  0  0  0  0
  9  8  2  0  0  0  0
 10  9  1  0  0  0  0
 10 11  1  0  0  0  0
 12 10  2  0  0  0  0
 13 12  1  0  0  0  0
  7 13  2  0  0  0  0
 14  5  2  0  0  0  0
 15 14  1  0  0  0  0
  2 15  2  0  0  0  0
M  END
> <ChemID>
101830

> <CAS>
2444-89-5

> <Original_SMILES>
Clc1ccc(cc1)Oc1ccc(Cl)cc1

> <preferred_name>
4,4'-Dichlorodiphenyl ether

> <dsstox_substance_id>
DTXSID90179198

> <dsstox_compound_id>
DTXCID20101689

> <qc_level>


> <Canonical_QSARr>
ClC1C=CC(=CC=1)OC1C=CC(Cl)=CC=1

> <InChI_Code_QSARr>
InChI=1S/C12H8Cl2O/c13-9-1-5-11(6-2-9)15-12-7-3-10(14)4-8-12/h1-8H

> <InChI Key_QSARr>
URUJZHZLCCIILC-UHFFFAOYSA-N

> <Salt_Solvent>


> <Salt_Solvent_ID>
0

> <MPID>
319642

> <HL Reference>


> <HL Temperature>


> <LogHL>
-4.3354708428577835

> <Tr_1_Tst_0>


$$$$
101831
  Mrv171c012241914302D          

 16 17  0  0  0  0            999 V2000
    1.6500    0.4125    0.0000 Cl  0  0  0  0  0  0  0  0  0  0  0  0
    2.3645    0.8250    0.0000 C   0  0  0  0  0  0  0  0  0  0  0  0
    2.3645    1.6500    0.0000 C   0  0  0  0  0  0  0  0  0  0  0  0
    3.0790    2.0625    0.0000 C   0  0  0  0  0  0  0  0  0  0  0  0
    3.0790    2.8875    0.0000 Cl  0  0  0  0  0  0  0  0  0  0  0  0
    3.7934    1.6500    0.0000 C   0  0  0  0  0  0  0  0  0  0  0  0
    3.7934    0.8250    0.0000 C   0  0  0  0  0  0  0  0  0  0  0  0
    3.0790    0.4125    0.0000 C   0  0  0  0  0  0  0  0  0  0  0  0
    3.0790   -0.4125    0.0000 O   0  0  0  0  0  0  0  0  0  0  0  0
    3.7934   -0.8250    0.0000 C   0  0  0  0  0  0  0  0  0  0  0  0
    3.7934   -1.6500    0.0000 C   0  0  0  0  0  0  0  0  0  0  0  0
    4.5079   -2.0625    0.0000 C   0  0  0  0  0  0  0  0  0  0  0  0
    5.2224   -1.6500    0.0000 C   0  0  0  0  0  0  0  0  0  0  0  0
    5.2224   -0.8250    0.0000 C   0  0  0  0  0  0  0  0  0  0  0  0
    4.5079   -0.4125    0.0000 C   0  0  0  0  0  0  0  0  0  0  0  0
    4.5079    0.4125    0.0000 Cl  0  0  0  0  0  0  0  0  0  0  0  0
  1  2  1  0  0  0  0
  3  2  1  0  0  0  0
  4  3  2  0  0  0  0
  4  5  1  0  0  0  0
  6  4  1  0  0  0  0
  7  6  2  0  0  0  0
  8  7  1  0  0  0  0
  2  8  2  0  0  0  0
  8  9  1  0  0  0  0
  9 10  1  0  0  0  0
 11 10  2  0  0  0  0
 12 11  1  0  0  0  0
 13 12  2  0  0  0  0
 14 13  1  0  0  0  0
 15 14  2  0  0  0  0
 10 15  1  0  0  0  0
 15 16  1  0  0  0  0
M  END
> <ChemID>
101831

> <CAS>
68914-97-6

> <Original_SMILES>
Clc1cc(Cl)c(cc1)Oc1ccccc1Cl

> <preferred_name>
2,2',4-Trichlorodiphenyl ether

> <dsstox_substance_id>
DTXSID20218988

> <dsstox_compound_id>
DTXCID70141479

> <qc_level>


> <Canonical_QSARr>
ClC1C=C(Cl)C=CC=1OC1=CC=CC=C1Cl

> <InChI_Code_QSARr>
InChI=1S/C12H7Cl3O/c13-8-5-6-12(10(15)7-8)16-11-4-2-1-3-9(11)14/h1-7H

> <InChI Key_QSARr>
YXMNUPKWUMIZAV-UHFFFAOYSA-N

> <Salt_Solvent>


> <Salt_Solvent_ID>
0

> <MPID>
319646

> <HL Reference>


> <HL Temperature>


> <LogHL>
-4.65546822425083

> <Tr_1_Tst_0>


$$$$
101832
  Mrv171c012241914302D          

 16 17  0  0  0  0            999 V2000
    3.7041    0.7734    0.0000 Cl  0  0  0  0  0  0  0  0  0  0  0  0
    2.9897    0.3609    0.0000 C   0  0  0  0  0  0  0  0  0  0  0  0
    2.2752    0.7734    0.0000 C   0  0  0  0  0  0  0  0  0  0  0  0
    2.2752    1.5984    0.0000 Cl  0  0  0  0  0  0  0  0  0  0  0  0
    1.5607    0.3609    0.0000 C   0  0  0  0  0  0  0  0  0  0  0  0
    0.8462    0.7734    0.0000 Cl  0  0  0  0  0  0  0  0  0  0  0  0
    1.5607   -0.4641    0.0000 C   0  0  0  0  0  0  0  0  0  0  0  0
    2.2752   -0.8766    0.0000 C   0  0  0  0  0  0  0  0  0  0  0  0
    2.9897   -0.4641    0.0000 C   0  0  0  0  0  0  0  0  0  0  0  0
    3.7041   -0.8766    0.0000 O   0  0  0  0  0  0  0  0  0  0  0  0
    4.4186   -0.4641    0.0000 C   0  0  0  0  0  0  0  0  0  0  0  0
    5.1331   -0.8766    0.0000 C   0  0  0  0  0  0  0  0  0  0  0  0
    5.8475   -0.4641    0.0000 C   0  0  0  0  0  0  0  0  0  0  0  0
    5.8475    0.3609    0.0000 C   0  0  0  0  0  0  0  0  0  0  0  0
    5.1331    0.7734    0.0000 C   0  0  0  0  0  0  0  0  0  0  0  0
    4.4186    0.3609    0.0000 C   0  0  0  0  0  0  0  0  0  0  0  0
  1  2  1  0  0  0  0
  3  2  1  0  0  0  0
  3  4  1  0  0  0  0
  5  3  2  0  0  0  0
  5  6  1  0  0  0  0
  7  5  1  0  0  0  0
  8  7  2  0  0  0  0
  9  8  1  0  0  0  0
  2  9  2  0  0  0  0
  9 10  1  0  0  0  0
 10 11  1  0  0  0  0
 12 11  1  0  0  0  0
 13 12  2  0  0  0  0
 14 13  1  0  0  0  0
 15 14  2  0  0  0  0
 16 15  1  0  0  0  0
 11 16  2  0  0  0  0
M  END
> <ChemID>
101832

> <CAS>
85918-32-7

> <Original_SMILES>
Clc1ccc(Oc2ccccc2)c(Cl)c1Cl

> <preferred_name>
2,3,4-Trichlorodiphenyl ether

> <dsstox_substance_id>
DTXSID50235244

> <dsstox_compound_id>
DTXCID50157735

> <qc_level>


> <Canonical_QSARr>
ClC1C(Cl)=C(C=CC=1Cl)OC1C=CC=CC=1

> <InChI_Code_QSARr>
InChI=1S/C12H7Cl3O/c13-9-6-7-10(12(15)11(9)14)16-8-4-2-1-3-5-8/h1-7H

> <InChI Key_QSARr>
ANKBTLMYMVMWBS-UHFFFAOYSA-N

> <Salt_Solvent>


> <Salt_Solvent_ID>
0

> <MPID>
319650

> <HL Reference>


> <HL Temperature>


> <LogHL>
-4.445810164146276

> <Tr_1_Tst_0>


$$$$
101833
  Mrv171c012241914302D          

 16 17  0  0  0  0            999 V2000
    2.2327   -1.0828    0.0000 C   0  0  0  0  0  0  0  0  0  0  0  0
    2.2327   -0.2578    0.0000 C   0  0  0  0  0  0  0  0  0  0  0  0
    1.5182    0.1547    0.0000 C   0  0  0  0  0  0  0  0  0  0  0  0
    1.5182    0.9797    0.0000 O   0  0  0  0  0  0  0  0  0  0  0  0
    2.2327    1.3922    0.0000 C   0  0  0  0  0  0  0  0  0  0  0  0
    2.9471    0.9797    0.0000 C   0  0  0  0  0  0  0  0  0  0  0  0
    3.6616    1.3922    0.0000 C   0  0  0  0  0  0  0  0  0  0  0  0
    3.6616    2.2172    0.0000 C   0  0  0  0  0  0  0  0  0  0  0  0
    4.3761    2.6297    0.0000 Cl  0  0  0  0  0  0  0  0  0  0  0  0
    2.9471    2.6297    0.0000 C   0  0  0  0  0  0  0  0  0  0  0  0
    2.2327    2.2172    0.0000 C   0  0  0  0  0  0  0  0  0  0  0  0
    0.8037   -0.2578    0.0000 C   0  0  0  0  0  0  0  0  0  0  0  0
    0.0893    0.1547    0.0000 Cl  0  0  0  0  0  0  0  0  0  0  0  0
    0.8037   -1.0828    0.0000 C   0  0  0  0  0  0  0  0  0  0  0  0
    0.0893   -1.4953    0.0000 Cl  0  0  0  0  0  0  0  0  0  0  0  0
    1.5182   -1.4953    0.0000 C   0  0  0  0  0  0  0  0  0  0  0  0
  2  1  1  0  0  0  0
  3  2  2  0  0  0  0
  3  4  1  0  0  0  0
  4  5  1  0  0  0  0
  6  5  1  0  0  0  0
  7  6  2  0  0  0  0
  8  7  1  0  0  0  0
  8  9  1  0  0  0  0
 10  8  2  0  0  0  0
 11 10  1  0  0  0  0
  5 11  2  0  0  0  0
 12  3  1  0  0  0  0
 12 13  1  0  0  0  0
 14 12  2  0  0  0  0
 14 15  1  0  0  0  0
 16 14  1  0  0  0  0
  1 16  2  0  0  0  0
M  END
> <ChemID>
101833

> <CAS>
157683-71-1

> <Original_SMILES>
Clc1ccc(cc1)Oc1cccc(Cl)c1Cl

> <preferred_name>
2,3,4'-Trichlorodiphenyl ether

> <dsstox_substance_id>
DTXSID50877047

> <dsstox_compound_id>
DTXCID401015131

> <qc_level>


> <Canonical_QSARr>
ClC1C=CC(=CC=1)OC1=CC=CC(Cl)=C1Cl

> <InChI_Code_QSARr>
InChI=1S/C12H7Cl3O/c13-8-4-6-9(7-5-8)16-11-3-1-2-10(14)12(11)15/h1-7H

> <InChI Key_QSARr>
KOTNFWJIMRGVBR-UHFFFAOYSA-N

> <Salt_Solvent>


> <Salt_Solvent_ID>
0

> <MPID>
319654

> <HL Reference>


> <HL Temperature>


> <LogHL>
-4.515758545147204

> <Tr_1_Tst_0>


$$$$
101834
  Mrv171c012241914302D          

 16 17  0  0  0  0            999 V2000
    3.7935    0.5157    0.0000 Cl  0  0  0  0  0  0  0  0  0  0  0  0
    3.0790    0.1032    0.0000 C   0  0  0  0  0  0  0  0  0  0  0  0
    2.3645    0.5157    0.0000 C   0  0  0  0  0  0  0  0  0  0  0  0
    2.3645    1.3407    0.0000 Cl  0  0  0  0  0  0  0  0  0  0  0  0
    1.6501    0.1032    0.0000 C   0  0  0  0  0  0  0  0  0  0  0  0
    1.6501   -0.7218    0.0000 C   0  0  0  0  0  0  0  0  0  0  0  0
    0.9356   -1.1343    0.0000 Cl  0  0  0  0  0  0  0  0  0  0  0  0
    2.3645   -1.1343    0.0000 C   0  0  0  0  0  0  0  0  0  0  0  0
    3.0790   -0.7218    0.0000 C   0  0  0  0  0  0  0  0  0  0  0  0
    3.7935   -1.1343    0.0000 O   0  0  0  0  0  0  0  0  0  0  0  0
    4.5079   -0.7218    0.0000 C   0  0  0  0  0  0  0  0  0  0  0  0
    5.2224   -1.1343    0.0000 C   0  0  0  0  0  0  0  0  0  0  0  0
    5.9369   -0.7218    0.0000 C   0  0  0  0  0  0  0  0  0  0  0  0
    5.9369    0.1032    0.0000 C   0  0  0  0  0  0  0  0  0  0  0  0
    5.2224    0.5157    0.0000 C   0  0  0  0  0  0  0  0  0  0  0  0
    4.5079    0.1032    0.0000 C   0  0  0  0  0  0  0  0  0  0  0  0
  1  2  1  0  0  0  0
  3  2  1  0  0  0  0
  3  4  1  0  0  0  0
  5  3  2  0  0  0  0
  6  5  1  0  0  0  0
  6  7  1  0  0  0  0
  8  6  2  0  0  0  0
  9  8  1  0  0  0  0
  2  9  2  0  0  0  0
  9 10  1  0  0  0  0
 10 11  1  0  0  0  0
 12 11  1  0  0  0  0
 13 12  2  0  0  0  0
 14 13  1  0  0  0  0
 15 14  2  0  0  0  0
 16 15  1  0  0  0  0
 11 16  2  0  0  0  0
M  END
> <ChemID>
101834

> <CAS>
162853-24-9

> <Original_SMILES>
Clc1cc(Oc2ccccc2)c(Cl)c(Cl)c1

> <preferred_name>
2,3,5-Trichlorodiphenyl ether

> <dsstox_substance_id>
DTXSID30167478

> <dsstox_compound_id>
DTXCID2089969

> <qc_level>


> <Canonical_QSARr>
ClC1=C(C=C(Cl)C=C1Cl)OC1C=CC=CC=1

> <InChI_Code_QSARr>
InChI=1S/C12H7Cl3O/c13-8-6-10(14)12(15)11(7-8)16-9-4-2-1-3-5-9/h1-7H

> <InChI Key_QSARr>
MDSPKCWGOVVFJD-UHFFFAOYSA-N

> <Salt_Solvent>


> <Salt_Solvent_ID>
0

> <MPID>
319658

> <HL Reference>


> <HL Temperature>


> <LogHL>
-4.3458003477223865

> <Tr_1_Tst_0>


$$$$
101835
  Mrv171c012241914302D          

 16 17  0  0  0  0            999 V2000
    3.6616    1.9078    0.0000 C   0  0  0  0  0  0  0  0  0  0  0  0
    4.3761    2.3203    0.0000 C   0  0  0  0  0  0  0  0  0  0  0  0
    4.3761    3.1453    0.0000 C   0  0  0  0  0  0  0  0  0  0  0  0
    3.6616    3.5578    0.0000 C   0  0  0  0  0  0  0  0  0  0  0  0
    3.6616    4.3828    0.0000 O   0  0  0  0  0  0  0  0  0  0  0  0
    2.9472    4.7953    0.0000 C   0  0  0  0  0  0  0  0  0  0  0  0
    2.9472    5.6203    0.0000 C   0  0  0  0  0  0  0  0  0  0  0  0
    3.6616    6.0328    0.0000 Cl  0  0  0  0  0  0  0  0  0  0  0  0
    2.2327    6.0328    0.0000 C   0  0  0  0  0  0  0  0  0  0  0  0
    2.2327    6.8578    0.0000 Cl  0  0  0  0  0  0  0  0  0  0  0  0
    1.5182    5.6203    0.0000 C   0  0  0  0  0  0  0  0  0  0  0  0
    1.5182    4.7953    0.0000 C   0  0  0  0  0  0  0  0  0  0  0  0
    2.2327    4.3828    0.0000 C   0  0  0  0  0  0  0  0  0  0  0  0
    2.2327    3.5578    0.0000 Cl  0  0  0  0  0  0  0  0  0  0  0  0
    2.9472    3.1453    0.0000 C   0  0  0  0  0  0  0  0  0  0  0  0
    2.9472    2.3203    0.0000 C   0  0  0  0  0  0  0  0  0  0  0  0
  2  1  1  0  0  0  0
  3  2  2  0  0  0  0
  4  3  1  0  0  0  0
  4  5  1  0  0  0  0
  5  6  1  0  0  0  0
  7  6  1  0  0  0  0
  7  8  1  0  0  0  0
  9  7  2  0  0  0  0
  9 10  1  0  0  0  0
 11  9  1  0  0  0  0
 12 11  2  0  0  0  0
 13 12  1  0  0  0  0
  6 13  2  0  0  0  0
 13 14  1  0  0  0  0
 15  4  2  0  0  0  0
 16 15  1  0  0  0  0
  1 16  2  0  0  0  0
M  END
> <ChemID>
101835

> <CAS>
162853-25-0

> <Original_SMILES>
Clc1c(Oc2ccccc2)c(Cl)ccc1Cl

> <preferred_name>
2,3,6-Trichlorodiphenyl ether

> <dsstox_substance_id>
DTXSID70877049

> <dsstox_compound_id>
DTXCID801015133

> <qc_level>


> <Canonical_QSARr>
ClC1C=CC(Cl)=C(OC2C=CC=CC=2)C=1Cl

> <InChI_Code_QSARr>
InChI=1S/C12H7Cl3O/c13-9-6-7-10(14)12(11(9)15)16-8-4-2-1-3-5-8/h1-7H

> <InChI Key_QSARr>
RQSRPDGSUDRYLH-UHFFFAOYSA-N

> <Salt_Solvent>


> <Salt_Solvent_ID>
0

> <MPID>
319662

> <HL Reference>


> <HL Temperature>


> <LogHL>
-3.4757726948063445

> <Tr_1_Tst_0>


$$$$
101836
  Mrv171c012241914302D          

 16 17  0  0  0  0            999 V2000
    4.3294    0.5156    0.0000 Cl  0  0  0  0  0  0  0  0  0  0  0  0
    3.6149    0.9281    0.0000 C   0  0  0  0  0  0  0  0  0  0  0  0
    3.6149    1.7531    0.0000 C   0  0  0  0  0  0  0  0  0  0  0  0
    2.9004    2.1656    0.0000 C   0  0  0  0  0  0  0  0  0  0  0  0
    2.9004    2.9906    0.0000 Cl  0  0  0  0  0  0  0  0  0  0  0  0
    2.1859    1.7531    0.0000 C   0  0  0  0  0  0  0  0  0  0  0  0
    2.1859    0.9281    0.0000 C   0  0  0  0  0  0  0  0  0  0  0  0
    2.9004    0.5156    0.0000 C   0  0  0  0  0  0  0  0  0  0  0  0
    2.9004   -0.3094    0.0000 O   0  0  0  0  0  0  0  0  0  0  0  0
    3.6149   -0.7219    0.0000 C   0  0  0  0  0  0  0  0  0  0  0  0
    3.6149   -1.5469    0.0000 C   0  0  0  0  0  0  0  0  0  0  0  0
    4.3294   -1.9594    0.0000 C   0  0  0  0  0  0  0  0  0  0  0  0
    5.0438   -1.5469    0.0000 C   0  0  0  0  0  0  0  0  0  0  0  0
    5.0438   -0.7219    0.0000 C   0  0  0  0  0  0  0  0  0  0  0  0
    5.7583   -0.3094    0.0000 Cl  0  0  0  0  0  0  0  0  0  0  0  0
    4.3294   -0.3094    0.0000 C   0  0  0  0  0  0  0  0  0  0  0  0
  1  2  1  0  0  0  0
  3  2  1  0  0  0  0
  4  3  2  0  0  0  0
  4  5  1  0  0  0  0
  6  4  1  0  0  0  0
  7  6  2  0  0  0  0
  8  7  1  0  0  0  0
  2  8  2  0  0  0  0
  8  9  1  0  0  0  0
  9 10  1  0  0  0  0
 11 10  1  0  0  0  0
 12 11  2  0  0  0  0
 13 12  1  0  0  0  0
 14 13  2  0  0  0  0
 14 15  1  0  0  0  0
 16 14  1  0  0  0  0
 10 16  2  0  0  0  0
M  END
> <ChemID>
101836

> <CAS>
155999-93-2

> <Original_SMILES>
Clc1cc(Cl)c(cc1)Oc1cc(Cl)ccc1

> <preferred_name>
2,3',4-Trichlorodiphenyl ether

> <dsstox_substance_id>
DTXSID60166015

> <dsstox_compound_id>
DTXCID9088506

> <qc_level>


> <Canonical_QSARr>
ClC1=CC(Cl)=C(C=C1)OC1=CC(Cl)=CC=C1

> <InChI_Code_QSARr>
InChI=1S/C12H7Cl3O/c13-8-2-1-3-10(6-8)16-12-5-4-9(14)7-11(12)15/h1-7H

> <InChI Key_QSARr>
BJFOCMRBCBZFJT-UHFFFAOYSA-N

> <Salt_Solvent>


> <Salt_Solvent_ID>
0

> <MPID>
319666

> <HL Reference>


> <HL Temperature>


> <LogHL>
-4.185515338866614

> <Tr_1_Tst_0>


$$$$
101837
  Mrv171c012241914302D          

 16 17  0  0  0  0            999 V2000
    3.5724   -1.1344    0.0000 Cl  0  0  0  0  0  0  0  0  0  0  0  0
    2.8579   -1.5469    0.0000 C   0  0  0  0  0  0  0  0  0  0  0  0
    2.1434   -1.1344    0.0000 C   0  0  0  0  0  0  0  0  0  0  0  0
    2.1434   -0.3094    0.0000 O   0  0  0  0  0  0  0  0  0  0  0  0
    1.4289    0.1031    0.0000 C   0  0  0  0  0  0  0  0  0  0  0  0
    1.4289    0.9281    0.0000 C   0  0  0  0  0  0  0  0  0  0  0  0
    0.7145    1.3406    0.0000 C   0  0  0  0  0  0  0  0  0  0  0  0
    0.0000    0.9281    0.0000 C   0  0  0  0  0  0  0  0  0  0  0  0
   -0.7145    1.3406    0.0000 Cl  0  0  0  0  0  0  0  0  0  0  0  0
    0.0000    0.1031    0.0000 C   0  0  0  0  0  0  0  0  0  0  0  0
    0.7145   -0.3094    0.0000 C   0  0  0  0  0  0  0  0  0  0  0  0
    1.4289   -1.5469    0.0000 C   0  0  0  0  0  0  0  0  0  0  0  0
    1.4289   -2.3719    0.0000 C   0  0  0  0  0  0  0  0  0  0  0  0
    2.1434   -2.7844    0.0000 C   0  0  0  0  0  0  0  0  0  0  0  0
    2.1434   -3.6094    0.0000 Cl  0  0  0  0  0  0  0  0  0  0  0  0
    2.8579   -2.3719    0.0000 C   0  0  0  0  0  0  0  0  0  0  0  0
  1  2  1  0  0  0  0
  3  2  1  0  0  0  0
  3  4  1  0  0  0  0
  4  5  1  0  0  0  0
  6  5  1  0  0  0  0
  7  6  2  0  0  0  0
  8  7  1  0  0  0  0
  8  9  1  0  0  0  0
 10  8  2  0  0  0  0
 11 10  1  0  0  0  0
  5 11  2  0  0  0  0
 12  3  2  0  0  0  0
 13 12  1  0  0  0  0
 14 13  2  0  0  0  0
 14 15  1  0  0  0  0
 16 14  1  0  0  0  0
  2 16  2  0  0  0  0
M  END
> <ChemID>
101837

> <CAS>
59039-21-3

> <Original_SMILES>
Clc1cc(Cl)ccc1Oc1ccc(Cl)cc1

> <preferred_name>
2,4,4'-trichlorodiphenyl ether

> <dsstox_substance_id>
DTXSID00872042

> <dsstox_compound_id>
DTXCID10819645

> <qc_level>


> <Canonical_QSARr>
ClC1C=C(Cl)C(=CC=1)OC1C=CC(Cl)=CC=1

> <InChI_Code_QSARr>
InChI=1S/C12H7Cl3O/c13-8-1-4-10(5-2-8)16-12-6-3-9(14)7-11(12)15/h1-7H

> <InChI Key_QSARr>
PIORTDHJOLELKR-UHFFFAOYSA-N

> <Salt_Solvent>


> <Salt_Solvent_ID>
0

> <MPID>
319670

> <HL Reference>


> <HL Temperature>


> <LogHL>
-3.4757726948063445

> <Tr_1_Tst_0>


$$$$
101838
  Mrv171c012241914302D          

 16 17  0  0  0  0            999 V2000
    2.8579   -0.6187    0.0000 C   0  0  0  0  0  0  0  0  0  0  0  0
    3.5723   -1.0312    0.0000 O   0  0  0  0  0  0  0  0  0  0  0  0
    3.5723   -1.8562    0.0000 C   0  0  0  0  0  0  0  0  0  0  0  0
    2.8579   -2.2687    0.0000 C   0  0  0  0  0  0  0  0  0  0  0  0
    2.8579   -3.0937    0.0000 C   0  0  0  0  0  0  0  0  0  0  0  0
    3.5723   -3.5062    0.0000 C   0  0  0  0  0  0  0  0  0  0  0  0
    4.2868   -3.0937    0.0000 C   0  0  0  0  0  0  0  0  0  0  0  0
    4.2868   -2.2687    0.0000 C   0  0  0  0  0  0  0  0  0  0  0  0
    2.8579    0.2063    0.0000 C   0  0  0  0  0  0  0  0  0  0  0  0
    2.1434    0.6188    0.0000 C   0  0  0  0  0  0  0  0  0  0  0  0
    2.1434    1.4438    0.0000 Cl  0  0  0  0  0  0  0  0  0  0  0  0
    1.4289    0.2063    0.0000 C   0  0  0  0  0  0  0  0  0  0  0  0
    0.7145    0.6188    0.0000 Cl  0  0  0  0  0  0  0  0  0  0  0  0
    1.4289   -0.6187    0.0000 C   0  0  0  0  0  0  0  0  0  0  0  0
    2.1434   -1.0312    0.0000 C   0  0  0  0  0  0  0  0  0  0  0  0
    2.1434   -1.8562    0.0000 Cl  0  0  0  0  0  0  0  0  0  0  0  0
  1  2  1  0  0  0  0
  2  3  1  0  0  0  0
  4  3  1  0  0  0  0
  5  4  2  0  0  0  0
  6  5  1  0  0  0  0
  7  6  2  0  0  0  0
  8  7  1  0  0  0  0
  3  8  2  0  0  0  0
  9  1  1  0  0  0  0
 10  9  2  0  0  0  0
 10 11  1  0  0  0  0
 12 10  1  0  0  0  0
 12 13  1  0  0  0  0
 14 12  2  0  0  0  0
 15 14  1  0  0  0  0
  1 15  2  0  0  0  0
 15 16  1  0  0  0  0
M  END
> <ChemID>
101838

> <CAS>
52322-80-2

> <Original_SMILES>
Clc1cc(Oc2ccccc2)c(Cl)cc1Cl

> <preferred_name>
2,4,5-trichlorodiphenyl ether

> <dsstox_substance_id>
DTXSID5074052

> <dsstox_compound_id>
DTXCID3041168

> <qc_level>


> <Canonical_QSARr>
ClC1C=C(Cl)C(Cl)=CC=1OC1C=CC=CC=1

> <InChI_Code_QSARr>
InChI=1S/C12H7Cl3O/c13-9-6-11(15)12(7-10(9)14)16-8-4-2-1-3-5-8/h1-7H

> <InChI Key_QSARr>
UWKZWXCTDPYXHU-UHFFFAOYSA-N

> <Salt_Solvent>


> <Salt_Solvent_ID>
0

> <MPID>
319674

> <HL Reference>


> <HL Temperature>


> <LogHL>
-2.9557229339346165

> <Tr_1_Tst_0>


$$$$
101839
  Mrv171c012241914302D          

 16 17  0  0  0  0            999 V2000
    2.1434    2.0625    0.0000 C   0  0  0  0  0  0  0  0  0  0  0  0
    2.8579    2.4750    0.0000 C   0  0  0  0  0  0  0  0  0  0  0  0
    2.8579    3.3000    0.0000 C   0  0  0  0  0  0  0  0  0  0  0  0
    2.1434    3.7125    0.0000 C   0  0  0  0  0  0  0  0  0  0  0  0
    2.1434    4.5375    0.0000 O   0  0  0  0  0  0  0  0  0  0  0  0
    1.4289    4.9500    0.0000 C   0  0  0  0  0  0  0  0  0  0  0  0
    1.4289    5.7750    0.0000 C   0  0  0  0  0  0  0  0  0  0  0  0
    2.1434    6.1875    0.0000 Cl  0  0  0  0  0  0  0  0  0  0  0  0
    0.7145    6.1875    0.0000 C   0  0  0  0  0  0  0  0  0  0  0  0
    0.0000    5.7750    0.0000 C   0  0  0  0  0  0  0  0  0  0  0  0
   -0.7145    6.1875    0.0000 Cl  0  0  0  0  0  0  0  0  0  0  0  0
    0.0000    4.9500    0.0000 C   0  0  0  0  0  0  0  0  0  0  0  0
    0.7145    4.5375    0.0000 C   0  0  0  0  0  0  0  0  0  0  0  0
    0.7145    3.7125    0.0000 Cl  0  0  0  0  0  0  0  0  0  0  0  0
    1.4289    3.3000    0.0000 C   0  0  0  0  0  0  0  0  0  0  0  0
    1.4289    2.4750    0.0000 C   0  0  0  0  0  0  0  0  0  0  0  0
  2  1  1  0  0  0  0
  3  2  2  0  0  0  0
  4  3  1  0  0  0  0
  4  5  1  0  0  0  0
  5  6  1  0  0  0  0
  7  6  1  0  0  0  0
  7  8  1  0  0  0  0
  9  7  2  0  0  0  0
 10  9  1  0  0  0  0
 10 11  1  0  0  0  0
 12 10  2  0  0  0  0
 13 12  1  0  0  0  0
  6 13  2  0  0  0  0
 13 14  1  0  0  0  0
 15  4  2  0  0  0  0
 16 15  1  0  0  0  0
  1 16  2  0  0  0  0
M  END
> <ChemID>
101839

> <CAS>
NOCAS_877048

> <Original_SMILES>
Clc1cc(Cl)c(Oc2ccccc2)c(Cl)c1

> <preferred_name>
2,4,6-Trichlorodiphenyl ether

> <dsstox_substance_id>
DTXSID10877048

> <dsstox_compound_id>
DTXCID101015132

> <qc_level>


> <Canonical_QSARr>
ClC1C=C(Cl)C=C(Cl)C=1OC1C=CC=CC=1

> <InChI_Code_QSARr>
InChI=1S/C12H7Cl3O/c13-8-6-10(14)12(11(15)7-8)16-9-4-2-1-3-5-9/h1-7H

> <InChI Key_QSARr>
WXLQUFLKMICSSY-UHFFFAOYSA-N

> <Salt_Solvent>


> <Salt_Solvent_ID>
0

> <MPID>
319678

> <HL Reference>


> <HL Temperature>


> <LogHL>
-3.155744687968316

> <Tr_1_Tst_0>


$$$$
101840
  Mrv171c012241914302D          

 16 17  0  0  0  0            999 V2000
    2.8578    3.3000    0.0000 C   0  0  0  0  0  0  0  0  0  0  0  0
    2.1434    3.7125    0.0000 C   0  0  0  0  0  0  0  0  0  0  0  0
    2.1434    4.5375    0.0000 Cl  0  0  0  0  0  0  0  0  0  0  0  0
    1.4289    3.3000    0.0000 C   0  0  0  0  0  0  0  0  0  0  0  0
    1.4289    2.4750    0.0000 C   0  0  0  0  0  0  0  0  0  0  0  0
    2.1434    2.0625    0.0000 C   0  0  0  0  0  0  0  0  0  0  0  0
    2.1434    1.2375    0.0000 O   0  0  0  0  0  0  0  0  0  0  0  0
    2.8578    0.8250    0.0000 C   0  0  0  0  0  0  0  0  0  0  0  0
    2.8578   -0.0000    0.0000 C   0  0  0  0  0  0  0  0  0  0  0  0
    2.1434   -0.4125    0.0000 Cl  0  0  0  0  0  0  0  0  0  0  0  0
    3.5723   -0.4125    0.0000 C   0  0  0  0  0  0  0  0  0  0  0  0
    4.2868   -0.0000    0.0000 C   0  0  0  0  0  0  0  0  0  0  0  0
    4.2868    0.8250    0.0000 C   0  0  0  0  0  0  0  0  0  0  0  0
    5.0013    1.2375    0.0000 Cl  0  0  0  0  0  0  0  0  0  0  0  0
    3.5723    1.2375    0.0000 C   0  0  0  0  0  0  0  0  0  0  0  0
    2.8578    2.4750    0.0000 C   0  0  0  0  0  0  0  0  0  0  0  0
  2  1  2  0  0  0  0
  2  3  1  0  0  0  0
  4  2  1  0  0  0  0
  5  4  2  0  0  0  0
  6  5  1  0  0  0  0
  6  7  1  0  0  0  0
  7  8  1  0  0  0  0
  9  8  2  0  0  0  0
  9 10  1  0  0  0  0
 11  9  1  0  0  0  0
 12 11  2  0  0  0  0
 13 12  1  0  0  0  0
 13 14  1  0  0  0  0
 15 13  2  0  0  0  0
  8 15  1  0  0  0  0
 16  6  2  0  0  0  0
  1 16  1  0  0  0  0
M  END
> <ChemID>
101840

> <CAS>
65075-00-5

> <Original_SMILES>
Clc1ccc(Cl)cc1Oc1ccc(Cl)cc1

> <preferred_name>
2,4',5-Trichlorodiphenyl ether

> <dsstox_substance_id>
DTXSID90877046

> <dsstox_compound_id>
DTXCID701015130

> <qc_level>


> <Canonical_QSARr>
ClC1=CC(OC2C=CC(Cl)=CC=2)=C(Cl)C=C1

> <InChI_Code_QSARr>
InChI=1S/C12H7Cl3O/c13-8-1-4-10(5-2-8)16-12-7-9(14)3-6-11(12)15/h1-7H

> <InChI Key_QSARr>
FZBSTAVCYOMFMD-UHFFFAOYSA-N

> <Salt_Solvent>


> <Salt_Solvent_ID>
0

> <MPID>
319682

> <HL Reference>


> <HL Temperature>


> <LogHL>
-4.205686961173761

> <Tr_1_Tst_0>


$$$$
101841
  Mrv171c012241914302D          

 16 17  0  0  0  0            999 V2000
    3.8828   -0.7734    0.0000 Cl  0  0  0  0  0  0  0  0  0  0  0  0
    4.5973   -0.3609    0.0000 C   0  0  0  0  0  0  0  0  0  0  0  0
    5.3118   -0.7734    0.0000 C   0  0  0  0  0  0  0  0  0  0  0  0
    6.0262   -0.3609    0.0000 C   0  0  0  0  0  0  0  0  0  0  0  0
    6.0262    0.4641    0.0000 C   0  0  0  0  0  0  0  0  0  0  0  0
    5.3118    0.8766    0.0000 C   0  0  0  0  0  0  0  0  0  0  0  0
    5.3118    1.7016    0.0000 Cl  0  0  0  0  0  0  0  0  0  0  0  0
    4.5973    0.4641    0.0000 C   0  0  0  0  0  0  0  0  0  0  0  0
    3.8828    0.8766    0.0000 O   0  0  0  0  0  0  0  0  0  0  0  0
    3.1683    0.4641    0.0000 C   0  0  0  0  0  0  0  0  0  0  0  0
    2.4539    0.8766    0.0000 C   0  0  0  0  0  0  0  0  0  0  0  0
    1.7394    0.4641    0.0000 C   0  0  0  0  0  0  0  0  0  0  0  0
    1.7394   -0.3609    0.0000 C   0  0  0  0  0  0  0  0  0  0  0  0
    1.0249   -0.7734    0.0000 Cl  0  0  0  0  0  0  0  0  0  0  0  0
    2.4539   -0.7734    0.0000 C   0  0  0  0  0  0  0  0  0  0  0  0
    3.1683   -0.3609    0.0000 C   0  0  0  0  0  0  0  0  0  0  0  0
  1  2  1  0  0  0  0
  3  2  1  0  0  0  0
  4  3  2  0  0  0  0
  5  4  1  0  0  0  0
  6  5  2  0  0  0  0
  6  7  1  0  0  0  0
  8  6  1  0  0  0  0
  2  8  2  0  0  0  0
  8  9  1  0  0  0  0
  9 10  1  0  0  0  0
 11 10  1  0  0  0  0
 12 11  2  0  0  0  0
 13 12  1  0  0  0  0
 13 14  1  0  0  0  0
 15 13  2  0  0  0  0
 16 15  1  0  0  0  0
 10 16  2  0  0  0  0
M  END
> <ChemID>
101841

> <CAS>
157683-72-2

> <Original_SMILES>
Clc1ccc(cc1)Oc1c(Cl)cccc1Cl

> <preferred_name>
2,4',6-Trichlorodiphenyl ether

> <dsstox_substance_id>
DTXSID90166301

> <dsstox_compound_id>
DTXCID1088792

> <qc_level>


> <Canonical_QSARr>
ClC1C=CC=C(Cl)C=1OC1C=CC(Cl)=CC=1

> <InChI_Code_QSARr>
InChI=1S/C12H7Cl3O/c13-8-4-6-9(7-5-8)16-12-10(14)2-1-3-11(12)15/h1-7H

> <InChI Key_QSARr>
ZMRFCSWFCKICQE-UHFFFAOYSA-N

> <Salt_Solvent>


> <Salt_Solvent_ID>
0

> <MPID>
319686

> <HL Reference>


> <HL Temperature>


> <LogHL>
-3.6256861657639132

> <Tr_1_Tst_0>


$$$$
101842
  Mrv171c012241914302D          

 16 17  0  0  0  0            999 V2000
    3.1683   -0.4641    0.0000 Cl  0  0  0  0  0  0  0  0  0  0  0  0
    3.8827   -0.8766    0.0000 C   0  0  0  0  0  0  0  0  0  0  0  0
    3.8827   -1.7016    0.0000 C   0  0  0  0  0  0  0  0  0  0  0  0
    4.5972   -2.1141    0.0000 C   0  0  0  0  0  0  0  0  0  0  0  0
    5.3117   -1.7016    0.0000 C   0  0  0  0  0  0  0  0  0  0  0  0
    5.3117   -0.8766    0.0000 C   0  0  0  0  0  0  0  0  0  0  0  0
    4.5972   -0.4641    0.0000 C   0  0  0  0  0  0  0  0  0  0  0  0
    4.5972    0.3609    0.0000 O   0  0  0  0  0  0  0  0  0  0  0  0
    3.8827    0.7734    0.0000 C   0  0  0  0  0  0  0  0  0  0  0  0
    3.8827    1.5984    0.0000 C   0  0  0  0  0  0  0  0  0  0  0  0
    3.1683    2.0109    0.0000 C   0  0  0  0  0  0  0  0  0  0  0  0
    2.4538    1.5984    0.0000 C   0  0  0  0  0  0  0  0  0  0  0  0
    1.7393    2.0109    0.0000 Cl  0  0  0  0  0  0  0  0  0  0  0  0
    2.4538    0.7734    0.0000 C   0  0  0  0  0  0  0  0  0  0  0  0
    1.7393    0.3609    0.0000 Cl  0  0  0  0  0  0  0  0  0  0  0  0
    3.1683    0.3609    0.0000 C   0  0  0  0  0  0  0  0  0  0  0  0
  1  2  1  0  0  0  0
  3  2  2  0  0  0  0
  4  3  1  0  0  0  0
  5  4  2  0  0  0  0
  6  5  1  0  0  0  0
  7  6  2  0  0  0  0
  2  7  1  0  0  0  0
  7  8  1  0  0  0  0
  8  9  1  0  0  0  0
 10  9  1  0  0  0  0
 11 10  2  0  0  0  0
 12 11  1  0  0  0  0
 12 13  1  0  0  0  0
 14 12  2  0  0  0  0
 14 15  1  0  0  0  0
 16 14  1  0  0  0  0
  9 16  2  0  0  0  0
M  END
> <ChemID>
101842

> <CAS>
61328-44-7

> <Original_SMILES>
Clc1cc(ccc1Cl)Oc1ccccc1Cl

> <preferred_name>
2,3',4'-Trichlorodiphenyl ether

> <dsstox_substance_id>
DTXSID80210241

> <dsstox_compound_id>
DTXCID80132732

> <qc_level>


> <Canonical_QSARr>
ClC1C=C(C=CC=1Cl)OC1=CC=CC=C1Cl

> <InChI_Code_QSARr>
InChI=1S/C12H7Cl3O/c13-9-6-5-8(7-11(9)15)16-12-4-2-1-3-10(12)14/h1-7H

> <InChI Key_QSARr>
VBNJGYOQZAENPO-UHFFFAOYSA-N

> <Salt_Solvent>


> <Salt_Solvent_ID>
0

> <MPID>
319690

> <HL Reference>


> <HL Temperature>


> <LogHL>
-4.535895138935962

> <Tr_1_Tst_0>


$$$$
101843
  Mrv171c012241914302D          

 16 17  0  0  0  0            999 V2000
    4.3294    1.9594    0.0000 Cl  0  0  0  0  0  0  0  0  0  0  0  0
    3.6149    1.5469    0.0000 C   0  0  0  0  0  0  0  0  0  0  0  0
    2.9004    1.9594    0.0000 C   0  0  0  0  0  0  0  0  0  0  0  0
    2.9004    2.7844    0.0000 Cl  0  0  0  0  0  0  0  0  0  0  0  0
    2.1859    1.5469    0.0000 C   0  0  0  0  0  0  0  0  0  0  0  0
    2.1859    0.7219    0.0000 C   0  0  0  0  0  0  0  0  0  0  0  0
    2.9004    0.3094    0.0000 C   0  0  0  0  0  0  0  0  0  0  0  0
    2.9004   -0.5156    0.0000 O   0  0  0  0  0  0  0  0  0  0  0  0
    3.6149   -0.9281    0.0000 C   0  0  0  0  0  0  0  0  0  0  0  0
    3.6149   -1.7531    0.0000 C   0  0  0  0  0  0  0  0  0  0  0  0
    4.3294   -2.1656    0.0000 C   0  0  0  0  0  0  0  0  0  0  0  0
    5.0438   -1.7531    0.0000 C   0  0  0  0  0  0  0  0  0  0  0  0
    5.0438   -0.9281    0.0000 C   0  0  0  0  0  0  0  0  0  0  0  0
    5.7583   -0.5156    0.0000 Cl  0  0  0  0  0  0  0  0  0  0  0  0
    4.3294   -0.5156    0.0000 C   0  0  0  0  0  0  0  0  0  0  0  0
    3.6149    0.7219    0.0000 C   0  0  0  0  0  0  0  0  0  0  0  0
  1  2  1  0  0  0  0
  3  2  2  0  0  0  0
  3  4  1  0  0  0  0
  5  3  1  0  0  0  0
  6  5  2  0  0  0  0
  7  6  1  0  0  0  0
  7  8  1  0  0  0  0
  8  9  1  0  0  0  0
 10  9  1  0  0  0  0
 11 10  2  0  0  0  0
 12 11  1  0  0  0  0
 13 12  2  0  0  0  0
 13 14  1  0  0  0  0
 15 13  1  0  0  0  0
  9 15  2  0  0  0  0
 16  7  2  0  0  0  0
  2 16  1  0  0  0  0
M  END
> <ChemID>
101843

> <CAS>
66794-60-3

> <Original_SMILES>
Clc1cc(ccc1)Oc1cc(Cl)c(Cl)cc1

> <preferred_name>
3,3',4-Trichlorodiphenyl ether

> <dsstox_substance_id>
DTXSID30216915

> <dsstox_compound_id>
DTXCID60139406

> <qc_level>


> <Canonical_QSARr>
ClC1C=C(C=CC=1Cl)OC1=CC(Cl)=CC=C1

> <InChI_Code_QSARr>
InChI=1S/C12H7Cl3O/c13-8-2-1-3-9(6-8)16-10-4-5-11(14)12(15)7-10/h1-7H

> <InChI Key_QSARr>
BUKLLCIUMZELOH-UHFFFAOYSA-N

> <Salt_Solvent>


> <Salt_Solvent_ID>
0

> <MPID>
319694

> <HL Reference>


> <HL Temperature>


> <LogHL>
-4.355408794165678

> <Tr_1_Tst_0>


$$$$
101844
  Mrv171c012241914302D          

 16 17  0  0  0  0            999 V2000
    4.3294    2.1656    0.0000 Cl  0  0  0  0  0  0  0  0  0  0  0  0
    3.6149    1.7531    0.0000 C   0  0  0  0  0  0  0  0  0  0  0  0
    2.9004    2.1656    0.0000 C   0  0  0  0  0  0  0  0  0  0  0  0
    2.9004    2.9906    0.0000 Cl  0  0  0  0  0  0  0  0  0  0  0  0
    2.1859    1.7531    0.0000 C   0  0  0  0  0  0  0  0  0  0  0  0
    2.1859    0.9281    0.0000 C   0  0  0  0  0  0  0  0  0  0  0  0
    2.9004    0.5156    0.0000 C   0  0  0  0  0  0  0  0  0  0  0  0
    2.9004   -0.3094    0.0000 O   0  0  0  0  0  0  0  0  0  0  0  0
    3.6149   -0.7219    0.0000 C   0  0  0  0  0  0  0  0  0  0  0  0
    3.6149   -1.5469    0.0000 C   0  0  0  0  0  0  0  0  0  0  0  0
    4.3294   -1.9594    0.0000 C   0  0  0  0  0  0  0  0  0  0  0  0
    5.0438   -1.5469    0.0000 C   0  0  0  0  0  0  0  0  0  0  0  0
    5.7583   -1.9594    0.0000 Cl  0  0  0  0  0  0  0  0  0  0  0  0
    5.0438   -0.7219    0.0000 C   0  0  0  0  0  0  0  0  0  0  0  0
    4.3294   -0.3094    0.0000 C   0  0  0  0  0  0  0  0  0  0  0  0
    3.6149    0.9281    0.0000 C   0  0  0  0  0  0  0  0  0  0  0  0
  1  2  1  0  0  0  0
  3  2  2  0  0  0  0
  3  4  1  0  0  0  0
  5  3  1  0  0  0  0
  6  5  2  0  0  0  0
  7  6  1  0  0  0  0
  7  8  1  0  0  0  0
  8  9  1  0  0  0  0
 10  9  1  0  0  0  0
 11 10  2  0  0  0  0
 12 11  1  0  0  0  0
 12 13  1  0  0  0  0
 14 12  2  0  0  0  0
 15 14  1  0  0  0  0
  9 15  2  0  0  0  0
 16  7  2  0  0  0  0
  2 16  1  0  0  0  0
M  END
> <ChemID>
101844

> <CAS>
63646-51-5

> <Original_SMILES>
Clc1ccc(cc1)Oc1cc(Cl)c(Cl)cc1

> <preferred_name>
3,4,4'-Trichlorodiphenyl ether

> <dsstox_substance_id>
DTXSID20213019

> <dsstox_compound_id>
DTXCID70135510

> <qc_level>


> <Canonical_QSARr>
ClC1C=CC(=CC=1)OC1=CC(Cl)=C(Cl)C=C1

> <InChI_Code_QSARr>
InChI=1S/C12H7Cl3O/c13-8-1-3-9(4-2-8)16-10-5-6-11(14)12(15)7-10/h1-7H

> <InChI Key_QSARr>
FTZDEZOARSJHGU-UHFFFAOYSA-N

> <Salt_Solvent>


> <Salt_Solvent_ID>
0

> <MPID>
319698

> <HL Reference>


> <HL Temperature>


> <LogHL>
-4.205686961173761

> <Tr_1_Tst_0>


$$$$
101845
  Mrv171c012241914302D          

 16 17  0  0  0  0            999 V2000
    4.5079    1.6500    0.0000 Cl  0  0  0  0  0  0  0  0  0  0  0  0
    3.7934    1.2375    0.0000 C   0  0  0  0  0  0  0  0  0  0  0  0
    3.0790    1.6500    0.0000 C   0  0  0  0  0  0  0  0  0  0  0  0
    3.0790    2.4750    0.0000 Cl  0  0  0  0  0  0  0  0  0  0  0  0
    2.3645    1.2375    0.0000 C   0  0  0  0  0  0  0  0  0  0  0  0
    1.6500    1.6500    0.0000 Cl  0  0  0  0  0  0  0  0  0  0  0  0
    2.3645    0.4125    0.0000 C   0  0  0  0  0  0  0  0  0  0  0  0
    3.0790    0.0000    0.0000 C   0  0  0  0  0  0  0  0  0  0  0  0
    3.0790   -0.8250    0.0000 O   0  0  0  0  0  0  0  0  0  0  0  0
    3.7934   -1.2375    0.0000 C   0  0  0  0  0  0  0  0  0  0  0  0
    3.7934   -2.0625    0.0000 C   0  0  0  0  0  0  0  0  0  0  0  0
    4.5079   -2.4750    0.0000 C   0  0  0  0  0  0  0  0  0  0  0  0
    5.2224   -2.0625    0.0000 C   0  0  0  0  0  0  0  0  0  0  0  0
    5.2224   -1.2375    0.0000 C   0  0  0  0  0  0  0  0  0  0  0  0
    4.5079   -0.8250    0.0000 C   0  0  0  0  0  0  0  0  0  0  0  0
    3.7934    0.4125    0.0000 C   0  0  0  0  0  0  0  0  0  0  0  0
  1  2  1  0  0  0  0
  3  2  1  0  0  0  0
  3  4  1  0  0  0  0
  5  3  2  0  0  0  0
  5  6  1  0  0  0  0
  7  5  1  0  0  0  0
  8  7  2  0  0  0  0
  8  9  1  0  0  0  0
  9 10  1  0  0  0  0
 11 10  1  0  0  0  0
 12 11  2  0  0  0  0
 13 12  1  0  0  0  0
 14 13  2  0  0  0  0
 15 14  1  0  0  0  0
 10 15  2  0  0  0  0
 16  8  1  0  0  0  0
  2 16  2  0  0  0  0
M  END
> <ChemID>
101845

> <CAS>
63646-53-7

> <Original_SMILES>
Clc1c(Cl)cc(cc1Cl)Oc1ccccc1

> <preferred_name>
3,4,5-Trichlorodiphenyl ether

> <dsstox_substance_id>
DTXSID30213020

> <dsstox_compound_id>
DTXCID30135511

> <qc_level>


> <Canonical_QSARr>
ClC1C=C(C=C(Cl)C=1Cl)OC1C=CC=CC=1

> <InChI_Code_QSARr>
InChI=1S/C12H7Cl3O/c13-10-6-9(7-11(14)12(10)15)16-8-4-2-1-3-5-8/h1-7H

> <InChI Key_QSARr>
ZQCCHNBMSHOJAT-UHFFFAOYSA-N

> <Salt_Solvent>


> <Salt_Solvent_ID>
0

> <MPID>
319702

> <HL Reference>


> <HL Temperature>


> <LogHL>
-2.965708522981823

> <Tr_1_Tst_0>


$$$$
101846
  Mrv171c012241914302D          

 16 17  0  0  0  0            999 V2000
    5.8476    0.2578    0.0000 Cl  0  0  0  0  0  0  0  0  0  0  0  0
    5.1331    0.6703    0.0000 C   0  0  0  0  0  0  0  0  0  0  0  0
    5.1331    1.4953    0.0000 C   0  0  0  0  0  0  0  0  0  0  0  0
    4.4187    1.9078    0.0000 C   0  0  0  0  0  0  0  0  0  0  0  0
    4.4187    2.7328    0.0000 Cl  0  0  0  0  0  0  0  0  0  0  0  0
    3.7042    1.4953    0.0000 C   0  0  0  0  0  0  0  0  0  0  0  0
    3.7042    0.6703    0.0000 C   0  0  0  0  0  0  0  0  0  0  0  0
    2.9897    0.2578    0.0000 O   0  0  0  0  0  0  0  0  0  0  0  0
    2.9897   -0.5672    0.0000 C   0  0  0  0  0  0  0  0  0  0  0  0
    2.2752   -0.9797    0.0000 C   0  0  0  0  0  0  0  0  0  0  0  0
    2.2752   -1.8047    0.0000 C   0  0  0  0  0  0  0  0  0  0  0  0
    2.9897   -2.2172    0.0000 C   0  0  0  0  0  0  0  0  0  0  0  0
    2.9897   -3.0422    0.0000 Cl  0  0  0  0  0  0  0  0  0  0  0  0
    3.7042   -1.8047    0.0000 C   0  0  0  0  0  0  0  0  0  0  0  0
    3.7042   -0.9797    0.0000 C   0  0  0  0  0  0  0  0  0  0  0  0
    4.4187    0.2578    0.0000 C   0  0  0  0  0  0  0  0  0  0  0  0
  1  2  1  0  0  0  0
  3  2  1  0  0  0  0
  4  3  2  0  0  0  0
  4  5  1  0  0  0  0
  6  4  1  0  0  0  0
  7  6  2  0  0  0  0
  7  8  1  0  0  0  0
  8  9  1  0  0  0  0
 10  9  1  0  0  0  0
 11 10  2  0  0  0  0
 12 11  1  0  0  0  0
 12 13  1  0  0  0  0
 14 12  2  0  0  0  0
 15 14  1  0  0  0  0
  9 15  2  0  0  0  0
 16  7  1  0  0  0  0
  2 16  2  0  0  0  0
M  END
> <ChemID>
101846

> <CAS>
24910-73-4

> <Original_SMILES>
Clc1ccc(cc1)Oc1cc(Cl)cc(Cl)c1

> <preferred_name>
3,4',5-Trichlorodiphenyl ether

> <dsstox_substance_id>
DTXSID40179623

> <dsstox_compound_id>
DTXCID00102114

> <qc_level>


> <Canonical_QSARr>
ClC1C=CC(=CC=1)OC1C=C(Cl)C=C(Cl)C=1

> <InChI_Code_QSARr>
InChI=1S/C12H7Cl3O/c13-8-1-3-11(4-2-8)16-12-6-9(14)5-10(15)7-12/h1-7H

> <InChI Key_QSARr>
CCEZFZGXWFJQEF-UHFFFAOYSA-N

> <Salt_Solvent>


> <Salt_Solvent_ID>
0

> <MPID>
319706

> <HL Reference>


> <HL Temperature>


> <LogHL>
-4.205686961173761

> <Tr_1_Tst_0>


$$$$
101847
  Mrv171c012241914302D          

 17 18  0  0  0  0            999 V2000
    6.8925    1.1162    0.0000 C   0  0  0  0  0  0  0  0  0  0  0  0
    6.8925    1.9412    0.0000 C   0  0  0  0  0  0  0  0  0  0  0  0
    6.1780    2.3537    0.0000 C   0  0  0  0  0  0  0  0  0  0  0  0
    6.1780    3.1787    0.0000 Cl  0  0  0  0  0  0  0  0  0  0  0  0
    5.4635    1.9412    0.0000 C   0  0  0  0  0  0  0  0  0  0  0  0
    4.7491    2.3537    0.0000 O   0  0  0  0  0  0  0  0  0  0  0  0
    4.0346    1.9412    0.0000 C   0  0  0  0  0  0  0  0  0  0  0  0
    3.3201    2.3537    0.0000 C   0  0  0  0  0  0  0  0  0  0  0  0
    3.3201    3.1787    0.0000 Cl  0  0  0  0  0  0  0  0  0  0  0  0
    2.6057    1.9412    0.0000 C   0  0  0  0  0  0  0  0  0  0  0  0
    1.8912    2.3537    0.0000 Cl  0  0  0  0  0  0  0  0  0  0  0  0
    2.6057    1.1162    0.0000 C   0  0  0  0  0  0  0  0  0  0  0  0
    1.8912    0.7037    0.0000 Cl  0  0  0  0  0  0  0  0  0  0  0  0
    3.3201    0.7037    0.0000 C   0  0  0  0  0  0  0  0  0  0  0  0
    4.0346    1.1162    0.0000 C   0  0  0  0  0  0  0  0  0  0  0  0
    5.4635    1.1162    0.0000 C   0  0  0  0  0  0  0  0  0  0  0  0
    6.1780    0.7037    0.0000 C   0  0  0  0  0  0  0  0  0  0  0  0
  2  1  1  0  0  0  0
  3  2  2  0  0  0  0
  3  4  1  0  0  0  0
  5  3  1  0  0  0  0
  5  6  1  0  0  0  0
  6  7  1  0  0  0  0
  8  7  2  0  0  0  0
  8  9  1  0  0  0  0
 10  8  1  0  0  0  0
 10 11  1  0  0  0  0
 12 10  2  0  0  0  0
 12 13  1  0  0  0  0
 14 12  1  0  0  0  0
 15 14  2  0  0  0  0
  7 15  1  0  0  0  0
 16  5  2  0  0  0  0
 17 16  1  0  0  0  0
  1 17  2  0  0  0  0
M  END
> <ChemID>
101847

> <CAS>
NOCAS_877041

> <Original_SMILES>
Clc1ccccc1Oc1ccc(Cl)c(Cl)c1Cl

> <preferred_name>
2,2',3,4-Tetrachlorodiphenyl ether

> <dsstox_substance_id>
DTXSID90877041

> <dsstox_compound_id>
DTXCID601015125

> <qc_level>


> <Canonical_QSARr>
ClC1C=CC(OC2=CC=CC=C2Cl)=C(Cl)C=1Cl

> <InChI_Code_QSARr>
InChI=1S/C12H6Cl4O/c13-7-3-1-2-4-9(7)17-10-6-5-8(14)11(15)12(10)16/h1-6H

> <InChI Key_QSARr>
VTTDWGUAWMLHPR-UHFFFAOYSA-N

> <Salt_Solvent>


> <Salt_Solvent_ID>
0

> <MPID>
319710

> <HL Reference>


> <HL Temperature>


> <LogHL>
-3.745645307946833

> <Tr_1_Tst_0>


$$$$
101848
  Mrv171c012241914302D          

 17 18  0  0  0  0            999 V2000
    0.8826    2.0140    0.0000 C   0  0  0  0  0  0  0  0  0  0  0  0
    1.5970    2.4265    0.0000 C   0  0  0  0  0  0  0  0  0  0  0  0
    1.5970    3.2515    0.0000 C   0  0  0  0  0  0  0  0  0  0  0  0
    0.8826    3.6640    0.0000 C   0  0  0  0  0  0  0  0  0  0  0  0
    0.8826    4.4890    0.0000 Cl  0  0  0  0  0  0  0  0  0  0  0  0
    0.1681    3.2515    0.0000 C   0  0  0  0  0  0  0  0  0  0  0  0
    0.1681    2.4265    0.0000 C   0  0  0  0  0  0  0  0  0  0  0  0
   -0.5464    2.0140    0.0000 Cl  0  0  0  0  0  0  0  0  0  0  0  0
    0.8826    1.1890    0.0000 O   0  0  0  0  0  0  0  0  0  0  0  0
    1.5970    0.7765    0.0000 C   0  0  0  0  0  0  0  0  0  0  0  0
    1.5970   -0.0485    0.0000 C   0  0  0  0  0  0  0  0  0  0  0  0
    2.3115   -0.4610    0.0000 C   0  0  0  0  0  0  0  0  0  0  0  0
    3.0260   -0.0485    0.0000 C   0  0  0  0  0  0  0  0  0  0  0  0
    3.0260    0.7765    0.0000 C   0  0  0  0  0  0  0  0  0  0  0  0
    3.7405    1.1890    0.0000 Cl  0  0  0  0  0  0  0  0  0  0  0  0
    2.3115    1.1890    0.0000 C   0  0  0  0  0  0  0  0  0  0  0  0
    2.3115    2.0140    0.0000 Cl  0  0  0  0  0  0  0  0  0  0  0  0
  2  1  1  0  0  0  0
  3  2  2  0  0  0  0
  4  3  1  0  0  0  0
  4  5  1  0  0  0  0
  6  4  2  0  0  0  0
  7  6  1  0  0  0  0
  1  7  2  0  0  0  0
  7  8  1  0  0  0  0
  1  9  1  0  0  0  0
  9 10  1  0  0  0  0
 11 10  1  0  0  0  0
 12 11  2  0  0  0  0
 13 12  1  0  0  0  0
 14 13  2  0  0  0  0
 14 15  1  0  0  0  0
 16 14  1  0  0  0  0
 10 16  2  0  0  0  0
 16 17  1  0  0  0  0
M  END
> <ChemID>
101848

> <CAS>
31242-94-1

> <Original_SMILES>
Clc1cc(Cl)c(cc1)Oc1cccc(Cl)c1Cl

> <preferred_name>
2,2',3,4'-tetrachlorodiphenyl ether

> <dsstox_substance_id>
DTXSID2074031

> <dsstox_compound_id>
DTXCID1038321

> <qc_level>


> <Canonical_QSARr>
ClC1C=C(Cl)C=CC=1OC1C=CC=C(Cl)C=1Cl

> <InChI_Code_QSARr>
InChI=1S/C12H6Cl4O/c13-7-4-5-10(9(15)6-7)17-11-3-1-2-8(14)12(11)16/h1-6H

> <InChI Key_QSARr>
UYVBJPIPRAJEKW-UHFFFAOYSA-N

> <Salt_Solvent>


> <Salt_Solvent_ID>
0

> <MPID>
319714

> <HL Reference>


> <HL Temperature>


> <LogHL>
-3.7656675081105737

> <Tr_1_Tst_0>


$$$$
101849
  Mrv171c012241914302D          

 17 18  0  0  0  0            999 V2000
    1.5660    0.8250    0.0000 Cl  0  0  0  0  0  0  0  0  0  0  0  0
    2.2805    1.2375    0.0000 C   0  0  0  0  0  0  0  0  0  0  0  0
    2.2805    2.0625    0.0000 C   0  0  0  0  0  0  0  0  0  0  0  0
    2.9950    2.4750    0.0000 C   0  0  0  0  0  0  0  0  0  0  0  0
    2.9950    3.3000    0.0000 Cl  0  0  0  0  0  0  0  0  0  0  0  0
    3.7094    2.0625    0.0000 C   0  0  0  0  0  0  0  0  0  0  0  0
    3.7094    1.2375    0.0000 C   0  0  0  0  0  0  0  0  0  0  0  0
    2.9950    0.8250    0.0000 C   0  0  0  0  0  0  0  0  0  0  0  0
    2.9950    0.0000    0.0000 O   0  0  0  0  0  0  0  0  0  0  0  0
    3.7094   -0.4125    0.0000 C   0  0  0  0  0  0  0  0  0  0  0  0
    3.7094   -1.2375    0.0000 C   0  0  0  0  0  0  0  0  0  0  0  0
    4.4239   -1.6500    0.0000 C   0  0  0  0  0  0  0  0  0  0  0  0
    5.1384   -1.2375    0.0000 C   0  0  0  0  0  0  0  0  0  0  0  0
    5.8529   -1.6500    0.0000 Cl  0  0  0  0  0  0  0  0  0  0  0  0
    5.1384   -0.4125    0.0000 C   0  0  0  0  0  0  0  0  0  0  0  0
    4.4239    0.0000    0.0000 C   0  0  0  0  0  0  0  0  0  0  0  0
    4.4239    0.8250    0.0000 Cl  0  0  0  0  0  0  0  0  0  0  0  0
  1  2  1  0  0  0  0
  3  2  1  0  0  0  0
  4  3  2  0  0  0  0
  4  5  1  0  0  0  0
  6  4  1  0  0  0  0
  7  6  2  0  0  0  0
  8  7  1  0  0  0  0
  2  8  2  0  0  0  0
  8  9  1  0  0  0  0
  9 10  1  0  0  0  0
 11 10  1  0  0  0  0
 12 11  2  0  0  0  0
 13 12  1  0  0  0  0
 13 14  1  0  0  0  0
 15 13  2  0  0  0  0
 16 15  1  0  0  0  0
 10 16  2  0  0  0  0
 16 17  1  0  0  0  0
M  END
> <ChemID>
101849

> <CAS>
28076-73-5

> <Original_SMILES>
Clc1cc(Cl)c(cc1)Oc1ccc(Cl)cc1Cl

> <preferred_name>
Bis(2,4-dichlorophenyl)ether

> <dsstox_substance_id>
DTXSID60182351

> <dsstox_compound_id>
DTXCID70104842

> <qc_level>


> <Canonical_QSARr>
ClC1=CC(Cl)=C(C=C1)OC1C=CC(Cl)=CC=1Cl

> <InChI_Code_QSARr>
InChI=1S/C12H6Cl4O/c13-7-1-3-11(9(15)5-7)17-12-4-2-8(14)6-10(12)16/h1-6H

> <InChI Key_QSARr>
ZRWRPGGXCSSBAO-UHFFFAOYSA-N

> <Salt_Solvent>


> <Salt_Solvent_ID>
0

> <MPID>
319718

> <HL Reference>


> <HL Temperature>


> <LogHL>
-3.4657631471794517

> <Tr_1_Tst_0>


$$$$
101850
  Mrv171c012241914302D          

 17 18  0  0  0  0            999 V2000
    2.4376    3.8824    0.0000 C   0  0  0  0  0  0  0  0  0  0  0  0
    2.4376    4.7074    0.0000 C   0  0  0  0  0  0  0  0  0  0  0  0
    1.7231    5.1199    0.0000 C   0  0  0  0  0  0  0  0  0  0  0  0
    1.7231    5.9449    0.0000 Cl  0  0  0  0  0  0  0  0  0  0  0  0
    1.0087    4.7074    0.0000 C   0  0  0  0  0  0  0  0  0  0  0  0
    0.2942    5.1199    0.0000 O   0  0  0  0  0  0  0  0  0  0  0  0
   -0.4203    4.7074    0.0000 C   0  0  0  0  0  0  0  0  0  0  0  0
   -1.1347    5.1199    0.0000 C   0  0  0  0  0  0  0  0  0  0  0  0
   -1.1347    5.9449    0.0000 Cl  0  0  0  0  0  0  0  0  0  0  0  0
   -1.8492    4.7074    0.0000 C   0  0  0  0  0  0  0  0  0  0  0  0
   -1.8492    3.8824    0.0000 C   0  0  0  0  0  0  0  0  0  0  0  0
   -2.5637    3.4699    0.0000 Cl  0  0  0  0  0  0  0  0  0  0  0  0
   -1.1347    3.4699    0.0000 C   0  0  0  0  0  0  0  0  0  0  0  0
   -1.1347    2.6449    0.0000 Cl  0  0  0  0  0  0  0  0  0  0  0  0
   -0.4203    3.8824    0.0000 C   0  0  0  0  0  0  0  0  0  0  0  0
    1.0087    3.8824    0.0000 C   0  0  0  0  0  0  0  0  0  0  0  0
    1.7231    3.4699    0.0000 C   0  0  0  0  0  0  0  0  0  0  0  0
  2  1  1  0  0  0  0
  3  2  2  0  0  0  0
  3  4  1  0  0  0  0
  5  3  1  0  0  0  0
  5  6  1  0  0  0  0
  6  7  1  0  0  0  0
  8  7  2  0  0  0  0
  8  9  1  0  0  0  0
 10  8  1  0  0  0  0
 11 10  2  0  0  0  0
 11 12  1  0  0  0  0
 13 11  1  0  0  0  0
 13 14  1  0  0  0  0
 15 13  2  0  0  0  0
  7 15  1  0  0  0  0
 16  5  2  0  0  0  0
 17 16  1  0  0  0  0
  1 17  2  0  0  0  0
M  END
> <ChemID>
101850

> <CAS>
162853-26-1

> <Original_SMILES>
Clc1ccccc1Oc1cc(Cl)c(Cl)cc1Cl

> <preferred_name>
2,2',4,5-Tetrachlorodiphenyl ether

> <dsstox_substance_id>
DTXSID30877040

> <dsstox_compound_id>
DTXCID901015124

> <qc_level>


> <Canonical_QSARr>
ClC1C=C(Cl)C(Cl)=CC=1OC1=CC=CC=C1Cl

> <InChI_Code_QSARr>
InChI=1S/C12H6Cl4O/c13-7-3-1-2-4-11(7)17-12-6-9(15)8(14)5-10(12)16/h1-6H

> <InChI Key_QSARr>
DRVAMLZVBNYSQE-UHFFFAOYSA-N

> <Salt_Solvent>


> <Salt_Solvent_ID>
0

> <MPID>
319722

> <HL Reference>


> <HL Temperature>


> <LogHL>
-3.205686961173761

> <Tr_1_Tst_0>


$$$$
101851
  Mrv171c012241914302D          

 17 18  0  0  0  0            999 V2000
    1.6500    0.3640    0.0000 Cl  0  0  0  0  0  0  0  0  0  0  0  0
    2.3645    0.7765    0.0000 C   0  0  0  0  0  0  0  0  0  0  0  0
    2.3645    1.6015    0.0000 C   0  0  0  0  0  0  0  0  0  0  0  0
    3.0790    2.0140    0.0000 C   0  0  0  0  0  0  0  0  0  0  0  0
    3.0790    2.8390    0.0000 Cl  0  0  0  0  0  0  0  0  0  0  0  0
    3.7934    1.6015    0.0000 C   0  0  0  0  0  0  0  0  0  0  0  0
    3.7934    0.7765    0.0000 C   0  0  0  0  0  0  0  0  0  0  0  0
    3.0790    0.3640    0.0000 C   0  0  0  0  0  0  0  0  0  0  0  0
    3.0790   -0.4610    0.0000 O   0  0  0  0  0  0  0  0  0  0  0  0
    3.7934   -0.8735    0.0000 C   0  0  0  0  0  0  0  0  0  0  0  0
    3.7934   -1.6985    0.0000 C   0  0  0  0  0  0  0  0  0  0  0  0
    4.5079   -2.1110    0.0000 C   0  0  0  0  0  0  0  0  0  0  0  0
    4.5079   -2.9360    0.0000 Cl  0  0  0  0  0  0  0  0  0  0  0  0
    5.2224   -1.6985    0.0000 C   0  0  0  0  0  0  0  0  0  0  0  0
    5.2224   -0.8735    0.0000 C   0  0  0  0  0  0  0  0  0  0  0  0
    4.5079   -0.4610    0.0000 C   0  0  0  0  0  0  0  0  0  0  0  0
    4.5079    0.3640    0.0000 Cl  0  0  0  0  0  0  0  0  0  0  0  0
  1  2  1  0  0  0  0
  3  2  1  0  0  0  0
  4  3  2  0  0  0  0
  4  5  1  0  0  0  0
  6  4  1  0  0  0  0
  7  6  2  0  0  0  0
  8  7  1  0  0  0  0
  2  8  2  0  0  0  0
  8  9  1  0  0  0  0
  9 10  1  0  0  0  0
 11 10  1  0  0  0  0
 12 11  2  0  0  0  0
 12 13  1  0  0  0  0
 14 12  1  0  0  0  0
 15 14  2  0  0  0  0
 16 15  1  0  0  0  0
 10 16  2  0  0  0  0
 16 17  1  0  0  0  0
M  END
> <ChemID>
101851

> <CAS>
155999-92-1

> <Original_SMILES>
Clc1cc(Cl)ccc1Oc1cc(Cl)ccc1Cl

> <preferred_name>
2,2',4,5'-Tetrachlorodiphenyl ether

> <dsstox_substance_id>
DTXSID00166014

> <dsstox_compound_id>
DTXCID4088505

> <qc_level>


> <Canonical_QSARr>
ClC1C=C(Cl)C=CC=1OC1C=C(Cl)C=CC=1Cl

> <InChI_Code_QSARr>
InChI=1S/C12H6Cl4O/c13-7-2-4-11(10(16)5-7)17-12-6-8(14)1-3-9(12)15/h1-6H

> <InChI Key_QSARr>
XIXPEFLLHQAIOY-UHFFFAOYSA-N

> <Salt_Solvent>


> <Salt_Solvent_ID>
0

> <MPID>
319726

> <HL Reference>


> <HL Temperature>


> <LogHL>
-3.4157671816239996

> <Tr_1_Tst_0>


$$$$
101852
  Mrv171c012241914302D          

 17 18  0  0  0  0            999 V2000
    1.8492   -1.0191    0.0000 C   0  0  0  0  0  0  0  0  0  0  0  0
    1.8492   -0.1941    0.0000 C   0  0  0  0  0  0  0  0  0  0  0  0
    1.1347    0.2184    0.0000 C   0  0  0  0  0  0  0  0  0  0  0  0
    1.1347    1.0434    0.0000 O   0  0  0  0  0  0  0  0  0  0  0  0
    1.8492    1.4559    0.0000 C   0  0  0  0  0  0  0  0  0  0  0  0
    2.5636    1.0434    0.0000 C   0  0  0  0  0  0  0  0  0  0  0  0
    2.5636    0.2184    0.0000 Cl  0  0  0  0  0  0  0  0  0  0  0  0
    3.2781    1.4559    0.0000 C   0  0  0  0  0  0  0  0  0  0  0  0
    3.9926    1.0434    0.0000 Cl  0  0  0  0  0  0  0  0  0  0  0  0
    3.2781    2.2809    0.0000 C   0  0  0  0  0  0  0  0  0  0  0  0
    3.9926    2.6934    0.0000 Cl  0  0  0  0  0  0  0  0  0  0  0  0
    2.5636    2.6934    0.0000 C   0  0  0  0  0  0  0  0  0  0  0  0
    1.8492    2.2809    0.0000 C   0  0  0  0  0  0  0  0  0  0  0  0
    0.4202   -0.1941    0.0000 C   0  0  0  0  0  0  0  0  0  0  0  0
    0.4202   -1.0191    0.0000 C   0  0  0  0  0  0  0  0  0  0  0  0
   -0.2942   -1.4316    0.0000 Cl  0  0  0  0  0  0  0  0  0  0  0  0
    1.1347   -1.4316    0.0000 C   0  0  0  0  0  0  0  0  0  0  0  0
  2  1  1  0  0  0  0
  3  2  2  0  0  0  0
  3  4  1  0  0  0  0
  4  5  1  0  0  0  0
  6  5  2  0  0  0  0
  6  7  1  0  0  0  0
  8  6  1  0  0  0  0
  8  9  1  0  0  0  0
 10  8  2  0  0  0  0
 10 11  1  0  0  0  0
 12 10  1  0  0  0  0
 13 12  2  0  0  0  0
  5 13  1  0  0  0  0
 14  3  1  0  0  0  0
 15 14  2  0  0  0  0
 15 16  1  0  0  0  0
 17 15  1  0  0  0  0
  1 17  2  0  0  0  0
M  END
> <ChemID>
101852

> <CAS>
NOCAS_877038

> <Original_SMILES>
Clc1cc(ccc1)Oc1ccc(Cl)c(Cl)c1Cl

> <preferred_name>
2,3,3',4-Tetrachlorodiphenyl ether

> <dsstox_substance_id>
DTXSID60877038

> <dsstox_compound_id>
DTXCID501015122

> <qc_level>


> <Canonical_QSARr>
ClC1C(Cl)=C(C=CC=1Cl)OC1C=C(Cl)C=CC=1

> <InChI_Code_QSARr>
InChI=1S/C12H6Cl4O/c13-7-2-1-3-8(6-7)17-10-5-4-9(14)11(15)12(10)16/h1-6H

> <InChI Key_QSARr>
IZISEKJPNSBPRX-UHFFFAOYSA-N

> <Salt_Solvent>


> <Salt_Solvent_ID>
0

> <MPID>
319730

> <HL Reference>


> <HL Temperature>


> <LogHL>
-3.3756962415594276

> <Tr_1_Tst_0>


$$$$
101853
  Mrv171c012241914302D          

 17 18  0  0  0  0            999 V2000
   -1.4289    0.0000    0.0000 C   0  0  0  0  0  0  0  0  0  0  0  0
   -1.4289    0.8250    0.0000 C   0  0  0  0  0  0  0  0  0  0  0  0
   -2.1434    1.2375    0.0000 C   0  0  0  0  0  0  0  0  0  0  0  0
   -2.1434    2.0625    0.0000 O   0  0  0  0  0  0  0  0  0  0  0  0
   -1.4289    2.4750    0.0000 C   0  0  0  0  0  0  0  0  0  0  0  0
   -0.7145    2.0625    0.0000 C   0  0  0  0  0  0  0  0  0  0  0  0
   -0.0000    2.4750    0.0000 C   0  0  0  0  0  0  0  0  0  0  0  0
    0.7145    2.0625    0.0000 Cl  0  0  0  0  0  0  0  0  0  0  0  0
   -0.0000    3.3000    0.0000 C   0  0  0  0  0  0  0  0  0  0  0  0
    0.7145    3.7125    0.0000 Cl  0  0  0  0  0  0  0  0  0  0  0  0
   -0.7145    3.7125    0.0000 C   0  0  0  0  0  0  0  0  0  0  0  0
   -1.4289    3.3000    0.0000 C   0  0  0  0  0  0  0  0  0  0  0  0
   -2.8579    0.8250    0.0000 C   0  0  0  0  0  0  0  0  0  0  0  0
   -3.5724    1.2375    0.0000 Cl  0  0  0  0  0  0  0  0  0  0  0  0
   -2.8579    0.0000    0.0000 C   0  0  0  0  0  0  0  0  0  0  0  0
   -3.5724   -0.4125    0.0000 Cl  0  0  0  0  0  0  0  0  0  0  0  0
   -2.1434   -0.4125    0.0000 C   0  0  0  0  0  0  0  0  0  0  0  0
  2  1  1  0  0  0  0
  3  2  2  0  0  0  0
  3  4  1  0  0  0  0
  4  5  1  0  0  0  0
  6  5  2  0  0  0  0
  7  6  1  0  0  0  0
  7  8  1  0  0  0  0
  9  7  2  0  0  0  0
  9 10  1  0  0  0  0
 11  9  1  0  0  0  0
 12 11  2  0  0  0  0
  5 12  1  0  0  0  0
 13  3  1  0  0  0  0
 13 14  1  0  0  0  0
 15 13  2  0  0  0  0
 15 16  1  0  0  0  0
 17 15  1  0  0  0  0
  1 17  2  0  0  0  0
M  END
> <ChemID>
101853

> <CAS>
162853-27-2

> <Original_SMILES>
Clc1cc(ccc1Cl)Oc1cccc(Cl)c1Cl

> <preferred_name>
2,3,3',4'-Tetrachlorodiphenyl ether

> <dsstox_substance_id>
DTXSID10877043

> <dsstox_compound_id>
DTXCID001015127

> <qc_level>


> <Canonical_QSARr>
ClC1C=C(C=CC=1Cl)OC1=CC=CC(Cl)=C1Cl

> <InChI_Code_QSARr>
InChI=1S/C12H6Cl4O/c13-8-5-4-7(6-10(8)15)17-11-3-1-2-9(14)12(11)16/h1-6H

> <InChI Key_QSARr>
JVFGXWCLGNACOG-UHFFFAOYSA-N

> <Salt_Solvent>


> <Salt_Solvent_ID>
0

> <MPID>
319734

> <HL Reference>


> <HL Temperature>


> <LogHL>
-3.6456917544942624

> <Tr_1_Tst_0>


$$$$
101854
  Mrv171c012241914302D          

 17 18  0  0  0  0            999 V2000
    4.4549    3.5427    0.0000 C   0  0  0  0  0  0  0  0  0  0  0  0
    3.7404    3.9552    0.0000 C   0  0  0  0  0  0  0  0  0  0  0  0
    3.7404    4.7802    0.0000 Cl  0  0  0  0  0  0  0  0  0  0  0  0
    3.0260    3.5427    0.0000 C   0  0  0  0  0  0  0  0  0  0  0  0
    3.0260    2.7177    0.0000 C   0  0  0  0  0  0  0  0  0  0  0  0
    3.7404    2.3052    0.0000 C   0  0  0  0  0  0  0  0  0  0  0  0
    3.7404    1.4802    0.0000 O   0  0  0  0  0  0  0  0  0  0  0  0
    4.4549    1.0677    0.0000 C   0  0  0  0  0  0  0  0  0  0  0  0
    4.4549    0.2427    0.0000 C   0  0  0  0  0  0  0  0  0  0  0  0
    3.7404   -0.1698    0.0000 Cl  0  0  0  0  0  0  0  0  0  0  0  0
    5.1694   -0.1698    0.0000 C   0  0  0  0  0  0  0  0  0  0  0  0
    5.1694   -0.9948    0.0000 Cl  0  0  0  0  0  0  0  0  0  0  0  0
    5.8839    0.2427    0.0000 C   0  0  0  0  0  0  0  0  0  0  0  0
    6.5983   -0.1698    0.0000 Cl  0  0  0  0  0  0  0  0  0  0  0  0
    5.8839    1.0677    0.0000 C   0  0  0  0  0  0  0  0  0  0  0  0
    5.1694    1.4802    0.0000 C   0  0  0  0  0  0  0  0  0  0  0  0
    4.4549    2.7177    0.0000 C   0  0  0  0  0  0  0  0  0  0  0  0
  2  1  2  0  0  0  0
  2  3  1  0  0  0  0
  4  2  1  0  0  0  0
  5  4  2  0  0  0  0
  6  5  1  0  0  0  0
  6  7  1  0  0  0  0
  7  8  1  0  0  0  0
  9  8  2  0  0  0  0
  9 10  1  0  0  0  0
 11  9  1  0  0  0  0
 11 12  1  0  0  0  0
 13 11  2  0  0  0  0
 13 14  1  0  0  0  0
 15 13  1  0  0  0  0
 16 15  2  0  0  0  0
  8 16  1  0  0  0  0
 17  6  2  0  0  0  0
  1 17  1  0  0  0  0
M  END
> <ChemID>
101854

> <CAS>
65075-01-6

> <Original_SMILES>
Clc1ccc(cc1)Oc1ccc(Cl)c(Cl)c1Cl

> <preferred_name>
2,3,4,4'-Tetrachlorodiphenyl ether

> <dsstox_substance_id>
DTXSID60877033

> <dsstox_compound_id>
DTXCID401015117

> <qc_level>


> <Canonical_QSARr>
ClC1C=CC(=CC=1)OC1C=CC(Cl)=C(Cl)C=1Cl

> <InChI_Code_QSARr>
InChI=1S/C12H6Cl4O/c13-7-1-3-8(4-2-7)17-10-6-5-9(14)11(15)12(10)16/h1-6H

> <InChI Key_QSARr>
ZPOBHUZRVVTGKB-UHFFFAOYSA-N

> <Salt_Solvent>


> <Salt_Solvent_ID>
0

> <MPID>
319738

> <HL Reference>


> <HL Temperature>


> <LogHL>
-3.5657521454522394

> <Tr_1_Tst_0>


$$$$
101855
  Mrv171c012241914302D          

 17 18  0  0  0  0            999 V2000
   -0.7985    1.9169    0.0000 C   0  0  0  0  0  0  0  0  0  0  0  0
   -0.0841    2.3294    0.0000 C   0  0  0  0  0  0  0  0  0  0  0  0
   -0.0841    3.1544    0.0000 C   0  0  0  0  0  0  0  0  0  0  0  0
   -0.7985    3.5669    0.0000 C   0  0  0  0  0  0  0  0  0  0  0  0
   -0.7985    4.3919    0.0000 O   0  0  0  0  0  0  0  0  0  0  0  0
   -1.5130    4.8044    0.0000 C   0  0  0  0  0  0  0  0  0  0  0  0
   -1.5130    5.6294    0.0000 C   0  0  0  0  0  0  0  0  0  0  0  0
   -0.7985    6.0419    0.0000 Cl  0  0  0  0  0  0  0  0  0  0  0  0
   -2.2275    6.0419    0.0000 C   0  0  0  0  0  0  0  0  0  0  0  0
   -2.2275    6.8669    0.0000 Cl  0  0  0  0  0  0  0  0  0  0  0  0
   -2.9419    5.6294    0.0000 C   0  0  0  0  0  0  0  0  0  0  0  0
   -3.6564    6.0419    0.0000 Cl  0  0  0  0  0  0  0  0  0  0  0  0
   -2.9419    4.8044    0.0000 C   0  0  0  0  0  0  0  0  0  0  0  0
   -3.6564    4.3919    0.0000 Cl  0  0  0  0  0  0  0  0  0  0  0  0
   -2.2275    4.3919    0.0000 C   0  0  0  0  0  0  0  0  0  0  0  0
   -1.5130    3.1544    0.0000 C   0  0  0  0  0  0  0  0  0  0  0  0
   -1.5130    2.3294    0.0000 C   0  0  0  0  0  0  0  0  0  0  0  0
  2  1  1  0  0  0  0
  3  2  2  0  0  0  0
  4  3  1  0  0  0  0
  4  5  1  0  0  0  0
  5  6  1  0  0  0  0
  7  6  2  0  0  0  0
  7  8  1  0  0  0  0
  9  7  1  0  0  0  0
  9 10  1  0  0  0  0
 11  9  2  0  0  0  0
 11 12  1  0  0  0  0
 13 11  1  0  0  0  0
 13 14  1  0  0  0  0
 15 13  2  0  0  0  0
  6 15  1  0  0  0  0
 16  4  2  0  0  0  0
 17 16  1  0  0  0  0
  1 17  2  0  0  0  0
M  END
> <ChemID>
101855

> <CAS>
NOCAS_877044

> <Original_SMILES>
Clc1cc(Oc2ccccc2)c(Cl)c(Cl)c1Cl

> <preferred_name>
2,3,4,5-tetrachlorodiphenyl ether

> <dsstox_substance_id>
DTXSID70877044

> <dsstox_compound_id>
DTXCID701015128

> <qc_level>


> <Canonical_QSARr>
ClC1=C(C=C(Cl)C(Cl)=C1Cl)OC1C=CC=CC=1

> <InChI_Code_QSARr>
InChI=1S/C12H6Cl4O/c13-8-6-9(11(15)12(16)10(8)14)17-7-4-2-1-3-5-7/h1-6H

> <InChI Key_QSARr>
QAPPZLVGIXQUJW-UHFFFAOYSA-N

> <Salt_Solvent>


> <Salt_Solvent_ID>
0

> <MPID>
319742

> <HL Reference>


> <HL Temperature>


> <LogHL>
-2.8257046375935815

> <Tr_1_Tst_0>


$$$$
101856
  Mrv171c012241914302D          

 17 18  0  0  0  0            999 V2000
    2.0594    1.9169    0.0000 C   0  0  0  0  0  0  0  0  0  0  0  0
    2.7738    2.3294    0.0000 C   0  0  0  0  0  0  0  0  0  0  0  0
    2.7738    3.1544    0.0000 C   0  0  0  0  0  0  0  0  0  0  0  0
    2.0594    3.5669    0.0000 C   0  0  0  0  0  0  0  0  0  0  0  0
    2.0594    4.3919    0.0000 O   0  0  0  0  0  0  0  0  0  0  0  0
    1.3449    4.8044    0.0000 C   0  0  0  0  0  0  0  0  0  0  0  0
    1.3449    5.6294    0.0000 C   0  0  0  0  0  0  0  0  0  0  0  0
    2.0594    6.0419    0.0000 Cl  0  0  0  0  0  0  0  0  0  0  0  0
    0.6304    6.0419    0.0000 C   0  0  0  0  0  0  0  0  0  0  0  0
    0.6304    6.8669    0.0000 Cl  0  0  0  0  0  0  0  0  0  0  0  0
   -0.0841    5.6294    0.0000 C   0  0  0  0  0  0  0  0  0  0  0  0
   -0.7985    6.0419    0.0000 Cl  0  0  0  0  0  0  0  0  0  0  0  0
   -0.0841    4.8044    0.0000 C   0  0  0  0  0  0  0  0  0  0  0  0
    0.6304    4.3919    0.0000 C   0  0  0  0  0  0  0  0  0  0  0  0
    0.6304    3.5669    0.0000 Cl  0  0  0  0  0  0  0  0  0  0  0  0
    1.3449    3.1544    0.0000 C   0  0  0  0  0  0  0  0  0  0  0  0
    1.3449    2.3294    0.0000 C   0  0  0  0  0  0  0  0  0  0  0  0
  2  1  1  0  0  0  0
  3  2  2  0  0  0  0
  4  3  1  0  0  0  0
  4  5  1  0  0  0  0
  5  6  1  0  0  0  0
  7  6  1  0  0  0  0
  7  8  1  0  0  0  0
  9  7  2  0  0  0  0
  9 10  1  0  0  0  0
 11  9  1  0  0  0  0
 11 12  1  0  0  0  0
 13 11  2  0  0  0  0
 14 13  1  0  0  0  0
  6 14  2  0  0  0  0
 14 15  1  0  0  0  0
 16  4  2  0  0  0  0
 17 16  1  0  0  0  0
  1 17  2  0  0  0  0
M  END
> <ChemID>
101856

> <CAS>
85918-33-8

> <Original_SMILES>
Clc1cc(Cl)c(Oc2ccccc2)c(Cl)c1Cl

> <preferred_name>
2,3,4,6-Tetrachlorodiphenyl ether

> <dsstox_substance_id>
DTXSID30877045

> <dsstox_compound_id>
DTXCID401015129

> <qc_level>


> <Canonical_QSARr>
ClC1C=C(Cl)C(Cl)=C(Cl)C=1OC1C=CC=CC=1

> <InChI_Code_QSARr>
InChI=1S/C12H6Cl4O/c13-8-6-9(14)12(11(16)10(8)15)17-7-4-2-1-3-5-7/h1-6H

> <InChI Key_QSARr>
WJZPRRFFZWVZJL-UHFFFAOYSA-N

> <Salt_Solvent>


> <Salt_Solvent_ID>
0

> <MPID>
319746

> <HL Reference>


> <HL Temperature>


> <LogHL>
-2.965708522981823

> <Tr_1_Tst_0>


$$$$
101857
  Mrv171c012241914302D          

 17 18  0  0  0  0            999 V2000
    2.7738    3.6397    0.0000 C   0  0  0  0  0  0  0  0  0  0  0  0
    2.0593    4.0522    0.0000 C   0  0  0  0  0  0  0  0  0  0  0  0
    2.0593    4.8772    0.0000 Cl  0  0  0  0  0  0  0  0  0  0  0  0
    1.3449    3.6397    0.0000 C   0  0  0  0  0  0  0  0  0  0  0  0
    1.3449    2.8147    0.0000 C   0  0  0  0  0  0  0  0  0  0  0  0
    2.0593    2.4022    0.0000 C   0  0  0  0  0  0  0  0  0  0  0  0
    2.0593    1.5772    0.0000 O   0  0  0  0  0  0  0  0  0  0  0  0
    2.7738    1.1647    0.0000 C   0  0  0  0  0  0  0  0  0  0  0  0
    2.7738    0.3397    0.0000 C   0  0  0  0  0  0  0  0  0  0  0  0
    2.0593   -0.0728    0.0000 Cl  0  0  0  0  0  0  0  0  0  0  0  0
    3.4883   -0.0728    0.0000 C   0  0  0  0  0  0  0  0  0  0  0  0
    3.4883   -0.8978    0.0000 Cl  0  0  0  0  0  0  0  0  0  0  0  0
    4.2027    0.3397    0.0000 C   0  0  0  0  0  0  0  0  0  0  0  0
    4.2027    1.1647    0.0000 C   0  0  0  0  0  0  0  0  0  0  0  0
    4.9172    1.5772    0.0000 Cl  0  0  0  0  0  0  0  0  0  0  0  0
    3.4883    1.5772    0.0000 C   0  0  0  0  0  0  0  0  0  0  0  0
    2.7738    2.8147    0.0000 C   0  0  0  0  0  0  0  0  0  0  0  0
  2  1  2  0  0  0  0
  2  3  1  0  0  0  0
  4  2  1  0  0  0  0
  5  4  2  0  0  0  0
  6  5  1  0  0  0  0
  6  7  1  0  0  0  0
  7  8  1  0  0  0  0
  9  8  1  0  0  0  0
  9 10  1  0  0  0  0
 11  9  2  0  0  0  0
 11 12  1  0  0  0  0
 13 11  1  0  0  0  0
 14 13  2  0  0  0  0
 14 15  1  0  0  0  0
 16 14  1  0  0  0  0
  8 16  2  0  0  0  0
 17  6  2  0  0  0  0
  1 17  1  0  0  0  0
M  END
> <ChemID>
101857

> <CAS>
NOCAS_877035

> <Original_SMILES>
Clc1cc(Cl)cc(Oc2ccc(Cl)cc2)c1Cl

> <preferred_name>
2,3,4',5-Tetrachlorodiphenyl ether

> <dsstox_substance_id>
DTXSID80877035

> <dsstox_compound_id>
DTXCID801015119

> <qc_level>


> <Canonical_QSARr>
ClC1C=C(Cl)C=C(OC2C=CC(Cl)=CC=2)C=1Cl

> <InChI_Code_QSARr>
InChI=1S/C12H6Cl4O/c13-7-1-3-9(4-2-7)17-11-6-8(14)5-10(15)12(11)16/h1-6H

> <InChI Key_QSARr>
YHQRYZGDQCSHFO-UHFFFAOYSA-N

> <Salt_Solvent>


> <Salt_Solvent_ID>
0

> <MPID>
319750

> <HL Reference>


> <HL Temperature>


> <LogHL>
-3.175705559730073

> <Tr_1_Tst_0>


$$$$
101858
  Mrv171c012241914302D          

 17 18  0  0  0  0            999 V2000
    2.9419    3.5426    0.0000 C   0  0  0  0  0  0  0  0  0  0  0  0
    2.2274    3.9551    0.0000 C   0  0  0  0  0  0  0  0  0  0  0  0
    2.2274    4.7801    0.0000 Cl  0  0  0  0  0  0  0  0  0  0  0  0
    1.5130    3.5426    0.0000 C   0  0  0  0  0  0  0  0  0  0  0  0
    1.5130    2.7176    0.0000 C   0  0  0  0  0  0  0  0  0  0  0  0
    2.2274    2.3051    0.0000 C   0  0  0  0  0  0  0  0  0  0  0  0
    2.2274    1.4801    0.0000 O   0  0  0  0  0  0  0  0  0  0  0  0
    2.9419    1.0676    0.0000 C   0  0  0  0  0  0  0  0  0  0  0  0
    2.9419    0.2426    0.0000 C   0  0  0  0  0  0  0  0  0  0  0  0
    2.2274   -0.1699    0.0000 Cl  0  0  0  0  0  0  0  0  0  0  0  0
    3.6564   -0.1699    0.0000 C   0  0  0  0  0  0  0  0  0  0  0  0
    3.6564   -0.9949    0.0000 Cl  0  0  0  0  0  0  0  0  0  0  0  0
    4.3708    0.2426    0.0000 C   0  0  0  0  0  0  0  0  0  0  0  0
    4.3708    1.0676    0.0000 C   0  0  0  0  0  0  0  0  0  0  0  0
    3.6564    1.4801    0.0000 C   0  0  0  0  0  0  0  0  0  0  0  0
    3.6564    2.3051    0.0000 Cl  0  0  0  0  0  0  0  0  0  0  0  0
    2.9419    2.7176    0.0000 C   0  0  0  0  0  0  0  0  0  0  0  0
  2  1  2  0  0  0  0
  2  3  1  0  0  0  0
  4  2  1  0  0  0  0
  5  4  2  0  0  0  0
  6  5  1  0  0  0  0
  6  7  1  0  0  0  0
  7  8  1  0  0  0  0
  9  8  1  0  0  0  0
  9 10  1  0  0  0  0
 11  9  2  0  0  0  0
 11 12  1  0  0  0  0
 13 11  1  0  0  0  0
 14 13  2  0  0  0  0
 15 14  1  0  0  0  0
  8 15  2  0  0  0  0
 15 16  1  0  0  0  0
 17  6  2  0  0  0  0
  1 17  1  0  0  0  0
M  END
> <ChemID>
101858

> <CAS>
NOCAS_877034

> <Original_SMILES>
Clc1ccc(cc1)Oc1c(Cl)c(Cl)ccc1Cl

> <preferred_name>
2,3,4',6-Tetrachlorodiphenyl ether

> <dsstox_substance_id>
DTXSID20877034

> <dsstox_compound_id>
DTXCID101015118

> <qc_level>


> <Canonical_QSARr>
ClC1C=CC(=CC=1)OC1C(Cl)=C(Cl)C=CC=1Cl

> <InChI_Code_QSARr>
InChI=1S/C12H6Cl4O/c13-7-1-3-8(4-2-7)17-12-10(15)6-5-9(14)11(12)16/h1-6H

> <InChI Key_QSARr>
HJCNTJIMUWQMSA-UHFFFAOYSA-N

> <Salt_Solvent>


> <Salt_Solvent_ID>
0

> <MPID>
319754

> <HL Reference>


> <HL Temperature>


> <LogHL>
-3.5857605613215537

> <Tr_1_Tst_0>


$$$$
101859
  Mrv171c012241914302D          

 17 18  0  0  0  0            999 V2000
    3.9196    0.6066    0.0000 Cl  0  0  0  0  0  0  0  0  0  0  0  0
    3.2051    0.1941    0.0000 C   0  0  0  0  0  0  0  0  0  0  0  0
    2.4906    0.6066    0.0000 C   0  0  0  0  0  0  0  0  0  0  0  0
    2.4906    1.4316    0.0000 Cl  0  0  0  0  0  0  0  0  0  0  0  0
    1.7761    0.1941    0.0000 C   0  0  0  0  0  0  0  0  0  0  0  0
    1.7761   -0.6309    0.0000 C   0  0  0  0  0  0  0  0  0  0  0  0
    1.0617   -1.0434    0.0000 Cl  0  0  0  0  0  0  0  0  0  0  0  0
    2.4906   -1.0434    0.0000 C   0  0  0  0  0  0  0  0  0  0  0  0
    2.4906   -1.8684    0.0000 Cl  0  0  0  0  0  0  0  0  0  0  0  0
    3.2051   -0.6309    0.0000 C   0  0  0  0  0  0  0  0  0  0  0  0
    3.9196   -1.0434    0.0000 O   0  0  0  0  0  0  0  0  0  0  0  0
    4.6340   -0.6309    0.0000 C   0  0  0  0  0  0  0  0  0  0  0  0
    5.3485   -1.0434    0.0000 C   0  0  0  0  0  0  0  0  0  0  0  0
    6.0630   -0.6309    0.0000 C   0  0  0  0  0  0  0  0  0  0  0  0
    6.0630    0.1941    0.0000 C   0  0  0  0  0  0  0  0  0  0  0  0
    5.3485    0.6066    0.0000 C   0  0  0  0  0  0  0  0  0  0  0  0
    4.6340    0.1941    0.0000 C   0  0  0  0  0  0  0  0  0  0  0  0
  1  2  1  0  0  0  0
  3  2  1  0  0  0  0
  3  4  1  0  0  0  0
  5  3  2  0  0  0  0
  6  5  1  0  0  0  0
  6  7  1  0  0  0  0
  8  6  2  0  0  0  0
  8  9  1  0  0  0  0
 10  8  1  0  0  0  0
  2 10  2  0  0  0  0
 10 11  1  0  0  0  0
 11 12  1  0  0  0  0
 13 12  1  0  0  0  0
 14 13  2  0  0  0  0
 15 14  1  0  0  0  0
 16 15  2  0  0  0  0
 17 16  1  0  0  0  0
 12 17  2  0  0  0  0
M  END
> <ChemID>
101859

> <CAS>
63646-54-8

> <Original_SMILES>
Clc1cc(Cl)c(Cl)c(Oc2ccccc2)c1Cl

> <preferred_name>
2,3,5,6-Tetrachlorodiphenyl ether

> <dsstox_substance_id>
DTXSID90213021

> <dsstox_compound_id>
DTXCID90135512

> <qc_level>


> <Canonical_QSARr>
ClC1C=C(Cl)C(Cl)=C(OC2C=CC=CC=2)C=1Cl

> <InChI_Code_QSARr>
InChI=1S/C12H6Cl4O/c13-8-6-9(14)11(16)12(10(8)15)17-7-4-2-1-3-5-7/h1-6H

> <InChI Key_QSARr>
UFGXCDQXRUFDMA-UHFFFAOYSA-N

> <Salt_Solvent>


> <Salt_Solvent_ID>
0

> <MPID>
319758

> <HL Reference>


> <HL Temperature>


> <LogHL>
-2.975723730775949

> <Tr_1_Tst_0>


$$$$
101860
  Mrv171c012241914302D          

 17 18  0  0  0  0            999 V2000
    4.2558    0.6309    0.0000 Cl  0  0  0  0  0  0  0  0  0  0  0  0
    3.5413    1.0434    0.0000 C   0  0  0  0  0  0  0  0  0  0  0  0
    3.5413    1.8684    0.0000 C   0  0  0  0  0  0  0  0  0  0  0  0
    2.8269    2.2809    0.0000 C   0  0  0  0  0  0  0  0  0  0  0  0
    2.8269    3.1059    0.0000 Cl  0  0  0  0  0  0  0  0  0  0  0  0
    2.1124    1.8684    0.0000 C   0  0  0  0  0  0  0  0  0  0  0  0
    2.1124    1.0434    0.0000 C   0  0  0  0  0  0  0  0  0  0  0  0
    2.8269    0.6309    0.0000 C   0  0  0  0  0  0  0  0  0  0  0  0
    2.8269   -0.1941    0.0000 O   0  0  0  0  0  0  0  0  0  0  0  0
    3.5413   -0.6066    0.0000 C   0  0  0  0  0  0  0  0  0  0  0  0
    3.5413   -1.4316    0.0000 C   0  0  0  0  0  0  0  0  0  0  0  0
    4.2558   -1.8441    0.0000 C   0  0  0  0  0  0  0  0  0  0  0  0
    4.9703   -1.4316    0.0000 C   0  0  0  0  0  0  0  0  0  0  0  0
    5.6847   -1.8441    0.0000 Cl  0  0  0  0  0  0  0  0  0  0  0  0
    4.9703   -0.6066    0.0000 C   0  0  0  0  0  0  0  0  0  0  0  0
    5.6847   -0.1941    0.0000 Cl  0  0  0  0  0  0  0  0  0  0  0  0
    4.2558   -0.1941    0.0000 C   0  0  0  0  0  0  0  0  0  0  0  0
  1  2  1  0  0  0  0
  3  2  1  0  0  0  0
  4  3  2  0  0  0  0
  4  5  1  0  0  0  0
  6  4  1  0  0  0  0
  7  6  2  0  0  0  0
  8  7  1  0  0  0  0
  2  8  2  0  0  0  0
  8  9  1  0  0  0  0
  9 10  1  0  0  0  0
 11 10  1  0  0  0  0
 12 11  2  0  0  0  0
 13 12  1  0  0  0  0
 13 14  1  0  0  0  0
 15 13  2  0  0  0  0
 15 16  1  0  0  0  0
 17 15  1  0  0  0  0
 10 17  2  0  0  0  0
M  END
> <ChemID>
101860

> <CAS>
61328-46-9

> <Original_SMILES>
Clc1cc(Cl)c(cc1)Oc1cc(Cl)c(Cl)cc1

> <preferred_name>
2,3',4,4'-Tetrachlorodiphenyl ether

> <dsstox_substance_id>
DTXSID00210243

> <dsstox_compound_id>
DTXCID00132734

> <qc_level>


> <Canonical_QSARr>
ClC1=CC(Cl)=C(C=C1)OC1=CC(Cl)=C(Cl)C=C1

> <InChI_Code_QSARr>
InChI=1S/C12H6Cl4O/c13-7-1-4-12(11(16)5-7)17-8-2-3-9(14)10(15)6-8/h1-6H

> <InChI Key_QSARr>
CAWSVYYOUZEMHA-UHFFFAOYSA-N

> <Salt_Solvent>


> <Salt_Solvent_ID>
0

> <MPID>
319762

> <HL Reference>


> <HL Temperature>


> <LogHL>
-3.395695089654395

> <Tr_1_Tst_0>


$$$$
101861
  Mrv171c012241914302D          

 17 18  0  0  0  0            999 V2000
   -2.4376    1.1647    0.0000 C   0  0  0  0  0  0  0  0  0  0  0  0
   -2.4376    1.9897    0.0000 C   0  0  0  0  0  0  0  0  0  0  0  0
   -3.1521    2.4022    0.0000 C   0  0  0  0  0  0  0  0  0  0  0  0
   -3.1521    3.2272    0.0000 O   0  0  0  0  0  0  0  0  0  0  0  0
   -2.4376    3.6397    0.0000 C   0  0  0  0  0  0  0  0  0  0  0  0
   -1.7231    3.2272    0.0000 C   0  0  0  0  0  0  0  0  0  0  0  0
   -1.7231    2.4022    0.0000 Cl  0  0  0  0  0  0  0  0  0  0  0  0
   -1.0086    3.6397    0.0000 C   0  0  0  0  0  0  0  0  0  0  0  0
   -1.0086    4.4647    0.0000 C   0  0  0  0  0  0  0  0  0  0  0  0
   -0.2942    4.8772    0.0000 Cl  0  0  0  0  0  0  0  0  0  0  0  0
   -1.7231    4.8772    0.0000 C   0  0  0  0  0  0  0  0  0  0  0  0
   -1.7231    5.7022    0.0000 Cl  0  0  0  0  0  0  0  0  0  0  0  0
   -2.4376    4.4647    0.0000 C   0  0  0  0  0  0  0  0  0  0  0  0
   -3.8665    1.9897    0.0000 C   0  0  0  0  0  0  0  0  0  0  0  0
   -3.8665    1.1647    0.0000 C   0  0  0  0  0  0  0  0  0  0  0  0
   -4.5810    0.7522    0.0000 Cl  0  0  0  0  0  0  0  0  0  0  0  0
   -3.1521    0.7522    0.0000 C   0  0  0  0  0  0  0  0  0  0  0  0
  2  1  1  0  0  0  0
  3  2  2  0  0  0  0
  3  4  1  0  0  0  0
  4  5  1  0  0  0  0
  6  5  2  0  0  0  0
  6  7  1  0  0  0  0
  8  6  1  0  0  0  0
  9  8  2  0  0  0  0
  9 10  1  0  0  0  0
 11  9  1  0  0  0  0
 11 12  1  0  0  0  0
 13 11  2  0  0  0  0
  5 13  1  0  0  0  0
 14  3  1  0  0  0  0
 15 14  2  0  0  0  0
 15 16  1  0  0  0  0
 17 15  1  0  0  0  0
  1 17  2  0  0  0  0
M  END
> <ChemID>
101861

> <CAS>
NOCAS_877037

> <Original_SMILES>
Clc1cc(ccc1)Oc1cc(Cl)c(Cl)cc1Cl

> <preferred_name>
2,3',4,5-Tetrachlorodiphenyl ether

> <dsstox_substance_id>
DTXSID00877037

> <dsstox_compound_id>
DTXCID801015121

> <qc_level>


> <Canonical_QSARr>
ClC1C=C(Cl)C(Cl)=CC=1OC1C=C(Cl)C=CC=1

> <InChI_Code_QSARr>
InChI=1S/C12H6Cl4O/c13-7-2-1-3-8(4-7)17-12-6-10(15)9(14)5-11(12)16/h1-6H

> <InChI Key_QSARr>
QDQGECFQVPRMEO-UHFFFAOYSA-N

> <Salt_Solvent>


> <Salt_Solvent_ID>
0

> <MPID>
319766

> <HL Reference>


> <HL Temperature>


> <LogHL>
-2.9557229339346165

> <Tr_1_Tst_0>


$$$$
101862
  Mrv171c012241914302D          

 17 18  0  0  0  0            999 V2000
    2.7738    3.3485    0.0000 C   0  0  0  0  0  0  0  0  0  0  0  0
    2.0593    3.7610    0.0000 C   0  0  0  0  0  0  0  0  0  0  0  0
    2.0593    4.5860    0.0000 Cl  0  0  0  0  0  0  0  0  0  0  0  0
    1.3449    3.3485    0.0000 C   0  0  0  0  0  0  0  0  0  0  0  0
    1.3449    2.5235    0.0000 C   0  0  0  0  0  0  0  0  0  0  0  0
    0.6304    2.1110    0.0000 Cl  0  0  0  0  0  0  0  0  0  0  0  0
    2.0593    2.1110    0.0000 C   0  0  0  0  0  0  0  0  0  0  0  0
    2.0593    1.2860    0.0000 O   0  0  0  0  0  0  0  0  0  0  0  0
    2.7738    0.8735    0.0000 C   0  0  0  0  0  0  0  0  0  0  0  0
    2.7738    0.0485    0.0000 C   0  0  0  0  0  0  0  0  0  0  0  0
    3.4883   -0.3640    0.0000 C   0  0  0  0  0  0  0  0  0  0  0  0
    3.4883   -1.1890    0.0000 Cl  0  0  0  0  0  0  0  0  0  0  0  0
    4.2027    0.0485    0.0000 C   0  0  0  0  0  0  0  0  0  0  0  0
    4.2027    0.8735    0.0000 C   0  0  0  0  0  0  0  0  0  0  0  0
    4.9172    1.2860    0.0000 Cl  0  0  0  0  0  0  0  0  0  0  0  0
    3.4883    1.2860    0.0000 C   0  0  0  0  0  0  0  0  0  0  0  0
    2.7738    2.5235    0.0000 C   0  0  0  0  0  0  0  0  0  0  0  0
  2  1  1  0  0  0  0
  2  3  1  0  0  0  0
  4  2  2  0  0  0  0
  5  4  1  0  0  0  0
  5  6  1  0  0  0  0
  7  5  2  0  0  0  0
  7  8  1  0  0  0  0
  8  9  1  0  0  0  0
 10  9  1  0  0  0  0
 11 10  2  0  0  0  0
 11 12  1  0  0  0  0
 13 11  1  0  0  0  0
 14 13  2  0  0  0  0
 14 15  1  0  0  0  0
 16 14  1  0  0  0  0
  9 16  2  0  0  0  0
 17  7  1  0  0  0  0
  1 17  2  0  0  0  0
M  END
> <ChemID>
101862

> <CAS>
147102-64-5

> <Original_SMILES>
Clc1cc(Cl)ccc1Oc1cc(Cl)cc(Cl)c1

> <preferred_name>
2,3',4,5'-Tetrachlorodiphenyl ether

> <dsstox_substance_id>
DTXSID40877031

> <dsstox_compound_id>
DTXCID001015115

> <qc_level>


> <Canonical_QSARr>
ClC1=CC(=CC(Cl)=C1)OC1C=CC(Cl)=CC=1Cl

> <InChI_Code_QSARr>
InChI=1S/C12H6Cl4O/c13-7-1-2-12(11(16)6-7)17-10-4-8(14)3-9(15)5-10/h1-6H

> <InChI Key_QSARr>
XORVNHCKWFPDLN-UHFFFAOYSA-N

> <Salt_Solvent>


> <Salt_Solvent_ID>
0

> <MPID>
319770

> <HL Reference>


> <HL Temperature>


> <LogHL>
-3.00571672978183

> <Tr_1_Tst_0>


$$$$
101863
  Mrv171c012241914302D          

 17 18  0  0  0  0            999 V2000
    1.5130    1.0677    0.0000 C   0  0  0  0  0  0  0  0  0  0  0  0
    0.7985    1.4802    0.0000 C   0  0  0  0  0  0  0  0  0  0  0  0
    0.7985    2.3052    0.0000 Cl  0  0  0  0  0  0  0  0  0  0  0  0
    0.0841    1.0677    0.0000 C   0  0  0  0  0  0  0  0  0  0  0  0
    0.0841    0.2427    0.0000 C   0  0  0  0  0  0  0  0  0  0  0  0
   -0.6304   -0.1698    0.0000 O   0  0  0  0  0  0  0  0  0  0  0  0
   -0.6304   -0.9948    0.0000 C   0  0  0  0  0  0  0  0  0  0  0  0
   -1.3449   -1.4073    0.0000 C   0  0  0  0  0  0  0  0  0  0  0  0
   -1.3449   -2.2323    0.0000 C   0  0  0  0  0  0  0  0  0  0  0  0
   -2.0594   -2.6448    0.0000 Cl  0  0  0  0  0  0  0  0  0  0  0  0
   -0.6304   -2.6448    0.0000 C   0  0  0  0  0  0  0  0  0  0  0  0
   -0.6304   -3.4698    0.0000 Cl  0  0  0  0  0  0  0  0  0  0  0  0
    0.0841   -2.2323    0.0000 C   0  0  0  0  0  0  0  0  0  0  0  0
    0.0841   -1.4073    0.0000 C   0  0  0  0  0  0  0  0  0  0  0  0
    0.7985   -0.1698    0.0000 C   0  0  0  0  0  0  0  0  0  0  0  0
    0.7985   -0.9948    0.0000 Cl  0  0  0  0  0  0  0  0  0  0  0  0
    1.5130    0.2427    0.0000 C   0  0  0  0  0  0  0  0  0  0  0  0
  2  1  1  0  0  0  0
  2  3  1  0  0  0  0
  4  2  2  0  0  0  0
  5  4  1  0  0  0  0
  5  6  1  0  0  0  0
  6  7  1  0  0  0  0
  8  7  2  0  0  0  0
  9  8  1  0  0  0  0
  9 10  1  0  0  0  0
 11  9  2  0  0  0  0
 11 12  1  0  0  0  0
 13 11  1  0  0  0  0
 14 13  2  0  0  0  0
  7 14  1  0  0  0  0
 15  5  2  0  0  0  0
 15 16  1  0  0  0  0
 17 15  1  0  0  0  0
  1 17  2  0  0  0  0
M  END
> <ChemID>
101863

> <CAS>
NOCAS_877032

> <Original_SMILES>
Clc1cc(Oc2cc(Cl)c(Cl)cc2)c(Cl)cc1

> <preferred_name>
2,3',4',5-Tetrachlorodiphenyl ether

> <dsstox_substance_id>
DTXSID00877032

> <dsstox_compound_id>
DTXCID701015116

> <qc_level>


> <Canonical_QSARr>
ClC1=CC(OC2=CC(Cl)=C(Cl)C=C2)=C(Cl)C=C1

> <InChI_Code_QSARr>
InChI=1S/C12H6Cl4O/c13-7-1-3-10(15)12(5-7)17-8-2-4-9(14)11(16)6-8/h1-6H

> <InChI Key_QSARr>
MFTPXFIGIJCNJM-UHFFFAOYSA-N

> <Salt_Solvent>


> <Salt_Solvent_ID>
0

> <MPID>
319774

> <HL Reference>


> <HL Temperature>


> <LogHL>
-3.2557484920244404

> <Tr_1_Tst_0>


$$$$
101864
  Mrv171c012241914302D          

 17 18  0  0  0  0            999 V2000
    1.3449    0.4853    0.0000 C   0  0  0  0  0  0  0  0  0  0  0  0
    0.6304    0.8978    0.0000 C   0  0  0  0  0  0  0  0  0  0  0  0
    0.6304    1.7228    0.0000 Cl  0  0  0  0  0  0  0  0  0  0  0  0
   -0.0841    0.4853    0.0000 C   0  0  0  0  0  0  0  0  0  0  0  0
   -0.0841   -0.3397    0.0000 C   0  0  0  0  0  0  0  0  0  0  0  0
    0.6304   -0.7522    0.0000 C   0  0  0  0  0  0  0  0  0  0  0  0
    1.3449   -0.3397    0.0000 C   0  0  0  0  0  0  0  0  0  0  0  0
    2.0593   -0.7522    0.0000 Cl  0  0  0  0  0  0  0  0  0  0  0  0
    2.0593    0.8978    0.0000 O   0  0  0  0  0  0  0  0  0  0  0  0
    2.0593    1.7228    0.0000 C   0  0  0  0  0  0  0  0  0  0  0  0
    2.7738    2.1353    0.0000 C   0  0  0  0  0  0  0  0  0  0  0  0
    2.7738    2.9603    0.0000 C   0  0  0  0  0  0  0  0  0  0  0  0
    2.0593    3.3728    0.0000 C   0  0  0  0  0  0  0  0  0  0  0  0
    2.0593    4.1978    0.0000 Cl  0  0  0  0  0  0  0  0  0  0  0  0
    1.3449    2.9603    0.0000 C   0  0  0  0  0  0  0  0  0  0  0  0
    0.6304    3.3728    0.0000 Cl  0  0  0  0  0  0  0  0  0  0  0  0
    1.3449    2.1353    0.0000 C   0  0  0  0  0  0  0  0  0  0  0  0
  2  1  1  0  0  0  0
  2  3  1  0  0  0  0
  4  2  2  0  0  0  0
  5  4  1  0  0  0  0
  6  5  2  0  0  0  0
  7  6  1  0  0  0  0
  1  7  2  0  0  0  0
  7  8  1  0  0  0  0
  1  9  1  0  0  0  0
  9 10  1  0  0  0  0
 11 10  1  0  0  0  0
 12 11  2  0  0  0  0
 13 12  1  0  0  0  0
 13 14  1  0  0  0  0
 15 13  2  0  0  0  0
 15 16  1  0  0  0  0
 17 15  1  0  0  0  0
 10 17  2  0  0  0  0
M  END
> <ChemID>
101864

> <CAS>
130892-66-9

> <Original_SMILES>
Clc1cc(ccc1Cl)Oc1c(Cl)cccc1Cl

> <preferred_name>
Benzene, 1,3-dichloro-2-(3,4-dichlorophenoxy)-

> <dsstox_substance_id>
DTXSID3074492

> <dsstox_compound_id>
DTXCID7033999

> <qc_level>


> <Canonical_QSARr>
ClC1C=C(C=CC=1Cl)OC1C(Cl)=CC=CC=1Cl

> <InChI_Code_QSARr>
InChI=1S/C12H6Cl4O/c13-8-5-4-7(6-11(8)16)17-12-9(14)2-1-3-10(12)15/h1-6H

> <InChI Key_QSARr>
IZZULMOBRTYHMH-UHFFFAOYSA-N

> <Salt_Solvent>


> <Salt_Solvent_ID>
0

> <MPID>
319778

> <HL Reference>


> <HL Temperature>


> <LogHL>
-3.6656689141493644

> <Tr_1_Tst_0>


$$$$
101865
  Mrv171c012241914302D          

 17 18  0  0  0  0            999 V2000
    4.5080    0.4853    0.0000 Cl  0  0  0  0  0  0  0  0  0  0  0  0
    3.7935    0.8978    0.0000 C   0  0  0  0  0  0  0  0  0  0  0  0
    3.7935    1.7228    0.0000 C   0  0  0  0  0  0  0  0  0  0  0  0
    3.0790    2.1353    0.0000 C   0  0  0  0  0  0  0  0  0  0  0  0
    3.0790    2.9603    0.0000 Cl  0  0  0  0  0  0  0  0  0  0  0  0
    2.3646    1.7228    0.0000 C   0  0  0  0  0  0  0  0  0  0  0  0
    1.6501    2.1353    0.0000 Cl  0  0  0  0  0  0  0  0  0  0  0  0
    2.3646    0.8978    0.0000 C   0  0  0  0  0  0  0  0  0  0  0  0
    3.0790    0.4853    0.0000 C   0  0  0  0  0  0  0  0  0  0  0  0
    3.0790   -0.3397    0.0000 O   0  0  0  0  0  0  0  0  0  0  0  0
    3.7935   -0.7522    0.0000 C   0  0  0  0  0  0  0  0  0  0  0  0
    3.7935   -1.5772    0.0000 C   0  0  0  0  0  0  0  0  0  0  0  0
    4.5080   -1.9897    0.0000 C   0  0  0  0  0  0  0  0  0  0  0  0
    5.2224   -1.5772    0.0000 C   0  0  0  0  0  0  0  0  0  0  0  0
    5.9369   -1.9897    0.0000 Cl  0  0  0  0  0  0  0  0  0  0  0  0
    5.2224   -0.7522    0.0000 C   0  0  0  0  0  0  0  0  0  0  0  0
    4.5080   -0.3397    0.0000 C   0  0  0  0  0  0  0  0  0  0  0  0
  1  2  1  0  0  0  0
  3  2  2  0  0  0  0
  4  3  1  0  0  0  0
  4  5  1  0  0  0  0
  6  4  2  0  0  0  0
  6  7  1  0  0  0  0
  8  6  1  0  0  0  0
  9  8  2  0  0  0  0
  2  9  1  0  0  0  0
  9 10  1  0  0  0  0
 10 11  1  0  0  0  0
 12 11  1  0  0  0  0
 13 12  2  0  0  0  0
 14 13  1  0  0  0  0
 14 15  1  0  0  0  0
 16 14  2  0  0  0  0
 17 16  1  0  0  0  0
 11 17  2  0  0  0  0
M  END
> <ChemID>
101865

> <CAS>
61328-45-8

> <Original_SMILES>
Clc1ccc(cc1)Oc1cc(Cl)c(Cl)cc1Cl

> <preferred_name>
2,4,4',5-Tetrachlorodiphenyl ether

> <dsstox_substance_id>
DTXSID40210242

> <dsstox_compound_id>
DTXCID40132733

> <qc_level>


> <Canonical_QSARr>
ClC1C=CC(=CC=1)OC1=CC(Cl)=C(Cl)C=C1Cl

> <InChI_Code_QSARr>
InChI=1S/C12H6Cl4O/c13-7-1-3-8(4-2-7)17-12-6-10(15)9(14)5-11(12)16/h1-6H

> <InChI Key_QSARr>
KXOJXWNARBQHNX-UHFFFAOYSA-N

> <Salt_Solvent>


> <Salt_Solvent_ID>
0

> <MPID>
319782

> <HL Reference>


> <HL Temperature>


> <LogHL>
-3.2857230630661802

> <Tr_1_Tst_0>


$$$$
101866
  Mrv171c012241914302D          

 17 18  0  0  0  0            999 V2000
    1.3449    5.9206    0.0000 C   0  0  0  0  0  0  0  0  0  0  0  0
    0.6304    6.3331    0.0000 C   0  0  0  0  0  0  0  0  0  0  0  0
    0.6304    7.1581    0.0000 Cl  0  0  0  0  0  0  0  0  0  0  0  0
   -0.0841    5.9206    0.0000 C   0  0  0  0  0  0  0  0  0  0  0  0
   -0.0841    5.0956    0.0000 C   0  0  0  0  0  0  0  0  0  0  0  0
    0.6304    4.6831    0.0000 C   0  0  0  0  0  0  0  0  0  0  0  0
    0.6304    3.8581    0.0000 O   0  0  0  0  0  0  0  0  0  0  0  0
    1.3449    3.4456    0.0000 C   0  0  0  0  0  0  0  0  0  0  0  0
    1.3449    2.6206    0.0000 C   0  0  0  0  0  0  0  0  0  0  0  0
    0.6304    2.2081    0.0000 Cl  0  0  0  0  0  0  0  0  0  0  0  0
    2.0594    2.2081    0.0000 C   0  0  0  0  0  0  0  0  0  0  0  0
    2.7738    2.6206    0.0000 C   0  0  0  0  0  0  0  0  0  0  0  0
    3.4883    2.2081    0.0000 Cl  0  0  0  0  0  0  0  0  0  0  0  0
    2.7738    3.4456    0.0000 C   0  0  0  0  0  0  0  0  0  0  0  0
    2.0594    3.8581    0.0000 C   0  0  0  0  0  0  0  0  0  0  0  0
    2.0594    4.6831    0.0000 Cl  0  0  0  0  0  0  0  0  0  0  0  0
    1.3449    5.0956    0.0000 C   0  0  0  0  0  0  0  0  0  0  0  0
  2  1  2  0  0  0  0
  2  3  1  0  0  0  0
  4  2  1  0  0  0  0
  5  4  2  0  0  0  0
  6  5  1  0  0  0  0
  6  7  1  0  0  0  0
  7  8  1  0  0  0  0
  9  8  1  0  0  0  0
  9 10  1  0  0  0  0
 11  9  2  0  0  0  0
 12 11  1  0  0  0  0
 12 13  1  0  0  0  0
 14 12  2  0  0  0  0
 15 14  1  0  0  0  0
  8 15  2  0  0  0  0
 15 16  1  0  0  0  0
 17  6  2  0  0  0  0
  1 17  1  0  0  0  0
M  END
> <ChemID>
101866

> <CAS>
63553-30-0

> <Original_SMILES>
Clc1cc(Cl)c(Oc2ccc(Cl)cc2)c(Cl)c1

> <preferred_name>
2,4,4',6-Tetrachlorodiphenyl ether

> <dsstox_substance_id>
DTXSID40877036

> <dsstox_compound_id>
DTXCID101015120

> <qc_level>


> <Canonical_QSARr>
ClC1C=C(Cl)C=C(Cl)C=1OC1C=CC(Cl)=CC=1

> <InChI_Code_QSARr>
InChI=1S/C12H6Cl4O/c13-7-1-3-9(4-2-7)17-12-10(15)5-8(14)6-11(12)16/h1-6H

> <InChI Key_QSARr>
YCWRSOTXXJYCKF-UHFFFAOYSA-N

> <Salt_Solvent>


> <Salt_Solvent_ID>
0

> <MPID>
319786

> <HL Reference>


> <HL Temperature>


> <LogHL>
-3.225687456248349

> <Tr_1_Tst_0>


$$$$
101867
  Mrv171c012241914302D          

 17 18  0  0  0  0            999 V2000
    4.2558    1.9654    0.0000 Cl  0  0  0  0  0  0  0  0  0  0  0  0
    3.5413    1.5529    0.0000 C   0  0  0  0  0  0  0  0  0  0  0  0
    2.8269    1.9654    0.0000 C   0  0  0  0  0  0  0  0  0  0  0  0
    2.8269    2.7904    0.0000 Cl  0  0  0  0  0  0  0  0  0  0  0  0
    2.1124    1.5529    0.0000 C   0  0  0  0  0  0  0  0  0  0  0  0
    2.1124    0.7279    0.0000 C   0  0  0  0  0  0  0  0  0  0  0  0
    2.8269    0.3154    0.0000 C   0  0  0  0  0  0  0  0  0  0  0  0
    2.8269   -0.5096    0.0000 O   0  0  0  0  0  0  0  0  0  0  0  0
    3.5413   -0.9221    0.0000 C   0  0  0  0  0  0  0  0  0  0  0  0
    3.5413   -1.7471    0.0000 C   0  0  0  0  0  0  0  0  0  0  0  0
    4.2558   -2.1596    0.0000 C   0  0  0  0  0  0  0  0  0  0  0  0
    4.9703   -1.7471    0.0000 C   0  0  0  0  0  0  0  0  0  0  0  0
    5.6847   -2.1596    0.0000 Cl  0  0  0  0  0  0  0  0  0  0  0  0
    4.9703   -0.9221    0.0000 C   0  0  0  0  0  0  0  0  0  0  0  0
    5.6847   -0.5096    0.0000 Cl  0  0  0  0  0  0  0  0  0  0  0  0
    4.2558   -0.5096    0.0000 C   0  0  0  0  0  0  0  0  0  0  0  0
    3.5413    0.7279    0.0000 C   0  0  0  0  0  0  0  0  0  0  0  0
  1  2  1  0  0  0  0
  3  2  2  0  0  0  0
  3  4  1  0  0  0  0
  5  3  1  0  0  0  0
  6  5  2  0  0  0  0
  7  6  1  0  0  0  0
  7  8  1  0  0  0  0
  8  9  1  0  0  0  0
 10  9  1  0  0  0  0
 11 10  2  0  0  0  0
 12 11  1  0  0  0  0
 12 13  1  0  0  0  0
 14 12  2  0  0  0  0
 14 15  1  0  0  0  0
 16 14  1  0  0  0  0
  9 16  2  0  0  0  0
 17  7  2  0  0  0  0
  2 17  1  0  0  0  0
M  END
> <ChemID>
101867

> <CAS>
56348-72-2

> <Original_SMILES>
Clc1ccc(cc1Cl)Oc1cc(Cl)c(Cl)cc1

> <preferred_name>
3,3',4,4'-Tetrachlorodiphenyl ether

> <dsstox_substance_id>
DTXSID20204886

> <dsstox_compound_id>
DTXCID50127377

> <qc_level>


> <Canonical_QSARr>
ClC1C=CC(=CC=1Cl)OC1=CC(Cl)=C(Cl)C=C1

> <InChI_Code_QSARr>
InChI=1S/C12H6Cl4O/c13-9-3-1-7(5-11(9)15)17-8-2-4-10(14)12(16)6-8/h1-6H

> <InChI Key_QSARr>
DHLVZXZRIZBPKG-UHFFFAOYSA-N

> <Salt_Solvent>


> <Salt_Solvent_ID>
0

> <MPID>
319790

> <HL Reference>


> <HL Temperature>


> <LogHL>
-3.615664510065715

> <Tr_1_Tst_0>


$$$$
101868
  Mrv171c012241914302D          

 17 18  0  0  0  0            999 V2000
    2.8579    0.9706    0.0000 C   0  0  0  0  0  0  0  0  0  0  0  0
    2.1434    1.3831    0.0000 C   0  0  0  0  0  0  0  0  0  0  0  0
    2.1434    2.2081    0.0000 O   0  0  0  0  0  0  0  0  0  0  0  0
    1.4289    2.6206    0.0000 C   0  0  0  0  0  0  0  0  0  0  0  0
    1.4289    3.4456    0.0000 C   0  0  0  0  0  0  0  0  0  0  0  0
    0.7145    3.8581    0.0000 C   0  0  0  0  0  0  0  0  0  0  0  0
    0.7145    4.6831    0.0000 Cl  0  0  0  0  0  0  0  0  0  0  0  0
   -0.0000    3.4456    0.0000 C   0  0  0  0  0  0  0  0  0  0  0  0
   -0.0000    2.6206    0.0000 C   0  0  0  0  0  0  0  0  0  0  0  0
   -0.7145    2.2081    0.0000 Cl  0  0  0  0  0  0  0  0  0  0  0  0
    0.7145    2.2081    0.0000 C   0  0  0  0  0  0  0  0  0  0  0  0
    1.4289    0.9706    0.0000 C   0  0  0  0  0  0  0  0  0  0  0  0
    1.4289    0.1456    0.0000 C   0  0  0  0  0  0  0  0  0  0  0  0
    0.7145   -0.2669    0.0000 Cl  0  0  0  0  0  0  0  0  0  0  0  0
    2.1434   -0.2669    0.0000 C   0  0  0  0  0  0  0  0  0  0  0  0
    2.1434   -1.0919    0.0000 Cl  0  0  0  0  0  0  0  0  0  0  0  0
    2.8579    0.1456    0.0000 C   0  0  0  0  0  0  0  0  0  0  0  0
  2  1  1  0  0  0  0
  2  3  1  0  0  0  0
  3  4  1  0  0  0  0
  5  4  1  0  0  0  0
  6  5  2  0  0  0  0
  6  7  1  0  0  0  0
  8  6  1  0  0  0  0
  9  8  2  0  0  0  0
  9 10  1  0  0  0  0
 11  9  1  0  0  0  0
  4 11  2  0  0  0  0
 12  2  2  0  0  0  0
 13 12  1  0  0  0  0
 13 14  1  0  0  0  0
 15 13  2  0  0  0  0
 15 16  1  0  0  0  0
 17 15  1  0  0  0  0
  1 17  2  0  0  0  0
M  END
> <ChemID>
101868

> <CAS>
NOCAS_877042

> <Original_SMILES>
Clc1ccc(cc1Cl)Oc1cc(Cl)cc(Cl)c1

> <preferred_name>
3,3',4,5'-Tetrachlorodiphenyl ether

> <dsstox_substance_id>
DTXSID50877042

> <dsstox_compound_id>
DTXCID301015126

> <qc_level>


> <Canonical_QSARr>
ClC1C=CC(=CC=1Cl)OC1C=C(Cl)C=C(Cl)C=1

> <InChI_Code_QSARr>
InChI=1S/C12H6Cl4O/c13-7-3-8(14)5-10(4-7)17-9-1-2-11(15)12(16)6-9/h1-6H

> <InChI Key_QSARr>
BUPRSRBWDJVKGG-UHFFFAOYSA-N

> <Salt_Solvent>


> <Salt_Solvent_ID>
0

> <MPID>
319794

> <HL Reference>


> <HL Temperature>


> <LogHL>
-3.0257131116785554

> <Tr_1_Tst_0>


$$$$
101869
  Mrv171c012241914302D          

 17 18  0  0  0  0            999 V2000
    4.5080    1.9412    0.0000 Cl  0  0  0  0  0  0  0  0  0  0  0  0
    3.7935    1.5287    0.0000 C   0  0  0  0  0  0  0  0  0  0  0  0
    3.0790    1.9412    0.0000 C   0  0  0  0  0  0  0  0  0  0  0  0
    3.0790    2.7662    0.0000 Cl  0  0  0  0  0  0  0  0  0  0  0  0
    2.3646    1.5287    0.0000 C   0  0  0  0  0  0  0  0  0  0  0  0
    1.6501    1.9412    0.0000 Cl  0  0  0  0  0  0  0  0  0  0  0  0
    2.3646    0.7037    0.0000 C   0  0  0  0  0  0  0  0  0  0  0  0
    3.0790    0.2912    0.0000 C   0  0  0  0  0  0  0  0  0  0  0  0
    3.0790   -0.5338    0.0000 O   0  0  0  0  0  0  0  0  0  0  0  0
    3.7935   -0.9463    0.0000 C   0  0  0  0  0  0  0  0  0  0  0  0
    3.7935   -1.7713    0.0000 C   0  0  0  0  0  0  0  0  0  0  0  0
    4.5080   -2.1838    0.0000 C   0  0  0  0  0  0  0  0  0  0  0  0
    5.2224   -1.7713    0.0000 C   0  0  0  0  0  0  0  0  0  0  0  0
    5.9369   -2.1838    0.0000 Cl  0  0  0  0  0  0  0  0  0  0  0  0
    5.2224   -0.9463    0.0000 C   0  0  0  0  0  0  0  0  0  0  0  0
    4.5080   -0.5338    0.0000 C   0  0  0  0  0  0  0  0  0  0  0  0
    3.7935    0.7037    0.0000 C   0  0  0  0  0  0  0  0  0  0  0  0
  1  2  1  0  0  0  0
  3  2  1  0  0  0  0
  3  4  1  0  0  0  0
  5  3  2  0  0  0  0
  5  6  1  0  0  0  0
  7  5  1  0  0  0  0
  8  7  2  0  0  0  0
  8  9  1  0  0  0  0
  9 10  1  0  0  0  0
 11 10  1  0  0  0  0
 12 11  2  0  0  0  0
 13 12  1  0  0  0  0
 13 14  1  0  0  0  0
 15 13  2  0  0  0  0
 16 15  1  0  0  0  0
 10 16  2  0  0  0  0
 17  8  1  0  0  0  0
  2 17  2  0  0  0  0
M  END
> <ChemID>
101869

> <CAS>
62615-07-0

> <Original_SMILES>
Clc1ccc(cc1)Oc1cc(Cl)c(Cl)c(Cl)c1

> <preferred_name>
3,4,4',5-Tetrachlorodiphenyl ether

> <dsstox_substance_id>
DTXSID50211664

> <dsstox_compound_id>
DTXCID80134155

> <qc_level>


> <Canonical_QSARr>
ClC1C=C(C=C(Cl)C=1Cl)OC1C=CC(Cl)=CC=1

> <InChI_Code_QSARr>
InChI=1S/C12H6Cl4O/c13-7-1-3-8(4-2-7)17-9-5-10(14)12(16)11(15)6-9/h1-6H

> <InChI Key_QSARr>
CAUBBRCOHHHCNG-UHFFFAOYSA-N

> <Salt_Solvent>


> <Salt_Solvent_ID>
0

> <MPID>
319798

> <HL Reference>


> <HL Temperature>


> <LogHL>
-3.175705559730073

> <Tr_1_Tst_0>


$$$$
101870
  Mrv171c012241914302D          

 18 19  0  0  0  0            999 V2000
    4.2868   -2.4750    0.0000 C   0  0  0  0  0  0  0  0  0  0  0  0
    4.2868   -1.6500    0.0000 C   0  0  0  0  0  0  0  0  0  0  0  0
    3.5723   -1.2375    0.0000 C   0  0  0  0  0  0  0  0  0  0  0  0
    3.5723   -0.4125    0.0000 O   0  0  0  0  0  0  0  0  0  0  0  0
    4.2868    0.0000    0.0000 C   0  0  0  0  0  0  0  0  0  0  0  0
    5.0013   -0.4125    0.0000 C   0  0  0  0  0  0  0  0  0  0  0  0
    5.0013   -1.2375    0.0000 Cl  0  0  0  0  0  0  0  0  0  0  0  0
    5.7157    0.0000    0.0000 C   0  0  0  0  0  0  0  0  0  0  0  0
    6.4302   -0.4125    0.0000 Cl  0  0  0  0  0  0  0  0  0  0  0  0
    5.7157    0.8250    0.0000 C   0  0  0  0  0  0  0  0  0  0  0  0
    6.4302    1.2375    0.0000 Cl  0  0  0  0  0  0  0  0  0  0  0  0
    5.0013    1.2375    0.0000 C   0  0  0  0  0  0  0  0  0  0  0  0
    4.2868    0.8250    0.0000 C   0  0  0  0  0  0  0  0  0  0  0  0
    2.8578   -1.6500    0.0000 C   0  0  0  0  0  0  0  0  0  0  0  0
    2.1434   -1.2375    0.0000 Cl  0  0  0  0  0  0  0  0  0  0  0  0
    2.8578   -2.4750    0.0000 C   0  0  0  0  0  0  0  0  0  0  0  0
    2.1434   -2.8875    0.0000 Cl  0  0  0  0  0  0  0  0  0  0  0  0
    3.5723   -2.8875    0.0000 C   0  0  0  0  0  0  0  0  0  0  0  0
  2  1  1  0  0  0  0
  3  2  2  0  0  0  0
  3  4  1  0  0  0  0
  4  5  1  0  0  0  0
  6  5  2  0  0  0  0
  6  7  1  0  0  0  0
  8  6  1  0  0  0  0
  8  9  1  0  0  0  0
 10  8  2  0  0  0  0
 10 11  1  0  0  0  0
 12 10  1  0  0  0  0
 13 12  2  0  0  0  0
  5 13  1  0  0  0  0
 14  3  1  0  0  0  0
 14 15  1  0  0  0  0
 16 14  2  0  0  0  0
 16 17  1  0  0  0  0
 18 16  1  0  0  0  0
  1 18  2  0  0  0  0
M  END
> <ChemID>
101870

> <CAS>
160282-10-0

> <Original_SMILES>
Clc1c(ccc(Cl)c1Cl)Oc1cccc(Cl)c1Cl

> <preferred_name>
2,2',3,3',4-Pentachlorodiphenylether

> <dsstox_substance_id>
DTXSID30877025

> <dsstox_compound_id>
DTXCID201015109

> <qc_level>


> <Canonical_QSARr>
ClC1C=CC(OC2=CC=CC(Cl)=C2Cl)=C(Cl)C=1Cl

> <InChI_Code_QSARr>
InChI=1S/C12H5Cl5O/c13-6-2-1-3-8(10(6)15)18-9-5-4-7(14)11(16)12(9)17/h1-5H

> <InChI Key_QSARr>
ABRDPORILGADAP-UHFFFAOYSA-N

> <Salt_Solvent>


> <Salt_Solvent_ID>
0

> <MPID>
319802

> <HL Reference>


> <HL Temperature>


> <LogHL>
-3.925812791492185

> <Tr_1_Tst_0>


$$$$
101871
  Mrv171c012241914302D          

 18 19  0  0  0  0            999 V2000
    0.0000    3.4833    0.0000 C   0  0  0  0  0  0  0  0  0  0  0  0
   -0.7145    3.8958    0.0000 C   0  0  0  0  0  0  0  0  0  0  0  0
   -0.7145    4.7208    0.0000 Cl  0  0  0  0  0  0  0  0  0  0  0  0
   -1.4289    3.4833    0.0000 C   0  0  0  0  0  0  0  0  0  0  0  0
   -1.4289    2.6583    0.0000 C   0  0  0  0  0  0  0  0  0  0  0  0
   -2.1434    2.2458    0.0000 Cl  0  0  0  0  0  0  0  0  0  0  0  0
   -0.7145    2.2458    0.0000 C   0  0  0  0  0  0  0  0  0  0  0  0
   -0.7145    1.4208    0.0000 O   0  0  0  0  0  0  0  0  0  0  0  0
    0.0000    1.0083    0.0000 C   0  0  0  0  0  0  0  0  0  0  0  0
    0.0000    0.1833    0.0000 C   0  0  0  0  0  0  0  0  0  0  0  0
   -0.7145   -0.2292    0.0000 Cl  0  0  0  0  0  0  0  0  0  0  0  0
    0.7145   -0.2292    0.0000 C   0  0  0  0  0  0  0  0  0  0  0  0
    0.7145   -1.0542    0.0000 Cl  0  0  0  0  0  0  0  0  0  0  0  0
    1.4289    0.1833    0.0000 C   0  0  0  0  0  0  0  0  0  0  0  0
    2.1434   -0.2292    0.0000 Cl  0  0  0  0  0  0  0  0  0  0  0  0
    1.4289    1.0083    0.0000 C   0  0  0  0  0  0  0  0  0  0  0  0
    0.7145    1.4208    0.0000 C   0  0  0  0  0  0  0  0  0  0  0  0
    0.0000    2.6583    0.0000 C   0  0  0  0  0  0  0  0  0  0  0  0
  2  1  1  0  0  0  0
  2  3  1  0  0  0  0
  4  2  2  0  0  0  0
  5  4  1  0  0  0  0
  5  6  1  0  0  0  0
  7  5  2  0  0  0  0
  7  8  1  0  0  0  0
  8  9  1  0  0  0  0
 10  9  2  0  0  0  0
 10 11  1  0  0  0  0
 12 10  1  0  0  0  0
 12 13  1  0  0  0  0
 14 12  2  0  0  0  0
 14 15  1  0  0  0  0
 16 14  1  0  0  0  0
 17 16  2  0  0  0  0
  9 17  1  0  0  0  0
 18  7  1  0  0  0  0
  1 18  2  0  0  0  0
M  END
> <ChemID>
101871

> <CAS>
71585-37-0

> <Original_SMILES>
Clc1cc(Cl)c(cc1)Oc1ccc(Cl)c(Cl)c1Cl

> <preferred_name>
2,2',3,4,4'-Pentachlorodiphenylether

> <dsstox_substance_id>
DTXSID90877021

> <dsstox_compound_id>
DTXCID401015105

> <qc_level>


> <Canonical_QSARr>
ClC1=CC(Cl)=C(C=C1)OC1C=CC(Cl)=C(Cl)C=1Cl

> <InChI_Code_QSARr>
InChI=1S/C12H5Cl5O/c13-6-1-3-9(8(15)5-6)18-10-4-2-7(14)11(16)12(10)17/h1-5H

> <InChI Key_QSARr>
RSBUDFTVQYJNHK-UHFFFAOYSA-N

> <Salt_Solvent>


> <Salt_Solvent_ID>
0

> <MPID>
319806

> <HL Reference>


> <HL Temperature>


> <LogHL>
-3.725821360540671

> <Tr_1_Tst_0>


$$$$
101872
  Mrv171c012241914302D          

 18 19  0  0  0  0            999 V2000
    6.7477    2.0625    0.0000 C   0  0  0  0  0  0  0  0  0  0  0  0
    6.0332    2.4750    0.0000 C   0  0  0  0  0  0  0  0  0  0  0  0
    6.0332    3.3000    0.0000 Cl  0  0  0  0  0  0  0  0  0  0  0  0
    5.3188    2.0625    0.0000 C   0  0  0  0  0  0  0  0  0  0  0  0
    5.3188    1.2375    0.0000 C   0  0  0  0  0  0  0  0  0  0  0  0
    4.6043    0.8250    0.0000 O   0  0  0  0  0  0  0  0  0  0  0  0
    4.6043    0.0000    0.0000 C   0  0  0  0  0  0  0  0  0  0  0  0
    3.8898   -0.4125    0.0000 C   0  0  0  0  0  0  0  0  0  0  0  0
    3.1754    0.0000    0.0000 Cl  0  0  0  0  0  0  0  0  0  0  0  0
    3.8898   -1.2375    0.0000 C   0  0  0  0  0  0  0  0  0  0  0  0
    3.1754   -1.6500    0.0000 Cl  0  0  0  0  0  0  0  0  0  0  0  0
    4.6043   -1.6500    0.0000 C   0  0  0  0  0  0  0  0  0  0  0  0
    4.6043   -2.4750    0.0000 Cl  0  0  0  0  0  0  0  0  0  0  0  0
    5.3188   -1.2375    0.0000 C   0  0  0  0  0  0  0  0  0  0  0  0
    5.3188   -0.4125    0.0000 C   0  0  0  0  0  0  0  0  0  0  0  0
    6.0332    0.8250    0.0000 C   0  0  0  0  0  0  0  0  0  0  0  0
    6.0332   -0.0000    0.0000 Cl  0  0  0  0  0  0  0  0  0  0  0  0
    6.7477    1.2375    0.0000 C   0  0  0  0  0  0  0  0  0  0  0  0
  2  1  1  0  0  0  0
  2  3  1  0  0  0  0
  4  2  2  0  0  0  0
  5  4  1  0  0  0  0
  5  6  1  0  0  0  0
  6  7  1  0  0  0  0
  8  7  2  0  0  0  0
  8  9  1  0  0  0  0
 10  8  1  0  0  0  0
 10 11  1  0  0  0  0
 12 10  2  0  0  0  0
 12 13  1  0  0  0  0
 14 12  1  0  0  0  0
 15 14  2  0  0  0  0
  7 15  1  0  0  0  0
 16  5  2  0  0  0  0
 16 17  1  0  0  0  0
 18 16  1  0  0  0  0
  1 18  2  0  0  0  0
M  END
> <ChemID>
101872

> <CAS>
160282-09-7

> <Original_SMILES>
Clc1cc(Oc2ccc(Cl)c(Cl)c2Cl)c(Cl)cc1

> <preferred_name>
2,2',3,4,5'-Pentachlorodiphenylether

> <dsstox_substance_id>
DTXSID60877018

> <dsstox_compound_id>
DTXCID301015102

> <qc_level>


> <Canonical_QSARr>
ClC1=CC(OC2C=CC(Cl)=C(Cl)C=2Cl)=C(Cl)C=C1

> <InChI_Code_QSARr>
InChI=1S/C12H5Cl5O/c13-6-1-2-7(14)10(5-6)18-9-4-3-8(15)11(16)12(9)17/h1-5H

> <InChI Key_QSARr>
SCLCXTQIVCULDR-UHFFFAOYSA-N

> <Salt_Solvent>


> <Salt_Solvent_ID>
0

> <MPID>
319810

> <HL Reference>


> <HL Temperature>


> <LogHL>
-3.345705030320941

> <Tr_1_Tst_0>


$$$$
101873
  Mrv171c012241914302D          

 18 19  0  0  0  0            999 V2000
    2.8579   -2.4750    0.0000 C   0  0  0  0  0  0  0  0  0  0  0  0
    2.8579   -1.6500    0.0000 C   0  0  0  0  0  0  0  0  0  0  0  0
    2.1434   -1.2375    0.0000 C   0  0  0  0  0  0  0  0  0  0  0  0
    2.1434   -0.4125    0.0000 Cl  0  0  0  0  0  0  0  0  0  0  0  0
    1.4289   -1.6500    0.0000 C   0  0  0  0  0  0  0  0  0  0  0  0
    0.7145   -1.2375    0.0000 O   0  0  0  0  0  0  0  0  0  0  0  0
    0.0000   -1.6500    0.0000 C   0  0  0  0  0  0  0  0  0  0  0  0
   -0.7145   -1.2375    0.0000 C   0  0  0  0  0  0  0  0  0  0  0  0
   -0.7145   -0.4125    0.0000 Cl  0  0  0  0  0  0  0  0  0  0  0  0
   -1.4289   -1.6500    0.0000 C   0  0  0  0  0  0  0  0  0  0  0  0
   -2.1434   -1.2375    0.0000 Cl  0  0  0  0  0  0  0  0  0  0  0  0
   -1.4289   -2.4750    0.0000 C   0  0  0  0  0  0  0  0  0  0  0  0
   -2.1434   -2.8875    0.0000 Cl  0  0  0  0  0  0  0  0  0  0  0  0
   -0.7145   -2.8875    0.0000 C   0  0  0  0  0  0  0  0  0  0  0  0
    0.0000   -2.4750    0.0000 C   0  0  0  0  0  0  0  0  0  0  0  0
    1.4289   -2.4750    0.0000 C   0  0  0  0  0  0  0  0  0  0  0  0
    0.7145   -2.8875    0.0000 Cl  0  0  0  0  0  0  0  0  0  0  0  0
    2.1434   -2.8875    0.0000 C   0  0  0  0  0  0  0  0  0  0  0  0
  2  1  1  0  0  0  0
  3  2  2  0  0  0  0
  3  4  1  0  0  0  0
  5  3  1  0  0  0  0
  5  6  1  0  0  0  0
  6  7  1  0  0  0  0
  8  7  2  0  0  0  0
  8  9  1  0  0  0  0
 10  8  1  0  0  0  0
 10 11  1  0  0  0  0
 12 10  2  0  0  0  0
 12 13  1  0  0  0  0
 14 12  1  0  0  0  0
 15 14  2  0  0  0  0
  7 15  1  0  0  0  0
 16  5  2  0  0  0  0
 16 17  1  0  0  0  0
 18 16  1  0  0  0  0
  1 18  2  0  0  0  0
M  END
> <ChemID>
101873

> <CAS>
85918-35-0

> <Original_SMILES>
Clc1c(Cl)c(ccc1Cl)Oc1c(Cl)cccc1Cl

> <preferred_name>
2,2',3,4,6'-Pentachlorodiphenylether

> <dsstox_substance_id>
DTXSID10877028

> <dsstox_compound_id>
DTXCID901015112

> <qc_level>


> <Canonical_QSARr>
ClC1C=CC(OC2C(Cl)=CC=CC=2Cl)=C(Cl)C=1Cl

> <InChI_Code_QSARr>
InChI=1S/C12H5Cl5O/c13-6-4-5-9(11(17)10(6)16)18-12-7(14)2-1-3-8(12)15/h1-5H

> <InChI Key_QSARr>
JGXAONSRHOSPTJ-UHFFFAOYSA-N

> <Salt_Solvent>


> <Salt_Solvent_ID>
0

> <MPID>
319814

> <HL Reference>


> <HL Temperature>


> <LogHL>
-3.815666370811928

> <Tr_1_Tst_0>


$$$$
101874
  Mrv171c012241914302D          

 18 19  0  0  0  0            999 V2000
    2.8579    3.5750    0.0000 C   0  0  0  0  0  0  0  0  0  0  0  0
    2.1434    3.9875    0.0000 C   0  0  0  0  0  0  0  0  0  0  0  0
    2.1434    4.8125    0.0000 Cl  0  0  0  0  0  0  0  0  0  0  0  0
    1.4290    3.5750    0.0000 C   0  0  0  0  0  0  0  0  0  0  0  0
    1.4290    2.7500    0.0000 C   0  0  0  0  0  0  0  0  0  0  0  0
    0.7145    2.3375    0.0000 Cl  0  0  0  0  0  0  0  0  0  0  0  0
    2.1434    2.3375    0.0000 C   0  0  0  0  0  0  0  0  0  0  0  0
    2.1434    1.5125    0.0000 O   0  0  0  0  0  0  0  0  0  0  0  0
    2.8579    1.1000    0.0000 C   0  0  0  0  0  0  0  0  0  0  0  0
    2.8579    0.2750    0.0000 C   0  0  0  0  0  0  0  0  0  0  0  0
    2.1434   -0.1375    0.0000 Cl  0  0  0  0  0  0  0  0  0  0  0  0
    3.5724   -0.1375    0.0000 C   0  0  0  0  0  0  0  0  0  0  0  0
    3.5724   -0.9625    0.0000 Cl  0  0  0  0  0  0  0  0  0  0  0  0
    4.2868    0.2750    0.0000 C   0  0  0  0  0  0  0  0  0  0  0  0
    4.2868    1.1000    0.0000 C   0  0  0  0  0  0  0  0  0  0  0  0
    5.0013    1.5125    0.0000 Cl  0  0  0  0  0  0  0  0  0  0  0  0
    3.5724    1.5125    0.0000 C   0  0  0  0  0  0  0  0  0  0  0  0
    2.8579    2.7500    0.0000 C   0  0  0  0  0  0  0  0  0  0  0  0
  2  1  1  0  0  0  0
  2  3  1  0  0  0  0
  4  2  2  0  0  0  0
  5  4  1  0  0  0  0
  5  6  1  0  0  0  0
  7  5  2  0  0  0  0
  7  8  1  0  0  0  0
  8  9  1  0  0  0  0
 10  9  1  0  0  0  0
 10 11  1  0  0  0  0
 12 10  2  0  0  0  0
 12 13  1  0  0  0  0
 14 12  1  0  0  0  0
 15 14  2  0  0  0  0
 15 16  1  0  0  0  0
 17 15  1  0  0  0  0
  9 17  2  0  0  0  0
 18  7  1  0  0  0  0
  1 18  2  0  0  0  0
M  END
> <ChemID>
101874

> <CAS>
157683-73-3

> <Original_SMILES>
Clc1cc(Cl)c(cc1)Oc1cc(Cl)cc(Cl)c1Cl

> <preferred_name>
2,2',3,4',5-Pentachlorodiphenylether

> <dsstox_substance_id>
DTXSID40877016

> <dsstox_compound_id>
DTXCID901015100

> <qc_level>


> <Canonical_QSARr>
ClC1C=C(Cl)C=C(OC2C=CC(Cl)=CC=2Cl)C=1Cl

> <InChI_Code_QSARr>
InChI=1S/C12H5Cl5O/c13-6-1-2-10(8(15)3-6)18-11-5-7(14)4-9(16)12(11)17/h1-5H

> <InChI Key_QSARr>
QPEBRZQSEUOWPA-UHFFFAOYSA-N

> <Salt_Solvent>


> <Salt_Solvent_ID>
0

> <MPID>
319818

> <HL Reference>


> <HL Temperature>


> <LogHL>
-3.195686066796907

> <Tr_1_Tst_0>


$$$$
101875
  Mrv171c012241914302D          

 18 19  0  0  0  0            999 V2000
   -0.0000    3.3000    0.0000 C   0  0  0  0  0  0  0  0  0  0  0  0
   -0.7145    3.7125    0.0000 C   0  0  0  0  0  0  0  0  0  0  0  0
   -0.7145    4.5375    0.0000 Cl  0  0  0  0  0  0  0  0  0  0  0  0
   -1.4289    3.3000    0.0000 C   0  0  0  0  0  0  0  0  0  0  0  0
   -1.4289    2.4750    0.0000 C   0  0  0  0  0  0  0  0  0  0  0  0
   -2.1434    2.0625    0.0000 Cl  0  0  0  0  0  0  0  0  0  0  0  0
   -0.7145    2.0625    0.0000 C   0  0  0  0  0  0  0  0  0  0  0  0
   -0.7145    1.2375    0.0000 O   0  0  0  0  0  0  0  0  0  0  0  0
   -0.0000    0.8250    0.0000 C   0  0  0  0  0  0  0  0  0  0  0  0
   -0.0000    0.0000    0.0000 C   0  0  0  0  0  0  0  0  0  0  0  0
   -0.7145   -0.4125    0.0000 Cl  0  0  0  0  0  0  0  0  0  0  0  0
    0.7145   -0.4125    0.0000 C   0  0  0  0  0  0  0  0  0  0  0  0
    0.7145   -1.2375    0.0000 Cl  0  0  0  0  0  0  0  0  0  0  0  0
    1.4289    0.0000    0.0000 C   0  0  0  0  0  0  0  0  0  0  0  0
    1.4289    0.8250    0.0000 C   0  0  0  0  0  0  0  0  0  0  0  0
    0.7145    1.2375    0.0000 C   0  0  0  0  0  0  0  0  0  0  0  0
    0.7145    2.0625    0.0000 Cl  0  0  0  0  0  0  0  0  0  0  0  0
   -0.0000    2.4750    0.0000 C   0  0  0  0  0  0  0  0  0  0  0  0
  2  1  1  0  0  0  0
  2  3  1  0  0  0  0
  4  2  2  0  0  0  0
  5  4  1  0  0  0  0
  5  6  1  0  0  0  0
  7  5  2  0  0  0  0
  7  8  1  0  0  0  0
  8  9  1  0  0  0  0
 10  9  1  0  0  0  0
 10 11  1  0  0  0  0
 12 10  2  0  0  0  0
 12 13  1  0  0  0  0
 14 12  1  0  0  0  0
 15 14  2  0  0  0  0
 16 15  1  0  0  0  0
  9 16  2  0  0  0  0
 16 17  1  0  0  0  0
 18  7  1  0  0  0  0
  1 18  2  0  0  0  0
M  END
> <ChemID>
101875

> <CAS>
116995-20-1

> <Original_SMILES>
Clc1cc(Cl)c(cc1)Oc1c(Cl)c(Cl)ccc1Cl

> <preferred_name>
2,2',3,4',6-Pentachlorodiphenylether

> <dsstox_substance_id>
DTXSID50877022

> <dsstox_compound_id>
DTXCID101015106

> <qc_level>


> <Canonical_QSARr>
ClC1=CC(Cl)=C(C=C1)OC1C(Cl)=C(Cl)C=CC=1Cl

> <InChI_Code_QSARr>
InChI=1S/C12H5Cl5O/c13-6-1-4-10(9(16)5-6)18-12-8(15)3-2-7(14)11(12)17/h1-5H

> <InChI Key_QSARr>
BRNKJDZWZYZVNM-UHFFFAOYSA-N

> <Salt_Solvent>


> <Salt_Solvent_ID>
0

> <MPID>
319822

> <HL Reference>


> <HL Temperature>


> <LogHL>
-3.595783967736053

> <Tr_1_Tst_0>


$$$$
101876
  Mrv171c012241914302D          

 18 19  0  0  0  0            999 V2000
    0.2382   -0.1375    0.0000 C   0  0  0  0  0  0  0  0  0  0  0  0
    0.2382    0.6875    0.0000 C   0  0  0  0  0  0  0  0  0  0  0  0
   -0.4763    1.1000    0.0000 C   0  0  0  0  0  0  0  0  0  0  0  0
   -0.4763    1.9250    0.0000 O   0  0  0  0  0  0  0  0  0  0  0  0
    0.2382    2.3375    0.0000 C   0  0  0  0  0  0  0  0  0  0  0  0
    0.9526    1.9250    0.0000 C   0  0  0  0  0  0  0  0  0  0  0  0
    0.9526    1.1000    0.0000 Cl  0  0  0  0  0  0  0  0  0  0  0  0
    1.6671    2.3375    0.0000 C   0  0  0  0  0  0  0  0  0  0  0  0
    1.6671    3.1625    0.0000 C   0  0  0  0  0  0  0  0  0  0  0  0
    2.3816    3.5750    0.0000 Cl  0  0  0  0  0  0  0  0  0  0  0  0
    0.9526    3.5750    0.0000 C   0  0  0  0  0  0  0  0  0  0  0  0
    0.9526    4.4000    0.0000 Cl  0  0  0  0  0  0  0  0  0  0  0  0
    0.2382    3.1625    0.0000 C   0  0  0  0  0  0  0  0  0  0  0  0
   -1.1908    0.6875    0.0000 C   0  0  0  0  0  0  0  0  0  0  0  0
   -1.9053    1.1000    0.0000 Cl  0  0  0  0  0  0  0  0  0  0  0  0
   -1.1908   -0.1375    0.0000 C   0  0  0  0  0  0  0  0  0  0  0  0
   -1.9053   -0.5500    0.0000 Cl  0  0  0  0  0  0  0  0  0  0  0  0
   -0.4763   -0.5500    0.0000 C   0  0  0  0  0  0  0  0  0  0  0  0
  2  1  1  0  0  0  0
  3  2  2  0  0  0  0
  3  4  1  0  0  0  0
  4  5  1  0  0  0  0
  6  5  2  0  0  0  0
  6  7  1  0  0  0  0
  8  6  1  0  0  0  0
  9  8  2  0  0  0  0
  9 10  1  0  0  0  0
 11  9  1  0  0  0  0
 11 12  1  0  0  0  0
 13 11  2  0  0  0  0
  5 13  1  0  0  0  0
 14  3  1  0  0  0  0
 14 15  1  0  0  0  0
 16 14  2  0  0  0  0
 16 17  1  0  0  0  0
 18 16  1  0  0  0  0
  1 18  2  0  0  0  0
M  END
> <ChemID>
101876

> <CAS>
160282-08-6

> <Original_SMILES>
Clc1cc(Cl)c(Cl)cc1Oc1cccc(Cl)c1Cl

> <preferred_name>
2,2',3',4,5-Pentachlorodiphenylether

> <dsstox_substance_id>
DTXSID70877024

> <dsstox_compound_id>
DTXCID501015108

> <qc_level>


> <Canonical_QSARr>
ClC1C=CC=C(OC2C=C(Cl)C(Cl)=CC=2Cl)C=1Cl

> <InChI_Code_QSARr>
InChI=1S/C12H5Cl5O/c13-6-2-1-3-10(12(6)17)18-11-5-8(15)7(14)4-9(11)16/h1-5H

> <InChI Key_QSARr>
ABYZYVAIOYICJQ-UHFFFAOYSA-N

> <Salt_Solvent>


> <Salt_Solvent_ID>
0

> <MPID>
319826

> <HL Reference>


> <HL Temperature>


> <LogHL>
-3.5257094167173975

> <Tr_1_Tst_0>


$$$$
101877
  Mrv171c012241914302D          

 18 19  0  0  0  0            999 V2000
    0.1576   -0.8217    0.0000 C   0  0  0  0  0  0  0  0  0  0  0  0
   -0.5569   -0.4092    0.0000 C   0  0  0  0  0  0  0  0  0  0  0  0
   -0.5569    0.4158    0.0000 Cl  0  0  0  0  0  0  0  0  0  0  0  0
   -1.2713   -0.8217    0.0000 C   0  0  0  0  0  0  0  0  0  0  0  0
   -1.2713   -1.6467    0.0000 C   0  0  0  0  0  0  0  0  0  0  0  0
   -1.9858   -2.0592    0.0000 Cl  0  0  0  0  0  0  0  0  0  0  0  0
   -0.5569   -2.0592    0.0000 C   0  0  0  0  0  0  0  0  0  0  0  0
   -0.5569   -2.8842    0.0000 Cl  0  0  0  0  0  0  0  0  0  0  0  0
    0.1576   -1.6467    0.0000 C   0  0  0  0  0  0  0  0  0  0  0  0
    0.8721   -0.4092    0.0000 O   0  0  0  0  0  0  0  0  0  0  0  0
    0.8721    0.4158    0.0000 C   0  0  0  0  0  0  0  0  0  0  0  0
    1.5865    0.8283    0.0000 C   0  0  0  0  0  0  0  0  0  0  0  0
    2.3010    0.4158    0.0000 Cl  0  0  0  0  0  0  0  0  0  0  0  0
    1.5865    1.6533    0.0000 C   0  0  0  0  0  0  0  0  0  0  0  0
    0.8721    2.0658    0.0000 C   0  0  0  0  0  0  0  0  0  0  0  0
    0.8721    2.8908    0.0000 Cl  0  0  0  0  0  0  0  0  0  0  0  0
    0.1576    1.6533    0.0000 C   0  0  0  0  0  0  0  0  0  0  0  0
    0.1576    0.8283    0.0000 C   0  0  0  0  0  0  0  0  0  0  0  0
  2  1  2  0  0  0  0
  2  3  1  0  0  0  0
  4  2  1  0  0  0  0
  5  4  2  0  0  0  0
  5  6  1  0  0  0  0
  7  5  1  0  0  0  0
  7  8  1  0  0  0  0
  9  7  2  0  0  0  0
  1  9  1  0  0  0  0
  1 10  1  0  0  0  0
 10 11  1  0  0  0  0
 12 11  2  0  0  0  0
 12 13  1  0  0  0  0
 14 12  1  0  0  0  0
 15 14  2  0  0  0  0
 15 16  1  0  0  0  0
 17 15  1  0  0  0  0
 18 17  2  0  0  0  0
 11 18  1  0  0  0  0
M  END
> <ChemID>
101877

> <CAS>
NOCAS_892471

> <Original_SMILES>
Clc1cc(Cl)c(cc1)Oc1cc(Cl)c(Cl)cc1Cl

> <preferred_name>
2,2',4,4',5-pentachlorodiphenyl ether

> <dsstox_substance_id>
DTXSID90892471

> <dsstox_compound_id>
DTXCID801079650

> <qc_level>


> <Canonical_QSARr>
ClC1=CC(Cl)=C(C=C1)OC1C=C(Cl)C(Cl)=CC=1Cl

> <InChI_Code_QSARr>
InChI=1S/C12H5Cl5O/c13-6-1-2-11(9(16)3-6)18-12-5-8(15)7(14)4-10(12)17/h1-5H

> <InChI Key_QSARr>
AVURWLKSFZBANQ-UHFFFAOYSA-N

> <Salt_Solvent>


> <Salt_Solvent_ID>
0

> <MPID>
319830

> <HL Reference>


> <HL Temperature>


> <LogHL>
-3.2657491839763724

> <Tr_1_Tst_0>


$$$$
101878
  Mrv171c012241914302D          

 18 19  0  0  0  0            999 V2000
    5.7781    0.9167    0.0000 Cl  0  0  0  0  0  0  0  0  0  0  0  0
    5.0637    1.3292    0.0000 C   0  0  0  0  0  0  0  0  0  0  0  0
    5.0637    2.1542    0.0000 C   0  0  0  0  0  0  0  0  0  0  0  0
    4.3492    2.5667    0.0000 C   0  0  0  0  0  0  0  0  0  0  0  0
    4.3492    3.3917    0.0000 Cl  0  0  0  0  0  0  0  0  0  0  0  0
    3.6347    2.1542    0.0000 C   0  0  0  0  0  0  0  0  0  0  0  0
    3.6347    1.3292    0.0000 C   0  0  0  0  0  0  0  0  0  0  0  0
    2.9203    0.9167    0.0000 Cl  0  0  0  0  0  0  0  0  0  0  0  0
    4.3492    0.9167    0.0000 C   0  0  0  0  0  0  0  0  0  0  0  0
    4.3492    0.0917    0.0000 O   0  0  0  0  0  0  0  0  0  0  0  0
    3.6347   -0.3208    0.0000 C   0  0  0  0  0  0  0  0  0  0  0  0
    2.9203    0.0917    0.0000 C   0  0  0  0  0  0  0  0  0  0  0  0
    2.2058   -0.3208    0.0000 C   0  0  0  0  0  0  0  0  0  0  0  0
    2.2058   -1.1458    0.0000 C   0  0  0  0  0  0  0  0  0  0  0  0
    1.4913   -1.5583    0.0000 Cl  0  0  0  0  0  0  0  0  0  0  0  0
    2.9203   -1.5583    0.0000 C   0  0  0  0  0  0  0  0  0  0  0  0
    3.6347   -1.1458    0.0000 C   0  0  0  0  0  0  0  0  0  0  0  0
    4.3492   -1.5583    0.0000 Cl  0  0  0  0  0  0  0  0  0  0  0  0
  1  2  1  0  0  0  0
  3  2  1  0  0  0  0
  4  3  2  0  0  0  0
  4  5  1  0  0  0  0
  6  4  1  0  0  0  0
  7  6  2  0  0  0  0
  7  8  1  0  0  0  0
  9  7  1  0  0  0  0
  2  9  2  0  0  0  0
  9 10  1  0  0  0  0
 10 11  1  0  0  0  0
 12 11  1  0  0  0  0
 13 12  2  0  0  0  0
 14 13  1  0  0  0  0
 14 15  1  0  0  0  0
 16 14  2  0  0  0  0
 17 16  1  0  0  0  0
 11 17  2  0  0  0  0
 17 18  1  0  0  0  0
M  END
> <ChemID>
101878

> <CAS>
104294-16-8

> <Original_SMILES>
Clc1cc(Cl)c(Oc2ccc(Cl)cc2Cl)c(Cl)c1

> <preferred_name>
2,2',4,4',6-Pentachlorodiphenyl ether

> <dsstox_substance_id>
DTXSID00146376

> <dsstox_compound_id>
DTXCID5068867

> <qc_level>


> <Canonical_QSARr>
ClC1C=C(Cl)C=C(Cl)C=1OC1C=CC(Cl)=CC=1Cl

> <InChI_Code_QSARr>
InChI=1S/C12H5Cl5O/c13-6-1-2-11(8(15)3-6)18-12-9(16)4-7(14)5-10(12)17/h1-5H

> <InChI Key_QSARr>
FONWDRSQXQZNBN-UHFFFAOYSA-N

> <Salt_Solvent>


> <Salt_Solvent_ID>
0

> <MPID>
319834

> <HL Reference>


> <HL Temperature>


> <LogHL>
-3.3357492536481255

> <Tr_1_Tst_0>


$$$$
101879
  Mrv171c012241914302D          

 18 19  0  0  0  0            999 V2000
    1.6500    0.1375    0.0000 Cl  0  0  0  0  0  0  0  0  0  0  0  0
    2.3645    0.5500    0.0000 C   0  0  0  0  0  0  0  0  0  0  0  0
    2.3645    1.3750    0.0000 C   0  0  0  0  0  0  0  0  0  0  0  0
    3.0790    1.7875    0.0000 C   0  0  0  0  0  0  0  0  0  0  0  0
    3.0790    2.6125    0.0000 Cl  0  0  0  0  0  0  0  0  0  0  0  0
    3.7934    1.3750    0.0000 C   0  0  0  0  0  0  0  0  0  0  0  0
    4.5079    1.7875    0.0000 Cl  0  0  0  0  0  0  0  0  0  0  0  0
    3.7934    0.5500    0.0000 C   0  0  0  0  0  0  0  0  0  0  0  0
    3.0790    0.1375    0.0000 C   0  0  0  0  0  0  0  0  0  0  0  0
    3.0790   -0.6875    0.0000 O   0  0  0  0  0  0  0  0  0  0  0  0
    3.7934   -1.1000    0.0000 C   0  0  0  0  0  0  0  0  0  0  0  0
    3.7934   -1.9250    0.0000 C   0  0  0  0  0  0  0  0  0  0  0  0
    4.5079   -2.3375    0.0000 C   0  0  0  0  0  0  0  0  0  0  0  0
    4.5079   -3.1625    0.0000 Cl  0  0  0  0  0  0  0  0  0  0  0  0
    5.2224   -1.9250    0.0000 C   0  0  0  0  0  0  0  0  0  0  0  0
    5.2224   -1.1000    0.0000 C   0  0  0  0  0  0  0  0  0  0  0  0
    4.5079   -0.6875    0.0000 C   0  0  0  0  0  0  0  0  0  0  0  0
    4.5079    0.1375    0.0000 Cl  0  0  0  0  0  0  0  0  0  0  0  0
  1  2  1  0  0  0  0
  3  2  2  0  0  0  0
  4  3  1  0  0  0  0
  4  5  1  0  0  0  0
  6  4  2  0  0  0  0
  6  7  1  0  0  0  0
  8  6  1  0  0  0  0
  9  8  2  0  0  0  0
  2  9  1  0  0  0  0
  9 10  1  0  0  0  0
 10 11  1  0  0  0  0
 12 11  1  0  0  0  0
 13 12  2  0  0  0  0
 13 14  1  0  0  0  0
 15 13  1  0  0  0  0
 16 15  2  0  0  0  0
 17 16  1  0  0  0  0
 11 17  2  0  0  0  0
 17 18  1  0  0  0  0
M  END
> <ChemID>
101879

> <CAS>
131138-21-1

> <Original_SMILES>
Clc1cc(Oc2cc(Cl)c(Cl)cc2Cl)c(Cl)cc1

> <preferred_name>
2,2',4,5,5'-Pentachlorodiphenyl ether

> <dsstox_substance_id>
DTXSID00156910

> <dsstox_compound_id>
DTXCID2079401

> <qc_level>


> <Canonical_QSARr>
ClC1C=C(OC2C=C(Cl)C=CC=2Cl)C(Cl)=CC=1Cl

> <InChI_Code_QSARr>
InChI=1S/C12H5Cl5O/c13-6-1-2-7(14)11(3-6)18-12-5-9(16)8(15)4-10(12)17/h1-5H

> <InChI Key_QSARr>
MKIAKZAWONVRFF-UHFFFAOYSA-N

> <Salt_Solvent>


> <Salt_Solvent_ID>
0

> <MPID>
319838

> <HL Reference>


> <HL Temperature>


> <LogHL>
-3.205686961173761

> <Tr_1_Tst_0>


$$$$
101880
  Mrv171c012241914302D          

 18 19  0  0  0  0            999 V2000
    1.6500    0.4583    0.0000 Cl  0  0  0  0  0  0  0  0  0  0  0  0
    2.3645    0.8708    0.0000 C   0  0  0  0  0  0  0  0  0  0  0  0
    2.3645    1.6958    0.0000 C   0  0  0  0  0  0  0  0  0  0  0  0
    3.0790    2.1083    0.0000 C   0  0  0  0  0  0  0  0  0  0  0  0
    3.0790    2.9333    0.0000 Cl  0  0  0  0  0  0  0  0  0  0  0  0
    3.7934    1.6958    0.0000 C   0  0  0  0  0  0  0  0  0  0  0  0
    4.5079    2.1083    0.0000 Cl  0  0  0  0  0  0  0  0  0  0  0  0
    3.7934    0.8708    0.0000 C   0  0  0  0  0  0  0  0  0  0  0  0
    3.0790    0.4583    0.0000 C   0  0  0  0  0  0  0  0  0  0  0  0
    3.0790   -0.3667    0.0000 O   0  0  0  0  0  0  0  0  0  0  0  0
    3.7934   -0.7792    0.0000 C   0  0  0  0  0  0  0  0  0  0  0  0
    3.7934   -1.6042    0.0000 C   0  0  0  0  0  0  0  0  0  0  0  0
    3.0790   -2.0167    0.0000 Cl  0  0  0  0  0  0  0  0  0  0  0  0
    4.5079   -2.0167    0.0000 C   0  0  0  0  0  0  0  0  0  0  0  0
    5.2224   -1.6042    0.0000 C   0  0  0  0  0  0  0  0  0  0  0  0
    5.2224   -0.7792    0.0000 C   0  0  0  0  0  0  0  0  0  0  0  0
    4.5079   -0.3667    0.0000 C   0  0  0  0  0  0  0  0  0  0  0  0
    4.5079    0.4583    0.0000 Cl  0  0  0  0  0  0  0  0  0  0  0  0
  1  2  1  0  0  0  0
  3  2  2  0  0  0  0
  4  3  1  0  0  0  0
  4  5  1  0  0  0  0
  6  4  2  0  0  0  0
  6  7  1  0  0  0  0
  8  6  1  0  0  0  0
  9  8  2  0  0  0  0
  2  9  1  0  0  0  0
  9 10  1  0  0  0  0
 10 11  1  0  0  0  0
 12 11  1  0  0  0  0
 12 13  1  0  0  0  0
 14 12  2  0  0  0  0
 15 14  1  0  0  0  0
 16 15  2  0  0  0  0
 17 16  1  0  0  0  0
 11 17  2  0  0  0  0
 17 18  1  0  0  0  0
M  END
> <ChemID>
101880

> <CAS>
130892-67-0

> <Original_SMILES>
Clc1cc(Cl)c(Cl)cc1Oc1c(Cl)cccc1Cl

> <preferred_name>
2,2',4,5,6'-Pentachlorodiphenyl ether

> <dsstox_substance_id>
DTXSID10156784

> <dsstox_compound_id>
DTXCID4079275

> <qc_level>


> <Canonical_QSARr>
ClC1=CC(Cl)=C(Cl)C=C1OC1C(Cl)=CC=CC=1Cl

> <InChI_Code_QSARr>
InChI=1S/C12H5Cl5O/c13-6-2-1-3-7(14)12(6)18-11-5-9(16)8(15)4-10(11)17/h1-5H

> <InChI Key_QSARr>
BOJBTUWEQMUWHT-UHFFFAOYSA-N

> <Salt_Solvent>


> <Salt_Solvent_ID>
0

> <MPID>
319842

> <HL Reference>


> <HL Temperature>


> <LogHL>
-3.5756411374096704

> <Tr_1_Tst_0>


$$$$
101881
  Mrv171c012241914302D          

 18 19  0  0  0  0            999 V2000
    3.7141    0.8250    0.0000 Cl  0  0  0  0  0  0  0  0  0  0  0  0
    2.9996    0.4125    0.0000 C   0  0  0  0  0  0  0  0  0  0  0  0
    2.2852    0.8250    0.0000 C   0  0  0  0  0  0  0  0  0  0  0  0
    2.2852    1.6500    0.0000 Cl  0  0  0  0  0  0  0  0  0  0  0  0
    1.5707    0.4125    0.0000 C   0  0  0  0  0  0  0  0  0  0  0  0
    0.8562    0.8250    0.0000 Cl  0  0  0  0  0  0  0  0  0  0  0  0
    1.5707   -0.4125    0.0000 C   0  0  0  0  0  0  0  0  0  0  0  0
    2.2852   -0.8250    0.0000 C   0  0  0  0  0  0  0  0  0  0  0  0
    2.9996   -0.4125    0.0000 C   0  0  0  0  0  0  0  0  0  0  0  0
    3.7141   -0.8250    0.0000 O   0  0  0  0  0  0  0  0  0  0  0  0
    4.4286   -0.4125    0.0000 C   0  0  0  0  0  0  0  0  0  0  0  0
    5.1431   -0.8250    0.0000 C   0  0  0  0  0  0  0  0  0  0  0  0
    5.8575   -0.4125    0.0000 C   0  0  0  0  0  0  0  0  0  0  0  0
    5.8575    0.4125    0.0000 C   0  0  0  0  0  0  0  0  0  0  0  0
    6.5720    0.8250    0.0000 Cl  0  0  0  0  0  0  0  0  0  0  0  0
    5.1431    0.8250    0.0000 C   0  0  0  0  0  0  0  0  0  0  0  0
    5.1431    1.6500    0.0000 Cl  0  0  0  0  0  0  0  0  0  0  0  0
    4.4286    0.4125    0.0000 C   0  0  0  0  0  0  0  0  0  0  0  0
  1  2  1  0  0  0  0
  3  2  1  0  0  0  0
  3  4  1  0  0  0  0
  5  3  2  0  0  0  0
  5  6  1  0  0  0  0
  7  5  1  0  0  0  0
  8  7  2  0  0  0  0
  9  8  1  0  0  0  0
  2  9  2  0  0  0  0
  9 10  1  0  0  0  0
 10 11  1  0  0  0  0
 12 11  1  0  0  0  0
 13 12  2  0  0  0  0
 14 13  1  0  0  0  0
 14 15  1  0  0  0  0
 16 14  2  0  0  0  0
 16 17  1  0  0  0  0
 18 16  1  0  0  0  0
 11 18  2  0  0  0  0
M  END
> <ChemID>
101881

> <CAS>
85918-31-6

> <Original_SMILES>
Clc1c(Cl)c(ccc1Cl)Oc1cc(Cl)c(Cl)cc1

> <preferred_name>
2,3,3',4,4'-Pentachlorodiphenyl ether

> <dsstox_substance_id>
DTXSID90235243

> <dsstox_compound_id>
DTXCID90157734

> <qc_level>


> <Canonical_QSARr>
ClC1C(Cl)=C(C=CC=1Cl)OC1=CC(Cl)=C(Cl)C=C1

> <InChI_Code_QSARr>
InChI=1S/C12H5Cl5O/c13-7-2-1-6(5-9(7)15)18-10-4-3-8(14)11(16)12(10)17/h1-5H

> <InChI Key_QSARr>
PKEGIXYNAGGYPN-UHFFFAOYSA-N

> <Salt_Solvent>


> <Salt_Solvent_ID>
0

> <MPID>
319846

> <HL Reference>


> <HL Temperature>


> <LogHL>
-3.6256861657639132

> <Tr_1_Tst_0>


$$$$
101882
  Mrv171c012241914302D          

 18 19  0  0  0  0            999 V2000
    2.7785    0.8708    0.0000 C   0  0  0  0  0  0  0  0  0  0  0  0
    2.0640    1.2833    0.0000 C   0  0  0  0  0  0  0  0  0  0  0  0
    2.0640    2.1083    0.0000 O   0  0  0  0  0  0  0  0  0  0  0  0
    1.3495    2.5208    0.0000 C   0  0  0  0  0  0  0  0  0  0  0  0
    1.3495    3.3458    0.0000 C   0  0  0  0  0  0  0  0  0  0  0  0
    2.0640    3.7583    0.0000 Cl  0  0  0  0  0  0  0  0  0  0  0  0
    0.6351    3.7583    0.0000 C   0  0  0  0  0  0  0  0  0  0  0  0
    0.6351    4.5833    0.0000 Cl  0  0  0  0  0  0  0  0  0  0  0  0
   -0.0794    3.3458    0.0000 C   0  0  0  0  0  0  0  0  0  0  0  0
   -0.0794    2.5208    0.0000 C   0  0  0  0  0  0  0  0  0  0  0  0
   -0.7939    2.1083    0.0000 Cl  0  0  0  0  0  0  0  0  0  0  0  0
    0.6351    2.1083    0.0000 C   0  0  0  0  0  0  0  0  0  0  0  0
    1.3495    0.8708    0.0000 C   0  0  0  0  0  0  0  0  0  0  0  0
    1.3495    0.0458    0.0000 C   0  0  0  0  0  0  0  0  0  0  0  0
    0.6351   -0.3667    0.0000 Cl  0  0  0  0  0  0  0  0  0  0  0  0
    2.0640   -0.3667    0.0000 C   0  0  0  0  0  0  0  0  0  0  0  0
    2.0640   -1.1917    0.0000 Cl  0  0  0  0  0  0  0  0  0  0  0  0
    2.7785    0.0458    0.0000 C   0  0  0  0  0  0  0  0  0  0  0  0
  2  1  1  0  0  0  0
  2  3  1  0  0  0  0
  3  4  1  0  0  0  0
  5  4  1  0  0  0  0
  5  6  1  0  0  0  0
  7  5  2  0  0  0  0
  7  8  1  0  0  0  0
  9  7  1  0  0  0  0
 10  9  2  0  0  0  0
 10 11  1  0  0  0  0
 12 10  1  0  0  0  0
  4 12  2  0  0  0  0
 13  2  2  0  0  0  0
 14 13  1  0  0  0  0
 14 15  1  0  0  0  0
 16 14  2  0  0  0  0
 16 17  1  0  0  0  0
 18 16  1  0  0  0  0
  1 18  2  0  0  0  0
M  END
> <ChemID>
101882

> <CAS>
159553-68-1

> <Original_SMILES>
Clc1cc(Oc2cc(Cl)c(Cl)cc2)c(Cl)c(Cl)c1

> <preferred_name>
2,3,3',4',5-Pentachlorodiphenylether

> <dsstox_substance_id>
DTXSID90877026

> <dsstox_compound_id>
DTXCID501015110

> <qc_level>


> <Canonical_QSARr>
ClC1C=C(OC2=CC(Cl)=C(Cl)C=C2)C(Cl)=C(Cl)C=1

> <InChI_Code_QSARr>
InChI=1S/C12H5Cl5O/c13-6-3-10(16)12(17)11(4-6)18-7-1-2-8(14)9(15)5-7/h1-5H

> <InChI Key_QSARr>
ZVFHTYGIYIXYOJ-UHFFFAOYSA-N

> <Salt_Solvent>


> <Salt_Solvent_ID>
0

> <MPID>
319850

> <HL Reference>


> <HL Temperature>


> <LogHL>
-3.175705559730073

> <Tr_1_Tst_0>


$$$$
101883
  Mrv171c012241914302D          

 18 19  0  0  0  0            999 V2000
    2.8579    3.1167    0.0000 C   0  0  0  0  0  0  0  0  0  0  0  0
    2.1434    3.5292    0.0000 C   0  0  0  0  0  0  0  0  0  0  0  0
    2.1434    4.3542    0.0000 Cl  0  0  0  0  0  0  0  0  0  0  0  0
    1.4290    3.1167    0.0000 C   0  0  0  0  0  0  0  0  0  0  0  0
    0.7145    3.5292    0.0000 Cl  0  0  0  0  0  0  0  0  0  0  0  0
    1.4290    2.2917    0.0000 C   0  0  0  0  0  0  0  0  0  0  0  0
    0.7145    1.8792    0.0000 Cl  0  0  0  0  0  0  0  0  0  0  0  0
    2.1434    1.8792    0.0000 C   0  0  0  0  0  0  0  0  0  0  0  0
    2.1434    1.0542    0.0000 O   0  0  0  0  0  0  0  0  0  0  0  0
    2.8579    0.6417    0.0000 C   0  0  0  0  0  0  0  0  0  0  0  0
    2.8579   -0.1833    0.0000 C   0  0  0  0  0  0  0  0  0  0  0  0
    3.5724   -0.5958    0.0000 C   0  0  0  0  0  0  0  0  0  0  0  0
    3.5724   -1.4208    0.0000 Cl  0  0  0  0  0  0  0  0  0  0  0  0
    4.2868   -0.1833    0.0000 C   0  0  0  0  0  0  0  0  0  0  0  0
    4.2868    0.6417    0.0000 C   0  0  0  0  0  0  0  0  0  0  0  0
    5.0013    1.0542    0.0000 Cl  0  0  0  0  0  0  0  0  0  0  0  0
    3.5724    1.0542    0.0000 C   0  0  0  0  0  0  0  0  0  0  0  0
    2.8579    2.2917    0.0000 C   0  0  0  0  0  0  0  0  0  0  0  0
  2  1  1  0  0  0  0
  2  3  1  0  0  0  0
  4  2  2  0  0  0  0
  4  5  1  0  0  0  0
  6  4  1  0  0  0  0
  6  7  1  0  0  0  0
  8  6  2  0  0  0  0
  8  9  1  0  0  0  0
  9 10  1  0  0  0  0
 11 10  1  0  0  0  0
 12 11  2  0  0  0  0
 12 13  1  0  0  0  0
 14 12  1  0  0  0  0
 15 14  2  0  0  0  0
 15 16  1  0  0  0  0
 17 15  1  0  0  0  0
 10 17  2  0  0  0  0
 18  8  1  0  0  0  0
  1 18  2  0  0  0  0
M  END
> <ChemID>
101883

> <CAS>
160282-07-5

> <Original_SMILES>
Clc1ccc(Oc2cc(Cl)cc(Cl)c2)c(Cl)c1Cl

> <preferred_name>
2,3,3',4,5'-Pentachlorodiphenylether

> <dsstox_substance_id>
DTXSID50877027

> <dsstox_compound_id>
DTXCID201015111

> <qc_level>


> <Canonical_QSARr>
ClC1C=CC(OC2C=C(Cl)C=C(Cl)C=2)=C(Cl)C=1Cl

> <InChI_Code_QSARr>
InChI=1S/C12H5Cl5O/c13-6-3-7(14)5-8(4-6)18-10-2-1-9(15)11(16)12(10)17/h1-5H

> <InChI Key_QSARr>
HCTKORQPUZCIAO-UHFFFAOYSA-N

> <Salt_Solvent>


> <Salt_Solvent_ID>
0

> <MPID>
319854

> <HL Reference>


> <HL Temperature>


> <LogHL>
-3.145738301018107

> <Tr_1_Tst_0>


$$$$
101884
  Mrv171c012241914302D          

 18 19  0  0  0  0            999 V2000
    3.7141    0.6875    0.0000 Cl  0  0  0  0  0  0  0  0  0  0  0  0
    2.9996    0.2750    0.0000 C   0  0  0  0  0  0  0  0  0  0  0  0
    2.2852    0.6875    0.0000 C   0  0  0  0  0  0  0  0  0  0  0  0
    2.2852    1.5125    0.0000 Cl  0  0  0  0  0  0  0  0  0  0  0  0
    1.5707    0.2750    0.0000 C   0  0  0  0  0  0  0  0  0  0  0  0
    1.5707   -0.5500    0.0000 C   0  0  0  0  0  0  0  0  0  0  0  0
    2.2852   -0.9625    0.0000 C   0  0  0  0  0  0  0  0  0  0  0  0
    2.2852   -1.7875    0.0000 Cl  0  0  0  0  0  0  0  0  0  0  0  0
    2.9996   -0.5500    0.0000 C   0  0  0  0  0  0  0  0  0  0  0  0
    3.7141   -0.9625    0.0000 O   0  0  0  0  0  0  0  0  0  0  0  0
    4.4286   -0.5500    0.0000 C   0  0  0  0  0  0  0  0  0  0  0  0
    5.1431   -0.9625    0.0000 C   0  0  0  0  0  0  0  0  0  0  0  0
    5.8575   -0.5500    0.0000 C   0  0  0  0  0  0  0  0  0  0  0  0
    5.8575    0.2750    0.0000 C   0  0  0  0  0  0  0  0  0  0  0  0
    6.5720    0.6875    0.0000 Cl  0  0  0  0  0  0  0  0  0  0  0  0
    5.1431    0.6875    0.0000 C   0  0  0  0  0  0  0  0  0  0  0  0
    5.1431    1.5125    0.0000 Cl  0  0  0  0  0  0  0  0  0  0  0  0
    4.4286    0.2750    0.0000 C   0  0  0  0  0  0  0  0  0  0  0  0
  1  2  1  0  0  0  0
  3  2  2  0  0  0  0
  3  4  1  0  0  0  0
  5  3  1  0  0  0  0
  6  5  2  0  0  0  0
  7  6  1  0  0  0  0
  7  8  1  0  0  0  0
  9  7  2  0  0  0  0
  2  9  1  0  0  0  0
  9 10  1  0  0  0  0
 10 11  1  0  0  0  0
 12 11  1  0  0  0  0
 13 12  2  0  0  0  0
 14 13  1  0  0  0  0
 14 15  1  0  0  0  0
 16 14  2  0  0  0  0
 16 17  1  0  0  0  0
 18 16  1  0  0  0  0
 11 18  2  0  0  0  0
M  END
> <ChemID>
101884

> <CAS>
159553-69-2

> <Original_SMILES>
Clc1c(Oc2cc(Cl)c(Cl)cc2)c(Cl)ccc1Cl

> <preferred_name>
2,3,3',4',6-Pentachlorodiphenyl ether

> <dsstox_substance_id>
DTXSID70166682

> <dsstox_compound_id>
DTXCID2089173

> <qc_level>


> <Canonical_QSARr>
ClC1C(OC2=CC(Cl)=C(Cl)C=C2)=C(Cl)C=CC=1Cl

> <InChI_Code_QSARr>
InChI=1S/C12H5Cl5O/c13-7-2-1-6(5-10(7)16)18-12-9(15)4-3-8(14)11(12)17/h1-5H

> <InChI Key_QSARr>
KASGFDPQAMDPAZ-UHFFFAOYSA-N

> <Salt_Solvent>


> <Salt_Solvent_ID>
0

> <MPID>
319858

> <HL Reference>


> <HL Temperature>


> <LogHL>
-3.5657521454522394

> <Tr_1_Tst_0>


$$$$
101885
  Mrv171c012241914302D          

 18 19  0  0  0  0            999 V2000
    3.8729    0.8250    0.0000 Cl  0  0  0  0  0  0  0  0  0  0  0  0
    3.1584    0.4125    0.0000 C   0  0  0  0  0  0  0  0  0  0  0  0
    2.4439    0.8250    0.0000 C   0  0  0  0  0  0  0  0  0  0  0  0
    2.4439    1.6500    0.0000 Cl  0  0  0  0  0  0  0  0  0  0  0  0
    1.7295    0.4125    0.0000 C   0  0  0  0  0  0  0  0  0  0  0  0
    1.0150    0.8250    0.0000 Cl  0  0  0  0  0  0  0  0  0  0  0  0
    1.7295   -0.4125    0.0000 C   0  0  0  0  0  0  0  0  0  0  0  0
    1.0150   -0.8250    0.0000 Cl  0  0  0  0  0  0  0  0  0  0  0  0
    2.4439   -0.8250    0.0000 C   0  0  0  0  0  0  0  0  0  0  0  0
    3.1584   -0.4125    0.0000 C   0  0  0  0  0  0  0  0  0  0  0  0
    3.8729   -0.8250    0.0000 O   0  0  0  0  0  0  0  0  0  0  0  0
    4.5874   -0.4125    0.0000 C   0  0  0  0  0  0  0  0  0  0  0  0
    5.3018   -0.8250    0.0000 C   0  0  0  0  0  0  0  0  0  0  0  0
    6.0163   -0.4125    0.0000 C   0  0  0  0  0  0  0  0  0  0  0  0
    6.0163    0.4125    0.0000 C   0  0  0  0  0  0  0  0  0  0  0  0
    6.7308    0.8250    0.0000 Cl  0  0  0  0  0  0  0  0  0  0  0  0
    5.3018    0.8250    0.0000 C   0  0  0  0  0  0  0  0  0  0  0  0
    4.5874    0.4125    0.0000 C   0  0  0  0  0  0  0  0  0  0  0  0
  1  2  1  0  0  0  0
  3  2  2  0  0  0  0
  3  4  1  0  0  0  0
  5  3  1  0  0  0  0
  5  6  1  0  0  0  0
  7  5  2  0  0  0  0
  7  8  1  0  0  0  0
  9  7  1  0  0  0  0
 10  9  2  0  0  0  0
  2 10  1  0  0  0  0
 10 11  1  0  0  0  0
 11 12  1  0  0  0  0
 13 12  1  0  0  0  0
 14 13  2  0  0  0  0
 15 14  1  0  0  0  0
 15 16  1  0  0  0  0
 17 15  2  0  0  0  0
 18 17  1  0  0  0  0
 12 18  2  0  0  0  0
M  END
> <ChemID>
101885

> <CAS>
113464-17-8

> <Original_SMILES>
Clc1ccc(cc1)Oc1cc(Cl)c(Cl)c(Cl)c1Cl

> <preferred_name>
2,3,4,4',5-pentachlorodiphenyl ether

> <dsstox_substance_id>
DTXSID80150416

> <dsstox_compound_id>
DTXCID3072907

> <qc_level>


> <Canonical_QSARr>
ClC1C=CC(=CC=1)OC1=CC(Cl)=C(Cl)C(Cl)=C1Cl

> <InChI_Code_QSARr>
InChI=1S/C12H5Cl5O/c13-6-1-3-7(4-2-6)18-9-5-8(14)10(15)12(17)11(9)16/h1-5H

> <InChI Key_QSARr>
WSTVMACYLXUQIM-UHFFFAOYSA-N

> <Salt_Solvent>


> <Salt_Solvent_ID>
0

> <MPID>
319862

> <HL Reference>


> <HL Temperature>


> <LogHL>
-3.095839711316292

> <Tr_1_Tst_0>


$$$$
101886
  Mrv171c012241914302D          

 18 19  0  0  0  0            999 V2000
    1.1908    6.0958    0.0000 C   0  0  0  0  0  0  0  0  0  0  0  0
    0.4763    6.5083    0.0000 C   0  0  0  0  0  0  0  0  0  0  0  0
    0.4763    7.3333    0.0000 Cl  0  0  0  0  0  0  0  0  0  0  0  0
   -0.2382    6.0958    0.0000 C   0  0  0  0  0  0  0  0  0  0  0  0
   -0.2382    5.2708    0.0000 C   0  0  0  0  0  0  0  0  0  0  0  0
    0.4763    4.8583    0.0000 C   0  0  0  0  0  0  0  0  0  0  0  0
    0.4763    4.0333    0.0000 O   0  0  0  0  0  0  0  0  0  0  0  0
    1.1908    3.6208    0.0000 C   0  0  0  0  0  0  0  0  0  0  0  0
    1.1908    2.7958    0.0000 C   0  0  0  0  0  0  0  0  0  0  0  0
    0.4763    2.3833    0.0000 Cl  0  0  0  0  0  0  0  0  0  0  0  0
    1.9053    2.3833    0.0000 C   0  0  0  0  0  0  0  0  0  0  0  0
    1.9053    1.5583    0.0000 Cl  0  0  0  0  0  0  0  0  0  0  0  0
    2.6197    2.7958    0.0000 C   0  0  0  0  0  0  0  0  0  0  0  0
    3.3342    2.3833    0.0000 Cl  0  0  0  0  0  0  0  0  0  0  0  0
    2.6197    3.6208    0.0000 C   0  0  0  0  0  0  0  0  0  0  0  0
    1.9053    4.0333    0.0000 C   0  0  0  0  0  0  0  0  0  0  0  0
    1.9053    4.8583    0.0000 Cl  0  0  0  0  0  0  0  0  0  0  0  0
    1.1908    5.2708    0.0000 C   0  0  0  0  0  0  0  0  0  0  0  0
  2  1  2  0  0  0  0
  2  3  1  0  0  0  0
  4  2  1  0  0  0  0
  5  4  2  0  0  0  0
  6  5  1  0  0  0  0
  6  7  1  0  0  0  0
  7  8  1  0  0  0  0
  9  8  1  0  0  0  0
  9 10  1  0  0  0  0
 11  9  2  0  0  0  0
 11 12  1  0  0  0  0
 13 11  1  0  0  0  0
 13 14  1  0  0  0  0
 15 13  2  0  0  0  0
 16 15  1  0  0  0  0
  8 16  2  0  0  0  0
 16 17  1  0  0  0  0
 18  6  2  0  0  0  0
  1 18  1  0  0  0  0
M  END
> <ChemID>
101886

> <CAS>
160282-05-3

> <Original_SMILES>
Clc1ccc(cc1)Oc1c(Cl)c(Cl)c(Cl)cc1Cl

> <preferred_name>
2,3,4,4',6-Pentachlorodiphenylether

> <dsstox_substance_id>
DTXSID30877020

> <dsstox_compound_id>
DTXCID701015104

> <qc_level>


> <Canonical_QSARr>
ClC1C=C(Cl)C(Cl)=C(Cl)C=1OC1C=CC(Cl)=CC=1

> <InChI_Code_QSARr>
InChI=1S/C12H5Cl5O/c13-6-1-3-7(4-2-6)18-12-9(15)5-8(14)10(16)11(12)17/h1-5H

> <InChI Key_QSARr>
LUNNFBBTEHRYMW-UHFFFAOYSA-N

> <Salt_Solvent>


> <Salt_Solvent_ID>
0

> <MPID>
319866

> <HL Reference>


> <HL Temperature>


> <LogHL>
-3.0656985409242448

> <Tr_1_Tst_0>


$$$$
101887
  Mrv171c012241914302D          

 18 19  0  0  0  0            999 V2000
    2.8579   -0.8250    0.0000 C   0  0  0  0  0  0  0  0  0  0  0  0
    3.5724   -1.2375    0.0000 O   0  0  0  0  0  0  0  0  0  0  0  0
    3.5724   -2.0625    0.0000 C   0  0  0  0  0  0  0  0  0  0  0  0
    2.8579   -2.4750    0.0000 C   0  0  0  0  0  0  0  0  0  0  0  0
    2.8579   -3.3000    0.0000 C   0  0  0  0  0  0  0  0  0  0  0  0
    3.5724   -3.7125    0.0000 C   0  0  0  0  0  0  0  0  0  0  0  0
    4.2868   -3.3000    0.0000 C   0  0  0  0  0  0  0  0  0  0  0  0
    4.2868   -2.4750    0.0000 C   0  0  0  0  0  0  0  0  0  0  0  0
    2.8579    0.0000    0.0000 C   0  0  0  0  0  0  0  0  0  0  0  0
    3.5724    0.4125    0.0000 Cl  0  0  0  0  0  0  0  0  0  0  0  0
    2.1434    0.4125    0.0000 C   0  0  0  0  0  0  0  0  0  0  0  0
    2.1434    1.2375    0.0000 Cl  0  0  0  0  0  0  0  0  0  0  0  0
    1.4289    0.0000    0.0000 C   0  0  0  0  0  0  0  0  0  0  0  0
    0.7145    0.4125    0.0000 Cl  0  0  0  0  0  0  0  0  0  0  0  0
    1.4289   -0.8250    0.0000 C   0  0  0  0  0  0  0  0  0  0  0  0
    0.7145   -1.2375    0.0000 Cl  0  0  0  0  0  0  0  0  0  0  0  0
    2.1434   -1.2375    0.0000 C   0  0  0  0  0  0  0  0  0  0  0  0
    2.1434   -2.0625    0.0000 Cl  0  0  0  0  0  0  0  0  0  0  0  0
  1  2  1  0  0  0  0
  2  3  1  0  0  0  0
  4  3  1  0  0  0  0
  5  4  2  0  0  0  0
  6  5  1  0  0  0  0
  7  6  2  0  0  0  0
  8  7  1  0  0  0  0
  3  8  2  0  0  0  0
  9  1  1  0  0  0  0
  9 10  1  0  0  0  0
 11  9  2  0  0  0  0
 11 12  1  0  0  0  0
 13 11  1  0  0  0  0
 13 14  1  0  0  0  0
 15 13  2  0  0  0  0
 15 16  1  0  0  0  0
 17 15  1  0  0  0  0
  1 17  2  0  0  0  0
 17 18  1  0  0  0  0
M  END
> <ChemID>
101887

> <CAS>
42279-29-8

> <Original_SMILES>
Clc1c(Cl)c(Cl)c(Oc2ccccc2)c(Cl)c1Cl

> <preferred_name>
2,3,4,5,6-pentachlorodiphenyl ether

> <dsstox_substance_id>
DTXSID6074049

> <dsstox_compound_id>
DTXCID7040077

> <qc_level>


> <Canonical_QSARr>
ClC1=C(OC2C=CC=CC=2)C(Cl)=C(Cl)C(Cl)=C1Cl

> <InChI_Code_QSARr>
InChI=1S/C12H5Cl5O/c13-7-8(14)10(16)12(11(17)9(7)15)18-6-4-2-1-3-5-6/h1-5H

> <InChI Key_QSARr>
JDWOFUWJURZFFF-UHFFFAOYSA-N

> <Salt_Solvent>


> <Salt_Solvent_ID>
0

> <MPID>
319870

> <HL Reference>


> <HL Temperature>


> <LogHL>
-2.8257046375935815

> <Tr_1_Tst_0>


$$$$
101888
  Mrv171c012241914302D          

 18 19  0  0  0  0            999 V2000
    2.6991    3.5750    0.0000 C   0  0  0  0  0  0  0  0  0  0  0  0
    1.9846    3.9875    0.0000 C   0  0  0  0  0  0  0  0  0  0  0  0
    1.9846    4.8125    0.0000 Cl  0  0  0  0  0  0  0  0  0  0  0  0
    1.2701    3.5750    0.0000 C   0  0  0  0  0  0  0  0  0  0  0  0
    1.2701    2.7500    0.0000 C   0  0  0  0  0  0  0  0  0  0  0  0
    1.9846    2.3375    0.0000 C   0  0  0  0  0  0  0  0  0  0  0  0
    1.9846    1.5125    0.0000 O   0  0  0  0  0  0  0  0  0  0  0  0
    2.6991    1.1000    0.0000 C   0  0  0  0  0  0  0  0  0  0  0  0
    2.6991    0.2750    0.0000 C   0  0  0  0  0  0  0  0  0  0  0  0
    1.9846   -0.1375    0.0000 Cl  0  0  0  0  0  0  0  0  0  0  0  0
    3.4135   -0.1375    0.0000 C   0  0  0  0  0  0  0  0  0  0  0  0
    3.4135   -0.9625    0.0000 Cl  0  0  0  0  0  0  0  0  0  0  0  0
    4.1280    0.2750    0.0000 C   0  0  0  0  0  0  0  0  0  0  0  0
    4.1280    1.1000    0.0000 C   0  0  0  0  0  0  0  0  0  0  0  0
    4.8425    1.5125    0.0000 Cl  0  0  0  0  0  0  0  0  0  0  0  0
    3.4135    1.5125    0.0000 C   0  0  0  0  0  0  0  0  0  0  0  0
    3.4135    2.3375    0.0000 Cl  0  0  0  0  0  0  0  0  0  0  0  0
    2.6991    2.7500    0.0000 C   0  0  0  0  0  0  0  0  0  0  0  0
  2  1  2  0  0  0  0
  2  3  1  0  0  0  0
  4  2  1  0  0  0  0
  5  4  2  0  0  0  0
  6  5  1  0  0  0  0
  6  7  1  0  0  0  0
  7  8  1  0  0  0  0
  9  8  1  0  0  0  0
  9 10  1  0  0  0  0
 11  9  2  0  0  0  0
 11 12  1  0  0  0  0
 13 11  1  0  0  0  0
 14 13  2  0  0  0  0
 14 15  1  0  0  0  0
 16 14  1  0  0  0  0
  8 16  2  0  0  0  0
 16 17  1  0  0  0  0
 18  6  2  0  0  0  0
  1 18  1  0  0  0  0
M  END
> <ChemID>
101888

> <CAS>
63646-55-9

> <Original_SMILES>
Clc1ccc(cc1)Oc1c(Cl)c(Cl)cc(Cl)c1Cl

> <preferred_name>
2,3,4',5,6-Pentachlorodiphenylether

> <dsstox_substance_id>
DTXSID20877019

> <dsstox_compound_id>
DTXCID001015103

> <qc_level>


> <Canonical_QSARr>
ClC1C=C(Cl)C(Cl)=C(OC2C=CC(Cl)=CC=2)C=1Cl

> <InChI_Code_QSARr>
InChI=1S/C12H5Cl5O/c13-6-1-3-7(4-2-6)18-12-10(16)8(14)5-9(15)11(12)17/h1-5H

> <InChI Key_QSARr>
UETIKWAWMZLQQZ-UHFFFAOYSA-N

> <Salt_Solvent>


> <Salt_Solvent_ID>
0

> <MPID>
319874

> <HL Reference>


> <HL Temperature>


> <LogHL>
-3.045721783371216

> <Tr_1_Tst_0>


$$$$
101889
  Mrv171c012241914302D          

 18 19  0  0  0  0            999 V2000
    4.5080    0.5500    0.0000 Cl  0  0  0  0  0  0  0  0  0  0  0  0
    3.7935    0.9625    0.0000 C   0  0  0  0  0  0  0  0  0  0  0  0
    3.7935    1.7875    0.0000 C   0  0  0  0  0  0  0  0  0  0  0  0
    3.0790    2.2000    0.0000 C   0  0  0  0  0  0  0  0  0  0  0  0
    3.0790    3.0250    0.0000 Cl  0  0  0  0  0  0  0  0  0  0  0  0
    2.3646    1.7875    0.0000 C   0  0  0  0  0  0  0  0  0  0  0  0
    1.6501    2.2000    0.0000 Cl  0  0  0  0  0  0  0  0  0  0  0  0
    2.3646    0.9625    0.0000 C   0  0  0  0  0  0  0  0  0  0  0  0
    3.0790    0.5500    0.0000 C   0  0  0  0  0  0  0  0  0  0  0  0
    3.0790   -0.2750    0.0000 O   0  0  0  0  0  0  0  0  0  0  0  0
    3.7935   -0.6875    0.0000 C   0  0  0  0  0  0  0  0  0  0  0  0
    3.7935   -1.5125    0.0000 C   0  0  0  0  0  0  0  0  0  0  0  0
    4.5080   -1.9250    0.0000 C   0  0  0  0  0  0  0  0  0  0  0  0
    5.2224   -1.5125    0.0000 C   0  0  0  0  0  0  0  0  0  0  0  0
    5.9369   -1.9250    0.0000 Cl  0  0  0  0  0  0  0  0  0  0  0  0
    5.2224   -0.6875    0.0000 C   0  0  0  0  0  0  0  0  0  0  0  0
    5.9369   -0.2750    0.0000 Cl  0  0  0  0  0  0  0  0  0  0  0  0
    4.5080   -0.2750    0.0000 C   0  0  0  0  0  0  0  0  0  0  0  0
  1  2  1  0  0  0  0
  3  2  2  0  0  0  0
  4  3  1  0  0  0  0
  4  5  1  0  0  0  0
  6  4  2  0  0  0  0
  6  7  1  0  0  0  0
  8  6  1  0  0  0  0
  9  8  2  0  0  0  0
  2  9  1  0  0  0  0
  9 10  1  0  0  0  0
 10 11  1  0  0  0  0
 12 11  1  0  0  0  0
 13 12  2  0  0  0  0
 14 13  1  0  0  0  0
 14 15  1  0  0  0  0
 16 14  2  0  0  0  0
 16 17  1  0  0  0  0
 18 16  1  0  0  0  0
 11 18  2  0  0  0  0
M  END
> <ChemID>
101889

> <CAS>
60123-65-1

> <Original_SMILES>
Clc1ccc(cc1Cl)Oc1cc(Cl)c(Cl)cc1Cl

> <preferred_name>
2,3',4,4',5-Pentachlorodiphenyl ether

> <dsstox_substance_id>
DTXSID10208873

> <dsstox_compound_id>
DTXCID60131364

> <qc_level>


> <Canonical_QSARr>
ClC1=CC(Cl)=C(Cl)C=C1OC1=CC(Cl)=C(Cl)C=C1

> <InChI_Code_QSARr>
InChI=1S/C12H5Cl5O/c13-7-2-1-6(3-8(7)14)18-12-5-10(16)9(15)4-11(12)17/h1-5H

> <InChI Key_QSARr>
NRAVUGAGYOBXIG-UHFFFAOYSA-N

> <Salt_Solvent>


> <Salt_Solvent_ID>
0

> <MPID>
319878

> <HL Reference>


> <HL Temperature>


> <LogHL>
-3.1957528596276674

> <Tr_1_Tst_0>


$$$$
101890
  Mrv171c012241914302D          

 18 19  0  0  0  0            999 V2000
    4.5080    0.7334    0.0000 Cl  0  0  0  0  0  0  0  0  0  0  0  0
    3.7935    1.1459    0.0000 C   0  0  0  0  0  0  0  0  0  0  0  0
    3.7935    1.9709    0.0000 C   0  0  0  0  0  0  0  0  0  0  0  0
    3.0790    2.3834    0.0000 C   0  0  0  0  0  0  0  0  0  0  0  0
    3.0790    3.2084    0.0000 Cl  0  0  0  0  0  0  0  0  0  0  0  0
    2.3646    1.9709    0.0000 C   0  0  0  0  0  0  0  0  0  0  0  0
    2.3646    1.1459    0.0000 C   0  0  0  0  0  0  0  0  0  0  0  0
    1.6501    0.7334    0.0000 Cl  0  0  0  0  0  0  0  0  0  0  0  0
    3.0790    0.7334    0.0000 C   0  0  0  0  0  0  0  0  0  0  0  0
    3.0790   -0.0916    0.0000 O   0  0  0  0  0  0  0  0  0  0  0  0
    3.7935   -0.5041    0.0000 C   0  0  0  0  0  0  0  0  0  0  0  0
    3.7935   -1.3291    0.0000 C   0  0  0  0  0  0  0  0  0  0  0  0
    4.5080   -1.7416    0.0000 C   0  0  0  0  0  0  0  0  0  0  0  0
    5.2224   -1.3291    0.0000 C   0  0  0  0  0  0  0  0  0  0  0  0
    5.9369   -1.7416    0.0000 Cl  0  0  0  0  0  0  0  0  0  0  0  0
    5.2224   -0.5041    0.0000 C   0  0  0  0  0  0  0  0  0  0  0  0
    5.9369   -0.0916    0.0000 Cl  0  0  0  0  0  0  0  0  0  0  0  0
    4.5080   -0.0916    0.0000 C   0  0  0  0  0  0  0  0  0  0  0  0
  1  2  1  0  0  0  0
  3  2  1  0  0  0  0
  4  3  2  0  0  0  0
  4  5  1  0  0  0  0
  6  4  1  0  0  0  0
  7  6  2  0  0  0  0
  7  8  1  0  0  0  0
  9  7  1  0  0  0  0
  2  9  2  0  0  0  0
  9 10  1  0  0  0  0
 10 11  1  0  0  0  0
 12 11  1  0  0  0  0
 13 12  2  0  0  0  0
 14 13  1  0  0  0  0
 14 15  1  0  0  0  0
 16 14  2  0  0  0  0
 16 17  1  0  0  0  0
 18 16  1  0  0  0  0
 11 18  2  0  0  0  0
M  END
> <ChemID>
101890

> <CAS>
157683-74-4

> <Original_SMILES>
Clc1cc(Cl)c(Oc2cc(Cl)c(Cl)cc2)c(Cl)c1

> <preferred_name>
2,3',4,4',6-Pentachlorodiphenyl ether

> <dsstox_substance_id>
DTXSID50166302

> <dsstox_compound_id>
DTXCID6088793

> <qc_level>


> <Canonical_QSARr>
ClC1C=C(Cl)C(OC2=CC(Cl)=C(Cl)C=C2)=C(Cl)C=1

> <InChI_Code_QSARr>
InChI=1S/C12H5Cl5O/c13-6-3-10(16)12(11(17)4-6)18-7-1-2-8(14)9(15)5-7/h1-5H

> <InChI Key_QSARr>
POOXVKSDWCXIBU-UHFFFAOYSA-N

> <Salt_Solvent>


> <Salt_Solvent_ID>
0

> <MPID>
319882

> <HL Reference>


> <HL Temperature>


> <LogHL>
-3.1257037683220115

> <Tr_1_Tst_0>


$$$$
101891
  Mrv171c012241914302D          

 18 19  0  0  0  0            999 V2000
   -0.7938    4.6750    0.0000 C   0  0  0  0  0  0  0  0  0  0  0  0
   -1.5083    5.0875    0.0000 C   0  0  0  0  0  0  0  0  0  0  0  0
   -1.5083    5.9125    0.0000 Cl  0  0  0  0  0  0  0  0  0  0  0  0
   -2.2228    4.6750    0.0000 C   0  0  0  0  0  0  0  0  0  0  0  0
   -2.2228    3.8500    0.0000 C   0  0  0  0  0  0  0  0  0  0  0  0
   -2.9372    3.4375    0.0000 O   0  0  0  0  0  0  0  0  0  0  0  0
   -2.9372    2.6125    0.0000 C   0  0  0  0  0  0  0  0  0  0  0  0
   -3.6517    2.2000    0.0000 C   0  0  0  0  0  0  0  0  0  0  0  0
   -4.3662    2.6125    0.0000 Cl  0  0  0  0  0  0  0  0  0  0  0  0
   -3.6517    1.3750    0.0000 C   0  0  0  0  0  0  0  0  0  0  0  0
   -2.9372    0.9625    0.0000 C   0  0  0  0  0  0  0  0  0  0  0  0
   -2.9372    0.1375    0.0000 Cl  0  0  0  0  0  0  0  0  0  0  0  0
   -2.2228    1.3750    0.0000 C   0  0  0  0  0  0  0  0  0  0  0  0
   -1.5083    0.9625    0.0000 Cl  0  0  0  0  0  0  0  0  0  0  0  0
   -2.2228    2.2000    0.0000 C   0  0  0  0  0  0  0  0  0  0  0  0
   -1.5083    3.4375    0.0000 C   0  0  0  0  0  0  0  0  0  0  0  0
   -0.7938    3.8500    0.0000 C   0  0  0  0  0  0  0  0  0  0  0  0
   -0.0794    3.4375    0.0000 Cl  0  0  0  0  0  0  0  0  0  0  0  0
  2  1  1  0  0  0  0
  2  3  1  0  0  0  0
  4  2  2  0  0  0  0
  5  4  1  0  0  0  0
  5  6  1  0  0  0  0
  6  7  1  0  0  0  0
  8  7  2  0  0  0  0
  8  9  1  0  0  0  0
 10  8  1  0  0  0  0
 11 10  2  0  0  0  0
 11 12  1  0  0  0  0
 13 11  1  0  0  0  0
 13 14  1  0  0  0  0
 15 13  2  0  0  0  0
  7 15  1  0  0  0  0
 16  5  2  0  0  0  0
 17 16  1  0  0  0  0
  1 17  2  0  0  0  0
 17 18  1  0  0  0  0
M  END
> <ChemID>
101891

> <CAS>
160282-04-2

> <Original_SMILES>
Clc1cc(cc(Cl)c1)Oc1cc(Cl)c(Cl)cc1Cl

> <preferred_name>
2,3',4,5,5'-Pentachlorodiphenylether

> <dsstox_substance_id>
DTXSID10877023

> <dsstox_compound_id>
DTXCID801015107

> <qc_level>


> <Canonical_QSARr>
ClC1C=C(Cl)C(Cl)=CC=1OC1C=C(Cl)C=C(Cl)C=1

> <InChI_Code_QSARr>
InChI=1S/C12H5Cl5O/c13-6-1-7(14)3-8(2-6)18-12-5-10(16)9(15)4-11(12)17/h1-5H

> <InChI Key_QSARr>
XIFRTJZLSYOLIU-UHFFFAOYSA-N

> <Salt_Solvent>


> <Salt_Solvent_ID>
0

> <MPID>
319886

> <HL Reference>


> <HL Temperature>


> <LogHL>
-2.68571555143454

> <Tr_1_Tst_0>


$$$$
101892
  Mrv171c012241914302D          

 18 19  0  0  0  0            999 V2000
    2.8578    1.1000    0.0000 C   0  0  0  0  0  0  0  0  0  0  0  0
    2.1434    1.5125    0.0000 C   0  0  0  0  0  0  0  0  0  0  0  0
    2.1434    2.3375    0.0000 Cl  0  0  0  0  0  0  0  0  0  0  0  0
    1.4289    1.1000    0.0000 C   0  0  0  0  0  0  0  0  0  0  0  0
    1.4289    0.2750    0.0000 C   0  0  0  0  0  0  0  0  0  0  0  0
    0.7144   -0.1375    0.0000 Cl  0  0  0  0  0  0  0  0  0  0  0  0
    2.1434   -0.1375    0.0000 C   0  0  0  0  0  0  0  0  0  0  0  0
    2.1434   -0.9625    0.0000 O   0  0  0  0  0  0  0  0  0  0  0  0
    2.8578   -1.3750    0.0000 C   0  0  0  0  0  0  0  0  0  0  0  0
    2.8578   -2.2000    0.0000 C   0  0  0  0  0  0  0  0  0  0  0  0
    3.5723   -2.6125    0.0000 C   0  0  0  0  0  0  0  0  0  0  0  0
    3.5723   -3.4375    0.0000 Cl  0  0  0  0  0  0  0  0  0  0  0  0
    4.2868   -2.2000    0.0000 C   0  0  0  0  0  0  0  0  0  0  0  0
    5.0013   -2.6125    0.0000 Cl  0  0  0  0  0  0  0  0  0  0  0  0
    4.2868   -1.3750    0.0000 C   0  0  0  0  0  0  0  0  0  0  0  0
    5.0013   -0.9625    0.0000 Cl  0  0  0  0  0  0  0  0  0  0  0  0
    3.5723   -0.9625    0.0000 C   0  0  0  0  0  0  0  0  0  0  0  0
    2.8578    0.2750    0.0000 C   0  0  0  0  0  0  0  0  0  0  0  0
  2  1  1  0  0  0  0
  2  3  1  0  0  0  0
  4  2  2  0  0  0  0
  5  4  1  0  0  0  0
  5  6  1  0  0  0  0
  7  5  2  0  0  0  0
  7  8  1  0  0  0  0
  8  9  1  0  0  0  0
 10  9  1  0  0  0  0
 11 10  2  0  0  0  0
 11 12  1  0  0  0  0
 13 11  1  0  0  0  0
 13 14  1  0  0  0  0
 15 13  2  0  0  0  0
 15 16  1  0  0  0  0
 17 15  1  0  0  0  0
  9 17  2  0  0  0  0
 18  7  1  0  0  0  0
  1 18  2  0  0  0  0
M  END
> <ChemID>
101892

> <CAS>
NOCAS_877017

> <Original_SMILES>
Clc1cc(Cl)c(cc1)Oc1cc(Cl)c(Cl)c(Cl)c1

> <preferred_name>
2',3,4,4',5-Pentachlorodiphenyl ether

> <dsstox_substance_id>
DTXSID00877017

> <dsstox_compound_id>
DTXCID601015101

> <qc_level>


> <Canonical_QSARr>
ClC1=CC(Cl)=C(C=C1)OC1=CC(Cl)=C(Cl)C(Cl)=C1

> <InChI_Code_QSARr>
InChI=1S/C12H5Cl5O/c13-6-1-2-11(8(14)3-6)18-7-4-9(15)12(17)10(16)5-7/h1-5H

> <InChI Key_QSARr>
BUAXMSGDEZZOJD-UHFFFAOYSA-N

> <Salt_Solvent>


> <Salt_Solvent_ID>
0

> <MPID>
319890

> <HL Reference>


> <HL Temperature>


> <LogHL>
-3.135722741473086

> <Tr_1_Tst_0>


$$$$
101893
  Mrv171c012241914302D          

 18 19  0  0  0  0            999 V2000
    4.5080    2.0167    0.0000 Cl  0  0  0  0  0  0  0  0  0  0  0  0
    3.7935    1.6042    0.0000 C   0  0  0  0  0  0  0  0  0  0  0  0
    3.0790    2.0167    0.0000 C   0  0  0  0  0  0  0  0  0  0  0  0
    3.0790    2.8417    0.0000 Cl  0  0  0  0  0  0  0  0  0  0  0  0
    2.3646    1.6042    0.0000 C   0  0  0  0  0  0  0  0  0  0  0  0
    1.6501    2.0167    0.0000 Cl  0  0  0  0  0  0  0  0  0  0  0  0
    2.3646    0.7792    0.0000 C   0  0  0  0  0  0  0  0  0  0  0  0
    3.0790    0.3667    0.0000 C   0  0  0  0  0  0  0  0  0  0  0  0
    3.0790   -0.4583    0.0000 O   0  0  0  0  0  0  0  0  0  0  0  0
    3.7935   -0.8708    0.0000 C   0  0  0  0  0  0  0  0  0  0  0  0
    3.7935   -1.6958    0.0000 C   0  0  0  0  0  0  0  0  0  0  0  0
    4.5080   -2.1083    0.0000 C   0  0  0  0  0  0  0  0  0  0  0  0
    5.2224   -1.6958    0.0000 C   0  0  0  0  0  0  0  0  0  0  0  0
    5.9369   -2.1083    0.0000 Cl  0  0  0  0  0  0  0  0  0  0  0  0
    5.2224   -0.8708    0.0000 C   0  0  0  0  0  0  0  0  0  0  0  0
    5.9369   -0.4583    0.0000 Cl  0  0  0  0  0  0  0  0  0  0  0  0
    4.5080   -0.4583    0.0000 C   0  0  0  0  0  0  0  0  0  0  0  0
    3.7935    0.7792    0.0000 C   0  0  0  0  0  0  0  0  0  0  0  0
  1  2  1  0  0  0  0
  3  2  1  0  0  0  0
  3  4  1  0  0  0  0
  5  3  2  0  0  0  0
  5  6  1  0  0  0  0
  7  5  1  0  0  0  0
  8  7  2  0  0  0  0
  8  9  1  0  0  0  0
  9 10  1  0  0  0  0
 11 10  1  0  0  0  0
 12 11  2  0  0  0  0
 13 12  1  0  0  0  0
 13 14  1  0  0  0  0
 15 13  2  0  0  0  0
 15 16  1  0  0  0  0
 17 15  1  0  0  0  0
 10 17  2  0  0  0  0
 18  8  1  0  0  0  0
  2 18  2  0  0  0  0
M  END
> <ChemID>
101893

> <CAS>
94339-59-0

> <Original_SMILES>
Clc1ccc(cc1Cl)Oc1cc(Cl)c(Cl)c(Cl)c1

> <preferred_name>
3,3',4,4',5-Pentachlorodiphenyl ether

> <dsstox_substance_id>
DTXSID60241432

> <dsstox_compound_id>
DTXCID60163923

> <qc_level>


> <Canonical_QSARr>
ClC1C=CC(=CC=1Cl)OC1=CC(Cl)=C(Cl)C(Cl)=C1

> <InChI_Code_QSARr>
InChI=1S/C12H5Cl5O/c13-8-2-1-6(3-9(8)14)18-7-4-10(15)12(17)11(16)5-7/h1-5H

> <InChI Key_QSARr>
WDBLKMRZRGLISL-UHFFFAOYSA-N

> <Salt_Solvent>


> <Salt_Solvent_ID>
0

> <MPID>
319894

> <HL Reference>


> <HL Temperature>


> <LogHL>
-3.00571672978183

> <Tr_1_Tst_0>


$$$$
101894
  Mrv171c012241914302D          

 19 20  0  0  0  0            999 V2000
    0.0752    3.5171    0.0000 C   0  0  0  0  0  0  0  0  0  0  0  0
   -0.6393    3.9296    0.0000 C   0  0  0  0  0  0  0  0  0  0  0  0
   -0.6393    4.7546    0.0000 Cl  0  0  0  0  0  0  0  0  0  0  0  0
   -1.3537    3.5171    0.0000 C   0  0  0  0  0  0  0  0  0  0  0  0
   -2.0682    3.9296    0.0000 Cl  0  0  0  0  0  0  0  0  0  0  0  0
   -1.3537    2.6921    0.0000 C   0  0  0  0  0  0  0  0  0  0  0  0
   -2.0682    2.2796    0.0000 Cl  0  0  0  0  0  0  0  0  0  0  0  0
   -0.6393    2.2796    0.0000 C   0  0  0  0  0  0  0  0  0  0  0  0
   -0.6393    1.4546    0.0000 O   0  0  0  0  0  0  0  0  0  0  0  0
    0.0752    1.0421    0.0000 C   0  0  0  0  0  0  0  0  0  0  0  0
    0.0752    0.2171    0.0000 C   0  0  0  0  0  0  0  0  0  0  0  0
   -0.6393   -0.1954    0.0000 Cl  0  0  0  0  0  0  0  0  0  0  0  0
    0.7897   -0.1954    0.0000 C   0  0  0  0  0  0  0  0  0  0  0  0
    0.7897   -1.0204    0.0000 Cl  0  0  0  0  0  0  0  0  0  0  0  0
    1.5041    0.2171    0.0000 C   0  0  0  0  0  0  0  0  0  0  0  0
    2.2186   -0.1954    0.0000 Cl  0  0  0  0  0  0  0  0  0  0  0  0
    1.5041    1.0421    0.0000 C   0  0  0  0  0  0  0  0  0  0  0  0
    0.7897    1.4546    0.0000 C   0  0  0  0  0  0  0  0  0  0  0  0
    0.0752    2.6921    0.0000 C   0  0  0  0  0  0  0  0  0  0  0  0
  2  1  1  0  0  0  0
  2  3  1  0  0  0  0
  4  2  2  0  0  0  0
  4  5  1  0  0  0  0
  6  4  1  0  0  0  0
  6  7  1  0  0  0  0
  8  6  2  0  0  0  0
  8  9  1  0  0  0  0
  9 10  1  0  0  0  0
 11 10  2  0  0  0  0
 11 12  1  0  0  0  0
 13 11  1  0  0  0  0
 13 14  1  0  0  0  0
 15 13  2  0  0  0  0
 15 16  1  0  0  0  0
 17 15  1  0  0  0  0
 18 17  2  0  0  0  0
 10 18  1  0  0  0  0
 19  8  1  0  0  0  0
  1 19  2  0  0  0  0
M  END
> <ChemID>
101894

> <CAS>
71585-39-2

> <Original_SMILES>
Clc1ccc(Oc2ccc(Cl)c(Cl)c2Cl)c(Cl)c1Cl

> <preferred_name>
2,2',3,3',4,4'-Hexachlorodiphenylether

> <dsstox_substance_id>
DTXSID00877012

> <dsstox_compound_id>
DTXCID001015096

> <qc_level>


> <Canonical_QSARr>
ClC1C=CC(OC2C=CC(Cl)=C(Cl)C=2Cl)=C(Cl)C=1Cl

> <InChI_Code_QSARr>
InChI=1S/C12H4Cl6O/c13-5-1-3-7(11(17)9(5)15)19-8-4-2-6(14)10(16)12(8)18/h1-4H

> <InChI Key_QSARr>
ATIMVMORQPKRPC-UHFFFAOYSA-N

> <Salt_Solvent>


> <Salt_Solvent_ID>
0

> <MPID>
319898

> <HL Reference>


> <HL Temperature>


> <LogHL>
-3.925812791492185

> <Tr_1_Tst_0>


$$$$
101895
  Mrv171c012241914302D          

 19 20  0  0  0  0            999 V2000
    2.9288    1.8020    0.0000 Cl  0  0  0  0  0  0  0  0  0  0  0  0
    3.6433    1.3895    0.0000 C   0  0  0  0  0  0  0  0  0  0  0  0
    4.3577    1.8020    0.0000 C   0  0  0  0  0  0  0  0  0  0  0  0
    4.3577    2.6270    0.0000 Cl  0  0  0  0  0  0  0  0  0  0  0  0
    5.0722    1.3895    0.0000 C   0  0  0  0  0  0  0  0  0  0  0  0
    5.7867    1.8020    0.0000 Cl  0  0  0  0  0  0  0  0  0  0  0  0
    5.0722    0.5645    0.0000 C   0  0  0  0  0  0  0  0  0  0  0  0
    4.3577    0.1520    0.0000 C   0  0  0  0  0  0  0  0  0  0  0  0
    3.6433    0.5645    0.0000 C   0  0  0  0  0  0  0  0  0  0  0  0
    2.9288    0.1520    0.0000 O   0  0  0  0  0  0  0  0  0  0  0  0
    2.9288   -0.6730    0.0000 C   0  0  0  0  0  0  0  0  0  0  0  0
    2.2143   -1.0855    0.0000 C   0  0  0  0  0  0  0  0  0  0  0  0
    2.2143   -1.9105    0.0000 C   0  0  0  0  0  0  0  0  0  0  0  0
    1.4999   -2.3230    0.0000 Cl  0  0  0  0  0  0  0  0  0  0  0  0
    2.9288   -2.3230    0.0000 C   0  0  0  0  0  0  0  0  0  0  0  0
    3.6433   -1.9105    0.0000 C   0  0  0  0  0  0  0  0  0  0  0  0
    4.3577   -2.3230    0.0000 Cl  0  0  0  0  0  0  0  0  0  0  0  0
    3.6433   -1.0855    0.0000 C   0  0  0  0  0  0  0  0  0  0  0  0
    4.3577   -0.6730    0.0000 Cl  0  0  0  0  0  0  0  0  0  0  0  0
  1  2  1  0  0  0  0
  3  2  1  0  0  0  0
  3  4  1  0  0  0  0
  5  3  2  0  0  0  0
  5  6  1  0  0  0  0
  7  5  1  0  0  0  0
  8  7  2  0  0  0  0
  9  8  1  0  0  0  0
  2  9  2  0  0  0  0
  9 10  1  0  0  0  0
 10 11  1  0  0  0  0
 12 11  1  0  0  0  0
 13 12  2  0  0  0  0
 13 14  1  0  0  0  0
 15 13  1  0  0  0  0
 16 15  2  0  0  0  0
 16 17  1  0  0  0  0
 18 16  1  0  0  0  0
 11 18  2  0  0  0  0
 18 19  1  0  0  0  0
M  END
> <ChemID>
101895

> <CAS>
76621-14-2

> <Original_SMILES>
Clc1cc(Oc2ccc(Cl)c(Cl)c2Cl)c(Cl)c(Cl)c1

> <preferred_name>
2,2',3,3',4,5'-Hexachlorodiphenyl ether

> <dsstox_substance_id>
DTXSID80227450

> <dsstox_compound_id>
DTXCID80149941

> <qc_level>


> <Canonical_QSARr>
ClC1C=CC(OC2C=C(Cl)C=C(Cl)C=2Cl)=C(Cl)C=1Cl

> <InChI_Code_QSARr>
InChI=1S/C12H4Cl6O/c13-5-3-7(15)10(16)9(4-5)19-8-2-1-6(14)11(17)12(8)18/h1-4H

> <InChI Key_QSARr>
JTEWACHFMNTRBB-UHFFFAOYSA-N

> <Salt_Solvent>


> <Salt_Solvent_ID>
0

> <MPID>
319902

> <HL Reference>


> <HL Temperature>


> <LogHL>
-3.185712440357013

> <Tr_1_Tst_0>


$$$$
101896
  Mrv171c012241914302D          

 19 20  0  0  0  0            999 V2000
    2.8534    2.0842    0.0000 Cl  0  0  0  0  0  0  0  0  0  0  0  0
    3.5678    1.6717    0.0000 C   0  0  0  0  0  0  0  0  0  0  0  0
    4.2823    2.0842    0.0000 C   0  0  0  0  0  0  0  0  0  0  0  0
    4.2823    2.9092    0.0000 Cl  0  0  0  0  0  0  0  0  0  0  0  0
    4.9968    1.6717    0.0000 C   0  0  0  0  0  0  0  0  0  0  0  0
    5.7112    2.0842    0.0000 Cl  0  0  0  0  0  0  0  0  0  0  0  0
    4.9968    0.8467    0.0000 C   0  0  0  0  0  0  0  0  0  0  0  0
    4.2823    0.4342    0.0000 C   0  0  0  0  0  0  0  0  0  0  0  0
    3.5678    0.8467    0.0000 C   0  0  0  0  0  0  0  0  0  0  0  0
    2.8534    0.4342    0.0000 O   0  0  0  0  0  0  0  0  0  0  0  0
    2.8534   -0.3908    0.0000 C   0  0  0  0  0  0  0  0  0  0  0  0
    2.1389   -0.8033    0.0000 C   0  0  0  0  0  0  0  0  0  0  0  0
    1.4244   -0.3908    0.0000 Cl  0  0  0  0  0  0  0  0  0  0  0  0
    2.1389   -1.6283    0.0000 C   0  0  0  0  0  0  0  0  0  0  0  0
    2.8534   -2.0408    0.0000 C   0  0  0  0  0  0  0  0  0  0  0  0
    3.5678   -1.6283    0.0000 C   0  0  0  0  0  0  0  0  0  0  0  0
    4.2823   -2.0408    0.0000 Cl  0  0  0  0  0  0  0  0  0  0  0  0
    3.5678   -0.8033    0.0000 C   0  0  0  0  0  0  0  0  0  0  0  0
    4.2823   -0.3908    0.0000 Cl  0  0  0  0  0  0  0  0  0  0  0  0
  1  2  1  0  0  0  0
  3  2  1  0  0  0  0
  3  4  1  0  0  0  0
  5  3  2  0  0  0  0
  5  6  1  0  0  0  0
  7  5  1  0  0  0  0
  8  7  2  0  0  0  0
  9  8  1  0  0  0  0
  2  9  2  0  0  0  0
  9 10  1  0  0  0  0
 10 11  1  0  0  0  0
 12 11  2  0  0  0  0
 12 13  1  0  0  0  0
 14 12  1  0  0  0  0
 15 14  2  0  0  0  0
 16 15  1  0  0  0  0
 16 17  1  0  0  0  0
 18 16  2  0  0  0  0
 11 18  1  0  0  0  0
 18 19  1  0  0  0  0
M  END
> <ChemID>
101896

> <CAS>
124076-66-0

> <Original_SMILES>
Clc1ccc(Cl)c(Oc2ccc(Cl)c(Cl)c2Cl)c1Cl

> <preferred_name>
2,2',3,3',4,6'-Hexachlorodiphenyl ether

> <dsstox_substance_id>
DTXSID00154214

> <dsstox_compound_id>
DTXCID5076705

> <qc_level>


> <Canonical_QSARr>
ClC1C=CC(Cl)=C(OC2C=CC(Cl)=C(Cl)C=2Cl)C=1Cl

> <InChI_Code_QSARr>
InChI=1S/C12H4Cl6O/c13-5-3-4-8(11(18)9(5)16)19-12-7(15)2-1-6(14)10(12)17/h1-4H

> <InChI Key_QSARr>
YDVYLSIVXYLBBX-UHFFFAOYSA-N

> <Salt_Solvent>


> <Salt_Solvent_ID>
0

> <MPID>
319906

> <HL Reference>


> <HL Temperature>


> <LogHL>
-3.7956656373643387

> <Tr_1_Tst_0>


$$$$
101897
  Mrv171c012241914302D          

 19 20  0  0  0  0            999 V2000
   -1.5794    6.1224    0.0000 C   0  0  0  0  0  0  0  0  0  0  0  0
   -2.2939    6.5349    0.0000 C   0  0  0  0  0  0  0  0  0  0  0  0
   -2.2939    7.3599    0.0000 Cl  0  0  0  0  0  0  0  0  0  0  0  0
   -3.0083    6.1224    0.0000 C   0  0  0  0  0  0  0  0  0  0  0  0
   -3.0083    5.2974    0.0000 C   0  0  0  0  0  0  0  0  0  0  0  0
   -3.7228    4.8849    0.0000 Cl  0  0  0  0  0  0  0  0  0  0  0  0
   -2.2939    4.8849    0.0000 C   0  0  0  0  0  0  0  0  0  0  0  0
   -2.2939    4.0599    0.0000 O   0  0  0  0  0  0  0  0  0  0  0  0
   -1.5794    3.6474    0.0000 C   0  0  0  0  0  0  0  0  0  0  0  0
   -1.5794    2.8224    0.0000 C   0  0  0  0  0  0  0  0  0  0  0  0
   -2.2939    2.4099    0.0000 Cl  0  0  0  0  0  0  0  0  0  0  0  0
   -0.8649    2.4099    0.0000 C   0  0  0  0  0  0  0  0  0  0  0  0
   -0.8649    1.5849    0.0000 Cl  0  0  0  0  0  0  0  0  0  0  0  0
   -0.1504    2.8224    0.0000 C   0  0  0  0  0  0  0  0  0  0  0  0
    0.5640    2.4099    0.0000 Cl  0  0  0  0  0  0  0  0  0  0  0  0
   -0.1504    3.6474    0.0000 C   0  0  0  0  0  0  0  0  0  0  0  0
    0.5640    4.0599    0.0000 Cl  0  0  0  0  0  0  0  0  0  0  0  0
   -0.8649    4.0599    0.0000 C   0  0  0  0  0  0  0  0  0  0  0  0
   -1.5794    5.2974    0.0000 C   0  0  0  0  0  0  0  0  0  0  0  0
  2  1  1  0  0  0  0
  2  3  1  0  0  0  0
  4  2  2  0  0  0  0
  5  4  1  0  0  0  0
  5  6  1  0  0  0  0
  7  5  2  0  0  0  0
  7  8  1  0  0  0  0
  8  9  1  0  0  0  0
 10  9  2  0  0  0  0
 10 11  1  0  0  0  0
 12 10  1  0  0  0  0
 12 13  1  0  0  0  0
 14 12  2  0  0  0  0
 14 15  1  0  0  0  0
 16 14  1  0  0  0  0
 16 17  1  0  0  0  0
 18 16  2  0  0  0  0
  9 18  1  0  0  0  0
 19  7  1  0  0  0  0
  1 19  2  0  0  0  0
M  END
> <ChemID>
101897

> <CAS>
71585-38-1

> <Original_SMILES>
Clc1cc(Cl)c(cc1)Oc1cc(Cl)c(Cl)c(Cl)c1Cl

> <preferred_name>
2,2',3,4,4',5-Hexachlorodiphenylether

> <dsstox_substance_id>
DTXSID80877010

> <dsstox_compound_id>
DTXCID601015094

> <qc_level>


> <Canonical_QSARr>
ClC1C=C(Cl)C=CC=1OC1C=C(Cl)C(Cl)=C(Cl)C=1Cl

> <InChI_Code_QSARr>
InChI=1S/C12H4Cl6O/c13-5-1-2-8(6(14)3-5)19-9-4-7(15)10(16)12(18)11(9)17/h1-4H

> <InChI Key_QSARr>
LDPJEMNNPDFBCQ-UHFFFAOYSA-N

> <Salt_Solvent>


> <Salt_Solvent_ID>
0

> <MPID>
319910

> <HL Reference>


> <HL Temperature>


> <LogHL>
-3.2657491839763724

> <Tr_1_Tst_0>


$$$$
101898
  Mrv171c012241914302D          

 19 20  0  0  0  0            999 V2000
    0.0000    5.7315    0.0000 C   0  0  0  0  0  0  0  0  0  0  0  0
   -0.7145    6.1440    0.0000 C   0  0  0  0  0  0  0  0  0  0  0  0
   -0.7145    6.9690    0.0000 Cl  0  0  0  0  0  0  0  0  0  0  0  0
   -1.4289    5.7315    0.0000 C   0  0  0  0  0  0  0  0  0  0  0  0
   -2.1434    6.1440    0.0000 Cl  0  0  0  0  0  0  0  0  0  0  0  0
   -1.4289    4.9065    0.0000 C   0  0  0  0  0  0  0  0  0  0  0  0
   -2.1434    4.4940    0.0000 Cl  0  0  0  0  0  0  0  0  0  0  0  0
   -0.7145    4.4940    0.0000 C   0  0  0  0  0  0  0  0  0  0  0  0
   -0.7145    3.6690    0.0000 O   0  0  0  0  0  0  0  0  0  0  0  0
    0.0000    3.2565    0.0000 C   0  0  0  0  0  0  0  0  0  0  0  0
    0.0000    2.4315    0.0000 C   0  0  0  0  0  0  0  0  0  0  0  0
   -0.7145    2.0190    0.0000 Cl  0  0  0  0  0  0  0  0  0  0  0  0
    0.7145    2.0190    0.0000 C   0  0  0  0  0  0  0  0  0  0  0  0
    1.4290    2.4315    0.0000 C   0  0  0  0  0  0  0  0  0  0  0  0
    2.1434    2.0190    0.0000 Cl  0  0  0  0  0  0  0  0  0  0  0  0
    1.4290    3.2565    0.0000 C   0  0  0  0  0  0  0  0  0  0  0  0
    2.1434    3.6690    0.0000 Cl  0  0  0  0  0  0  0  0  0  0  0  0
    0.7145    3.6690    0.0000 C   0  0  0  0  0  0  0  0  0  0  0  0
    0.0000    4.9065    0.0000 C   0  0  0  0  0  0  0  0  0  0  0  0
  2  1  1  0  0  0  0
  2  3  1  0  0  0  0
  4  2  2  0  0  0  0
  4  5  1  0  0  0  0
  6  4  1  0  0  0  0
  6  7  1  0  0  0  0
  8  6  2  0  0  0  0
  8  9  1  0  0  0  0
  9 10  1  0  0  0  0
 11 10  2  0  0  0  0
 11 12  1  0  0  0  0
 13 11  1  0  0  0  0
 14 13  2  0  0  0  0
 14 15  1  0  0  0  0
 16 14  1  0  0  0  0
 16 17  1  0  0  0  0
 18 16  2  0  0  0  0
 10 18  1  0  0  0  0
 19  8  1  0  0  0  0
  1 19  2  0  0  0  0
M  END
> <ChemID>
101898

> <CAS>
71585-36-9

> <Original_SMILES>
Clc1ccc(Oc2cc(Cl)c(Cl)cc2Cl)c(Cl)c1Cl

> <preferred_name>
2,2',3,4,4',5'-Hexachlorodiphenylether

> <dsstox_substance_id>
DTXSID40877011

> <dsstox_compound_id>
DTXCID301015095

> <qc_level>


> <Canonical_QSARr>
ClC1C=CC(OC2C=C(Cl)C(Cl)=CC=2Cl)=C(Cl)C=1Cl

> <InChI_Code_QSARr>
InChI=1S/C12H4Cl6O/c13-5-1-2-9(12(18)11(5)17)19-10-4-7(15)6(14)3-8(10)16/h1-4H

> <InChI Key_QSARr>
PHSJJYZIFPWCLZ-UHFFFAOYSA-N

> <Salt_Solvent>


> <Salt_Solvent_ID>
0

> <MPID>
319914

> <HL Reference>


> <HL Temperature>


> <LogHL>
-3.4657631471794517

> <Tr_1_Tst_0>


$$$$
101899
  Mrv171c012241914302D          

 19 20  0  0  0  0            999 V2000
    3.5303    1.1724    0.0000 Cl  0  0  0  0  0  0  0  0  0  0  0  0
    4.2447    0.7599    0.0000 C   0  0  0  0  0  0  0  0  0  0  0  0
    4.9592    1.1724    0.0000 C   0  0  0  0  0  0  0  0  0  0  0  0
    4.9592    1.9974    0.0000 Cl  0  0  0  0  0  0  0  0  0  0  0  0
    5.6737    0.7599    0.0000 C   0  0  0  0  0  0  0  0  0  0  0  0
    6.3882    1.1724    0.0000 Cl  0  0  0  0  0  0  0  0  0  0  0  0
    5.6737   -0.0651    0.0000 C   0  0  0  0  0  0  0  0  0  0  0  0
    4.9592   -0.4776    0.0000 C   0  0  0  0  0  0  0  0  0  0  0  0
    4.9592   -1.3026    0.0000 Cl  0  0  0  0  0  0  0  0  0  0  0  0
    4.2447   -0.0651    0.0000 C   0  0  0  0  0  0  0  0  0  0  0  0
    3.5303   -0.4776    0.0000 O   0  0  0  0  0  0  0  0  0  0  0  0
    2.8158   -0.0651    0.0000 C   0  0  0  0  0  0  0  0  0  0  0  0
    2.8158    0.7599    0.0000 C   0  0  0  0  0  0  0  0  0  0  0  0
    2.1013    1.1724    0.0000 C   0  0  0  0  0  0  0  0  0  0  0  0
    1.3869    0.7599    0.0000 C   0  0  0  0  0  0  0  0  0  0  0  0
    0.6724    1.1724    0.0000 Cl  0  0  0  0  0  0  0  0  0  0  0  0
    1.3869   -0.0651    0.0000 C   0  0  0  0  0  0  0  0  0  0  0  0
    2.1013   -0.4776    0.0000 C   0  0  0  0  0  0  0  0  0  0  0  0
    2.1013   -1.3026    0.0000 Cl  0  0  0  0  0  0  0  0  0  0  0  0
  1  2  1  0  0  0  0
  3  2  1  0  0  0  0
  3  4  1  0  0  0  0
  5  3  2  0  0  0  0
  5  6  1  0  0  0  0
  7  5  1  0  0  0  0
  8  7  2  0  0  0  0
  8  9  1  0  0  0  0
 10  8  1  0  0  0  0
  2 10  2  0  0  0  0
 10 11  1  0  0  0  0
 11 12  1  0  0  0  0
 13 12  1  0  0  0  0
 14 13  2  0  0  0  0
 15 14  1  0  0  0  0
 15 16  1  0  0  0  0
 17 15  2  0  0  0  0
 18 17  1  0  0  0  0
 12 18  2  0  0  0  0
 18 19  1  0  0  0  0
M  END
> <ChemID>
101899

> <CAS>
106220-83-1

> <Original_SMILES>
Clc1cc(Cl)c(cc1)Oc1c(Cl)c(Cl)c(Cl)cc1Cl

> <preferred_name>
2,2',4,4',5,6-Hexachlorodiphenyl ether

> <dsstox_substance_id>
DTXSID40147549

> <dsstox_compound_id>
DTXCID3070040

> <qc_level>


> <Canonical_QSARr>
ClC1=CC(Cl)=C(C=C1)OC1=C(Cl)C(Cl)=C(Cl)C=C1Cl

> <InChI_Code_QSARr>
InChI=1S/C12H4Cl6O/c13-5-1-2-9(6(14)3-5)19-12-8(16)4-7(15)10(17)11(12)18/h1-4H

> <InChI Key_QSARr>
BIWCEXHDIQZFHI-UHFFFAOYSA-N

> <Salt_Solvent>


> <Salt_Solvent_ID>
0

> <MPID>
319918

> <HL Reference>


> <HL Temperature>


> <LogHL>
-2.995713027142711

> <Tr_1_Tst_0>


$$$$
101900
  Mrv171c012241914302D          

 19 20  0  0  0  0            999 V2000
    2.9286    2.2145    0.0000 Cl  0  0  0  0  0  0  0  0  0  0  0  0
    3.6430    1.8020    0.0000 C   0  0  0  0  0  0  0  0  0  0  0  0
    4.3575    2.2145    0.0000 C   0  0  0  0  0  0  0  0  0  0  0  0
    4.3575    3.0395    0.0000 Cl  0  0  0  0  0  0  0  0  0  0  0  0
    5.0720    1.8020    0.0000 C   0  0  0  0  0  0  0  0  0  0  0  0
    5.7864    2.2145    0.0000 Cl  0  0  0  0  0  0  0  0  0  0  0  0
    5.0720    0.9770    0.0000 C   0  0  0  0  0  0  0  0  0  0  0  0
    4.3575    0.5645    0.0000 C   0  0  0  0  0  0  0  0  0  0  0  0
    3.6430    0.9770    0.0000 C   0  0  0  0  0  0  0  0  0  0  0  0
    2.9286    0.5645    0.0000 O   0  0  0  0  0  0  0  0  0  0  0  0
    2.9286   -0.2605    0.0000 C   0  0  0  0  0  0  0  0  0  0  0  0
    2.2141   -0.6730    0.0000 C   0  0  0  0  0  0  0  0  0  0  0  0
    1.4996   -0.2605    0.0000 Cl  0  0  0  0  0  0  0  0  0  0  0  0
    2.2141   -1.4980    0.0000 C   0  0  0  0  0  0  0  0  0  0  0  0
    2.9286   -1.9105    0.0000 C   0  0  0  0  0  0  0  0  0  0  0  0
    2.9286   -2.7355    0.0000 Cl  0  0  0  0  0  0  0  0  0  0  0  0
    3.6430   -1.4980    0.0000 C   0  0  0  0  0  0  0  0  0  0  0  0
    3.6430   -0.6730    0.0000 C   0  0  0  0  0  0  0  0  0  0  0  0
    4.3575   -0.2605    0.0000 Cl  0  0  0  0  0  0  0  0  0  0  0  0
  1  2  1  0  0  0  0
  3  2  1  0  0  0  0
  3  4  1  0  0  0  0
  5  3  2  0  0  0  0
  5  6  1  0  0  0  0
  7  5  1  0  0  0  0
  8  7  2  0  0  0  0
  9  8  1  0  0  0  0
  2  9  2  0  0  0  0
  9 10  1  0  0  0  0
 10 11  1  0  0  0  0
 12 11  1  0  0  0  0
 12 13  1  0  0  0  0
 14 12  2  0  0  0  0
 15 14  1  0  0  0  0
 15 16  1  0  0  0  0
 17 15  2  0  0  0  0
 18 17  1  0  0  0  0
 11 18  2  0  0  0  0
 18 19  1  0  0  0  0
M  END
> <ChemID>
101900

> <CAS>
106220-82-0

> <Original_SMILES>
Clc1cc(Cl)c(Oc2ccc(Cl)c(Cl)c2Cl)c(Cl)c1

> <preferred_name>
2,2',3,4,4',6'-Hexachlorodiphenyl ether

> <dsstox_substance_id>
DTXSID80147548

> <dsstox_compound_id>
DTXCID4070039

> <qc_level>


> <Canonical_QSARr>
ClC1C=C(Cl)C(OC2C=CC(Cl)=C(Cl)C=2Cl)=C(Cl)C=1

> <InChI_Code_QSARr>
InChI=1S/C12H4Cl6O/c13-5-3-7(15)12(8(16)4-5)19-9-2-1-6(14)10(17)11(9)18/h1-4H

> <InChI Key_QSARr>
XDAOZRZWYVKIAK-UHFFFAOYSA-N

> <Salt_Solvent>


> <Salt_Solvent_ID>
0

> <MPID>
319922

> <HL Reference>


> <HL Temperature>


> <LogHL>
-3.4757726948063445

> <Tr_1_Tst_0>


$$$$
101901
  Mrv171c012241914302D          

 19 20  0  0  0  0            999 V2000
   -0.6768    4.4723    0.0000 C   0  0  0  0  0  0  0  0  0  0  0  0
   -1.3913    4.8848    0.0000 C   0  0  0  0  0  0  0  0  0  0  0  0
   -1.3913    5.7098    0.0000 Cl  0  0  0  0  0  0  0  0  0  0  0  0
   -2.1058    4.4723    0.0000 C   0  0  0  0  0  0  0  0  0  0  0  0
   -2.8203    4.8848    0.0000 Cl  0  0  0  0  0  0  0  0  0  0  0  0
   -2.1058    3.6473    0.0000 C   0  0  0  0  0  0  0  0  0  0  0  0
   -2.8203    3.2348    0.0000 O   0  0  0  0  0  0  0  0  0  0  0  0
   -2.8203    2.4098    0.0000 C   0  0  0  0  0  0  0  0  0  0  0  0
   -3.5347    1.9973    0.0000 C   0  0  0  0  0  0  0  0  0  0  0  0
   -4.2492    2.4098    0.0000 Cl  0  0  0  0  0  0  0  0  0  0  0  0
   -3.5347    1.1723    0.0000 C   0  0  0  0  0  0  0  0  0  0  0  0
   -2.8203    0.7598    0.0000 C   0  0  0  0  0  0  0  0  0  0  0  0
   -2.8203   -0.0652    0.0000 Cl  0  0  0  0  0  0  0  0  0  0  0  0
   -2.1058    1.1723    0.0000 C   0  0  0  0  0  0  0  0  0  0  0  0
   -1.3913    0.7598    0.0000 Cl  0  0  0  0  0  0  0  0  0  0  0  0
   -2.1058    1.9973    0.0000 C   0  0  0  0  0  0  0  0  0  0  0  0
   -1.3913    3.2348    0.0000 C   0  0  0  0  0  0  0  0  0  0  0  0
   -0.6768    3.6473    0.0000 C   0  0  0  0  0  0  0  0  0  0  0  0
    0.0376    3.2348    0.0000 Cl  0  0  0  0  0  0  0  0  0  0  0  0
  2  1  1  0  0  0  0
  2  3  1  0  0  0  0
  4  2  2  0  0  0  0
  4  5  1  0  0  0  0
  6  4  1  0  0  0  0
  6  7  1  0  0  0  0
  7  8  1  0  0  0  0
  9  8  2  0  0  0  0
  9 10  1  0  0  0  0
 11  9  1  0  0  0  0
 12 11  2  0  0  0  0
 12 13  1  0  0  0  0
 14 12  1  0  0  0  0
 14 15  1  0  0  0  0
 16 14  2  0  0  0  0
  8 16  1  0  0  0  0
 17  6  2  0  0  0  0
 18 17  1  0  0  0  0
  1 18  2  0  0  0  0
 18 19  1  0  0  0  0
M  END
> <ChemID>
101901

> <CAS>
162853-28-3

> <Original_SMILES>
Clc1cc(Oc2cc(Cl)c(Cl)cc2Cl)c(Cl)c(Cl)c1

> <preferred_name>
2,2',3,4',5,5'-Hexachlorodiphenylether

> <dsstox_substance_id>
DTXSID60877013

> <dsstox_compound_id>
DTXCID701015097

> <qc_level>


> <Canonical_QSARr>
ClC1C=C(Cl)C=C(OC2C=C(Cl)C(Cl)=CC=2Cl)C=1Cl

> <InChI_Code_QSARr>
InChI=1S/C12H4Cl6O/c13-5-1-9(17)12(18)11(2-5)19-10-4-7(15)6(14)3-8(10)16/h1-4H

> <InChI Key_QSARr>
SFTBUGPDOJDENF-UHFFFAOYSA-N

> <Salt_Solvent>


> <Salt_Solvent_ID>
0

> <MPID>
319926

> <HL Reference>


> <HL Temperature>


> <LogHL>
-3.0148453256993784

> <Tr_1_Tst_0>


$$$$
101902
  Mrv171c012241914302D          

 19 20  0  0  0  0            999 V2000
    4.3576    1.9323    0.0000 Cl  0  0  0  0  0  0  0  0  0  0  0  0
    3.6431    1.5198    0.0000 C   0  0  0  0  0  0  0  0  0  0  0  0
    2.9286    1.9323    0.0000 C   0  0  0  0  0  0  0  0  0  0  0  0
    2.9286    2.7573    0.0000 Cl  0  0  0  0  0  0  0  0  0  0  0  0
    2.2141    1.5198    0.0000 C   0  0  0  0  0  0  0  0  0  0  0  0
    2.2141    0.6948    0.0000 C   0  0  0  0  0  0  0  0  0  0  0  0
    1.4997    0.2823    0.0000 Cl  0  0  0  0  0  0  0  0  0  0  0  0
    2.9286    0.2823    0.0000 C   0  0  0  0  0  0  0  0  0  0  0  0
    2.9286   -0.5427    0.0000 Cl  0  0  0  0  0  0  0  0  0  0  0  0
    3.6431    0.6948    0.0000 C   0  0  0  0  0  0  0  0  0  0  0  0
    4.3576    0.2823    0.0000 O   0  0  0  0  0  0  0  0  0  0  0  0
    4.3576   -0.5427    0.0000 C   0  0  0  0  0  0  0  0  0  0  0  0
    3.6431   -0.9552    0.0000 C   0  0  0  0  0  0  0  0  0  0  0  0
    3.6431   -1.7802    0.0000 C   0  0  0  0  0  0  0  0  0  0  0  0
    4.3576   -2.1927    0.0000 C   0  0  0  0  0  0  0  0  0  0  0  0
    4.3576   -3.0177    0.0000 Cl  0  0  0  0  0  0  0  0  0  0  0  0
    5.0720   -1.7802    0.0000 C   0  0  0  0  0  0  0  0  0  0  0  0
    5.0720   -0.9552    0.0000 C   0  0  0  0  0  0  0  0  0  0  0  0
    5.7865   -0.5427    0.0000 Cl  0  0  0  0  0  0  0  0  0  0  0  0
  1  2  1  0  0  0  0
  3  2  1  0  0  0  0
  3  4  1  0  0  0  0
  5  3  2  0  0  0  0
  6  5  1  0  0  0  0
  6  7  1  0  0  0  0
  8  6  2  0  0  0  0
  8  9  1  0  0  0  0
 10  8  1  0  0  0  0
  2 10  2  0  0  0  0
 10 11  1  0  0  0  0
 11 12  1  0  0  0  0
 13 12  1  0  0  0  0
 14 13  2  0  0  0  0
 15 14  1  0  0  0  0
 15 16  1  0  0  0  0
 17 15  2  0  0  0  0
 18 17  1  0  0  0  0
 12 18  2  0  0  0  0
 18 19  1  0  0  0  0
M  END
> <ChemID>
101902

> <CAS>
116995-18-7

> <Original_SMILES>
Clc1cc(Cl)c(cc1)Oc1c(Cl)c(Cl)cc(Cl)c1Cl

> <preferred_name>
2,2',3,4',5,6-Hexachlorodiphenyl ether

> <dsstox_substance_id>
DTXSID30151650

> <dsstox_compound_id>
DTXCID9074141

> <qc_level>


> <Canonical_QSARr>
ClC1=CC(Cl)=C(C=C1)OC1C(Cl)=C(Cl)C=C(Cl)C=1Cl

> <InChI_Code_QSARr>
InChI=1S/C12H4Cl6O/c13-5-1-2-9(6(14)3-5)19-12-10(17)7(15)4-8(16)11(12)18/h1-4H

> <InChI Key_QSARr>
DIBYIHMYEPMGKC-UHFFFAOYSA-N

> <Salt_Solvent>


> <Salt_Solvent_ID>
0

> <MPID>
319930

> <HL Reference>


> <HL Temperature>


> <LogHL>
-3.00571672978183

> <Tr_1_Tst_0>


$$$$
101903
  Mrv171c012241914302D          

 19 20  0  0  0  0            999 V2000
    4.5125    5.8185    0.0000 C   0  0  0  0  0  0  0  0  0  0  0  0
    3.7980    6.2310    0.0000 C   0  0  0  0  0  0  0  0  0  0  0  0
    3.7980    7.0560    0.0000 Cl  0  0  0  0  0  0  0  0  0  0  0  0
    3.0836    5.8185    0.0000 C   0  0  0  0  0  0  0  0  0  0  0  0
    2.3691    6.2310    0.0000 Cl  0  0  0  0  0  0  0  0  0  0  0  0
    3.0836    4.9935    0.0000 C   0  0  0  0  0  0  0  0  0  0  0  0
    2.3691    4.5810    0.0000 O   0  0  0  0  0  0  0  0  0  0  0  0
    2.3691    3.7560    0.0000 C   0  0  0  0  0  0  0  0  0  0  0  0
    1.6546    3.3435    0.0000 C   0  0  0  0  0  0  0  0  0  0  0  0
    0.9402    3.7560    0.0000 Cl  0  0  0  0  0  0  0  0  0  0  0  0
    1.6546    2.5185    0.0000 C   0  0  0  0  0  0  0  0  0  0  0  0
    2.3691    2.1060    0.0000 C   0  0  0  0  0  0  0  0  0  0  0  0
    2.3691    1.2810    0.0000 Cl  0  0  0  0  0  0  0  0  0  0  0  0
    3.0836    2.5185    0.0000 C   0  0  0  0  0  0  0  0  0  0  0  0
    3.7980    2.1060    0.0000 Cl  0  0  0  0  0  0  0  0  0  0  0  0
    3.0836    3.3435    0.0000 C   0  0  0  0  0  0  0  0  0  0  0  0
    3.7980    4.5810    0.0000 C   0  0  0  0  0  0  0  0  0  0  0  0
    3.7980    3.7560    0.0000 Cl  0  0  0  0  0  0  0  0  0  0  0  0
    4.5125    4.9935    0.0000 C   0  0  0  0  0  0  0  0  0  0  0  0
  2  1  1  0  0  0  0
  2  3  1  0  0  0  0
  4  2  2  0  0  0  0
  4  5  1  0  0  0  0
  6  4  1  0  0  0  0
  6  7  1  0  0  0  0
  7  8  1  0  0  0  0
  9  8  2  0  0  0  0
  9 10  1  0  0  0  0
 11  9  1  0  0  0  0
 12 11  2  0  0  0  0
 12 13  1  0  0  0  0
 14 12  1  0  0  0  0
 14 15  1  0  0  0  0
 16 14  2  0  0  0  0
  8 16  1  0  0  0  0
 17  6  2  0  0  0  0
 17 18  1  0  0  0  0
 19 17  1  0  0  0  0
  1 19  2  0  0  0  0
M  END
> <ChemID>
101903

> <CAS>
85918-37-2

> <Original_SMILES>
Clc1ccc(Cl)c(Oc2cc(Cl)c(Cl)cc2Cl)c1Cl

> <preferred_name>
2,2',3,4',5',6-Hexachlorodiphenylether

> <dsstox_substance_id>
DTXSID70877009

> <dsstox_compound_id>
DTXCID901015093

> <qc_level>


> <Canonical_QSARr>
ClC1=CC(OC2C(Cl)=C(Cl)C=CC=2Cl)=C(Cl)C=C1Cl

> <InChI_Code_QSARr>
InChI=1S/C12H4Cl6O/c13-5-1-2-6(14)12(11(5)18)19-10-4-8(16)7(15)3-9(10)17/h1-4H

> <InChI Key_QSARr>
RDKSFIZNZGWNLA-UHFFFAOYSA-N

> <Salt_Solvent>


> <Salt_Solvent_ID>
0

> <MPID>
319934

> <HL Reference>


> <HL Temperature>


> <LogHL>
-3.495708601408694

> <Tr_1_Tst_0>


$$$$
101904
  Mrv171c012241914302D          

 19 20  0  0  0  0            999 V2000
    1.6503    0.3691    0.0000 Cl  0  0  0  0  0  0  0  0  0  0  0  0
    2.3648    0.7816    0.0000 C   0  0  0  0  0  0  0  0  0  0  0  0
    2.3648    1.6066    0.0000 C   0  0  0  0  0  0  0  0  0  0  0  0
    3.0792    2.0191    0.0000 C   0  0  0  0  0  0  0  0  0  0  0  0
    3.0792    2.8441    0.0000 Cl  0  0  0  0  0  0  0  0  0  0  0  0
    3.7937    1.6066    0.0000 C   0  0  0  0  0  0  0  0  0  0  0  0
    4.5082    2.0191    0.0000 Cl  0  0  0  0  0  0  0  0  0  0  0  0
    3.7937    0.7816    0.0000 C   0  0  0  0  0  0  0  0  0  0  0  0
    3.0792    0.3691    0.0000 C   0  0  0  0  0  0  0  0  0  0  0  0
    3.0792   -0.4559    0.0000 O   0  0  0  0  0  0  0  0  0  0  0  0
    3.7937   -0.8684    0.0000 C   0  0  0  0  0  0  0  0  0  0  0  0
    3.7937   -1.6934    0.0000 C   0  0  0  0  0  0  0  0  0  0  0  0
    4.5082   -2.1059    0.0000 C   0  0  0  0  0  0  0  0  0  0  0  0
    4.5082   -2.9309    0.0000 Cl  0  0  0  0  0  0  0  0  0  0  0  0
    5.2226   -1.6934    0.0000 C   0  0  0  0  0  0  0  0  0  0  0  0
    5.9371   -2.1059    0.0000 Cl  0  0  0  0  0  0  0  0  0  0  0  0
    5.2226   -0.8684    0.0000 C   0  0  0  0  0  0  0  0  0  0  0  0
    4.5082   -0.4559    0.0000 C   0  0  0  0  0  0  0  0  0  0  0  0
    4.5082    0.3691    0.0000 Cl  0  0  0  0  0  0  0  0  0  0  0  0
  1  2  1  0  0  0  0
  3  2  2  0  0  0  0
  4  3  1  0  0  0  0
  4  5  1  0  0  0  0
  6  4  2  0  0  0  0
  6  7  1  0  0  0  0
  8  6  1  0  0  0  0
  9  8  2  0  0  0  0
  2  9  1  0  0  0  0
  9 10  1  0  0  0  0
 10 11  1  0  0  0  0
 12 11  2  0  0  0  0
 13 12  1  0  0  0  0
 13 14  1  0  0  0  0
 15 13  2  0  0  0  0
 15 16  1  0  0  0  0
 17 15  1  0  0  0  0
 18 17  2  0  0  0  0
 11 18  1  0  0  0  0
 18 19  1  0  0  0  0
M  END
> <ChemID>
101904

> <CAS>
71859-30-8

> <Original_SMILES>
Clc1cc(Cl)c(Cl)cc1Oc1cc(Cl)c(Cl)cc1Cl

> <preferred_name>
2,2',4,4',5,5'-Hexachlorodiphenyl ether

> <dsstox_substance_id>
DTXSID80222127

> <dsstox_compound_id>
DTXCID80144618

> <qc_level>


> <Canonical_QSARr>
ClC1C=C(Cl)C(=CC=1Cl)OC1=CC(Cl)=C(Cl)C=C1Cl

> <InChI_Code_QSARr>
InChI=1S/C12H4Cl6O/c13-5-1-9(17)11(3-7(5)15)19-12-4-8(16)6(14)2-10(12)18/h1-4H

> <InChI Key_QSARr>
PECXRRMHOQBOIE-UHFFFAOYSA-N

> <Salt_Solvent>


> <Salt_Solvent_ID>
0

> <MPID>
319938

> <HL Reference>


> <HL Temperature>


> <LogHL>
-3.1057321333825167

> <Tr_1_Tst_0>


$$$$
101905
  Mrv171c012241914302D          

 19 20  0  0  0  0            999 V2000
    1.6500    0.6948    0.0000 Cl  0  0  0  0  0  0  0  0  0  0  0  0
    2.3645    1.1073    0.0000 C   0  0  0  0  0  0  0  0  0  0  0  0
    2.3645    1.9323    0.0000 C   0  0  0  0  0  0  0  0  0  0  0  0
    3.0790    2.3448    0.0000 C   0  0  0  0  0  0  0  0  0  0  0  0
    3.0790    3.1698    0.0000 Cl  0  0  0  0  0  0  0  0  0  0  0  0
    3.7934    1.9323    0.0000 C   0  0  0  0  0  0  0  0  0  0  0  0
    4.5079    2.3448    0.0000 Cl  0  0  0  0  0  0  0  0  0  0  0  0
    3.7934    1.1073    0.0000 C   0  0  0  0  0  0  0  0  0  0  0  0
    3.0790    0.6948    0.0000 C   0  0  0  0  0  0  0  0  0  0  0  0
    3.0790   -0.1302    0.0000 O   0  0  0  0  0  0  0  0  0  0  0  0
    3.7934   -0.5427    0.0000 C   0  0  0  0  0  0  0  0  0  0  0  0
    3.7934   -1.3677    0.0000 C   0  0  0  0  0  0  0  0  0  0  0  0
    3.0790   -1.7802    0.0000 Cl  0  0  0  0  0  0  0  0  0  0  0  0
    4.5079   -1.7802    0.0000 C   0  0  0  0  0  0  0  0  0  0  0  0
    5.2224   -1.3677    0.0000 C   0  0  0  0  0  0  0  0  0  0  0  0
    5.9369   -1.7802    0.0000 Cl  0  0  0  0  0  0  0  0  0  0  0  0
    5.2224   -0.5427    0.0000 C   0  0  0  0  0  0  0  0  0  0  0  0
    4.5079   -0.1302    0.0000 C   0  0  0  0  0  0  0  0  0  0  0  0
    4.5079    0.6948    0.0000 Cl  0  0  0  0  0  0  0  0  0  0  0  0
  1  2  1  0  0  0  0
  3  2  2  0  0  0  0
  4  3  1  0  0  0  0
  4  5  1  0  0  0  0
  6  4  2  0  0  0  0
  6  7  1  0  0  0  0
  8  6  1  0  0  0  0
  9  8  2  0  0  0  0
  2  9  1  0  0  0  0
  9 10  1  0  0  0  0
 10 11  1  0  0  0  0
 12 11  1  0  0  0  0
 12 13  1  0  0  0  0
 14 12  2  0  0  0  0
 15 14  1  0  0  0  0
 15 16  1  0  0  0  0
 17 15  2  0  0  0  0
 18 17  1  0  0  0  0
 11 18  2  0  0  0  0
 18 19  1  0  0  0  0
M  END
> <ChemID>
101905

> <CAS>
106220-81-9

> <Original_SMILES>
Clc1cc(Cl)c(Oc2cc(Cl)c(Cl)cc2Cl)c(Cl)c1

> <preferred_name>
2,2',4,4',5,6'-Hexachlorodiphenyl ether

> <dsstox_substance_id>
DTXSID20147547

> <dsstox_compound_id>
DTXCID9070038

> <qc_level>


> <Canonical_QSARr>
ClC1C=C(Cl)C(OC2=CC(Cl)=C(Cl)C=C2Cl)=C(Cl)C=1

> <InChI_Code_QSARr>
InChI=1S/C12H4Cl6O/c13-5-1-9(17)12(10(18)2-5)19-11-4-7(15)6(14)3-8(11)16/h1-4H

> <InChI Key_QSARr>
XKQUAQGQLZDDBV-UHFFFAOYSA-N

> <Salt_Solvent>


> <Salt_Solvent_ID>
0

> <MPID>
319942

> <HL Reference>


> <HL Temperature>


> <LogHL>
-3.155744687968316

> <Tr_1_Tst_0>


$$$$
101906
  Mrv171c012241914302D          

 19 20  0  0  0  0            999 V2000
    2.7076   -1.7370    0.0000 C   0  0  0  0  0  0  0  0  0  0  0  0
    3.4221   -1.3245    0.0000 Cl  0  0  0  0  0  0  0  0  0  0  0  0
    1.9931   -1.3245    0.0000 C   0  0  0  0  0  0  0  0  0  0  0  0
    1.9931   -0.4995    0.0000 Cl  0  0  0  0  0  0  0  0  0  0  0  0
    1.2787   -1.7370    0.0000 C   0  0  0  0  0  0  0  0  0  0  0  0
    0.5642   -1.3245    0.0000 Cl  0  0  0  0  0  0  0  0  0  0  0  0
    1.2787   -2.5620    0.0000 C   0  0  0  0  0  0  0  0  0  0  0  0
    1.9931   -2.9745    0.0000 C   0  0  0  0  0  0  0  0  0  0  0  0
    1.9931   -3.7995    0.0000 O   0  0  0  0  0  0  0  0  0  0  0  0
    2.7076   -4.2120    0.0000 C   0  0  0  0  0  0  0  0  0  0  0  0
    2.7076   -5.0370    0.0000 C   0  0  0  0  0  0  0  0  0  0  0  0
    3.4221   -5.4495    0.0000 C   0  0  0  0  0  0  0  0  0  0  0  0
    4.1366   -5.0370    0.0000 C   0  0  0  0  0  0  0  0  0  0  0  0
    4.8510   -5.4495    0.0000 Cl  0  0  0  0  0  0  0  0  0  0  0  0
    4.1366   -4.2120    0.0000 C   0  0  0  0  0  0  0  0  0  0  0  0
    4.8510   -3.7995    0.0000 Cl  0  0  0  0  0  0  0  0  0  0  0  0
    3.4221   -3.7995    0.0000 C   0  0  0  0  0  0  0  0  0  0  0  0
    2.7076   -2.5620    0.0000 C   0  0  0  0  0  0  0  0  0  0  0  0
    3.4221   -2.9745    0.0000 Cl  0  0  0  0  0  0  0  0  0  0  0  0
  1  2  1  0  0  0  0
  3  1  1  0  0  0  0
  3  4  1  0  0  0  0
  5  3  2  0  0  0  0
  5  6  1  0  0  0  0
  7  5  1  0  0  0  0
  8  7  2  0  0  0  0
  8  9  1  0  0  0  0
  9 10  1  0  0  0  0
 11 10  1  0  0  0  0
 12 11  2  0  0  0  0
 13 12  1  0  0  0  0
 13 14  1  0  0  0  0
 15 13  2  0  0  0  0
 15 16  1  0  0  0  0
 17 15  1  0  0  0  0
 10 17  2  0  0  0  0
 18  8  1  0  0  0  0
  1 18  2  0  0  0  0
 18 19  1  0  0  0  0
M  END
> <ChemID>
101906

> <CAS>
109828-22-0

> <Original_SMILES>
Clc1c(cc(Cl)c(Cl)c1Cl)Oc1cc(Cl)c(Cl)cc1

> <preferred_name>
Benzene, 1,2,3,4-tetrachloro-5-(3,4-dichlorophenoxy)-

> <dsstox_substance_id>
DTXSID3074448

> <dsstox_compound_id>
DTXCID8033148

> <qc_level>


> <Canonical_QSARr>
ClC1C(=CC(Cl)=C(Cl)C=1Cl)OC1=CC(Cl)=C(Cl)C=C1

> <InChI_Code_QSARr>
InChI=1S/C12H4Cl6O/c13-6-2-1-5(3-7(6)14)19-9-4-8(15)10(16)12(18)11(9)17/h1-4H

> <InChI Key_QSARr>
GHTWMHLFFDEYRE-UHFFFAOYSA-N

> <Salt_Solvent>


> <Salt_Solvent_ID>
0

> <MPID>
319946

> <HL Reference>


> <HL Temperature>


> <LogHL>
-3.09573304263813

> <Tr_1_Tst_0>


$$$$
101907
  Mrv171c012241914302D          

 19 20  0  0  0  0            999 V2000
    2.8579    0.8684    0.0000 C   0  0  0  0  0  0  0  0  0  0  0  0
    2.1434    1.2809    0.0000 C   0  0  0  0  0  0  0  0  0  0  0  0
    2.1434    2.1059    0.0000 Cl  0  0  0  0  0  0  0  0  0  0  0  0
    1.4289    0.8684    0.0000 C   0  0  0  0  0  0  0  0  0  0  0  0
    0.7145    1.2809    0.0000 Cl  0  0  0  0  0  0  0  0  0  0  0  0
    1.4289    0.0434    0.0000 C   0  0  0  0  0  0  0  0  0  0  0  0
    0.7145   -0.3691    0.0000 Cl  0  0  0  0  0  0  0  0  0  0  0  0
    2.1434   -0.3691    0.0000 C   0  0  0  0  0  0  0  0  0  0  0  0
    2.1434   -1.1941    0.0000 O   0  0  0  0  0  0  0  0  0  0  0  0
    2.8579   -1.6066    0.0000 C   0  0  0  0  0  0  0  0  0  0  0  0
    2.8579   -2.4316    0.0000 C   0  0  0  0  0  0  0  0  0  0  0  0
    3.5723   -2.8441    0.0000 C   0  0  0  0  0  0  0  0  0  0  0  0
    3.5723   -3.6691    0.0000 Cl  0  0  0  0  0  0  0  0  0  0  0  0
    4.2868   -2.4316    0.0000 C   0  0  0  0  0  0  0  0  0  0  0  0
    5.0013   -2.8441    0.0000 Cl  0  0  0  0  0  0  0  0  0  0  0  0
    4.2868   -1.6066    0.0000 C   0  0  0  0  0  0  0  0  0  0  0  0
    5.0013   -1.1941    0.0000 Cl  0  0  0  0  0  0  0  0  0  0  0  0
    3.5723   -1.1941    0.0000 C   0  0  0  0  0  0  0  0  0  0  0  0
    2.8579    0.0434    0.0000 C   0  0  0  0  0  0  0  0  0  0  0  0
  2  1  1  0  0  0  0
  2  3  1  0  0  0  0
  4  2  2  0  0  0  0
  4  5  1  0  0  0  0
  6  4  1  0  0  0  0
  6  7  1  0  0  0  0
  8  6  2  0  0  0  0
  8  9  1  0  0  0  0
  9 10  1  0  0  0  0
 11 10  1  0  0  0  0
 12 11  2  0  0  0  0
 12 13  1  0  0  0  0
 14 12  1  0  0  0  0
 14 15  1  0  0  0  0
 16 14  2  0  0  0  0
 16 17  1  0  0  0  0
 18 16  1  0  0  0  0
 10 18  2  0  0  0  0
 19  8  1  0  0  0  0
  1 19  2  0  0  0  0
M  END
> <ChemID>
101907

> <CAS>
94339-60-3

> <Original_SMILES>
Clc1ccc(Oc2cc(Cl)c(Cl)c(Cl)c2)c(Cl)c1Cl

> <preferred_name>
2,3,3',4,4',5'-Hexachlorodiphenylether

> <dsstox_substance_id>
DTXSID20877014

> <dsstox_compound_id>
DTXCID401015098

> <qc_level>


> <Canonical_QSARr>
ClC1C=CC(OC2C=C(Cl)C(Cl)=C(Cl)C=2)=C(Cl)C=1Cl

> <InChI_Code_QSARr>
InChI=1S/C12H4Cl6O/c13-6-1-2-9(12(18)11(6)17)19-5-3-7(14)10(16)8(15)4-5/h1-4H

> <InChI Key_QSARr>
FEIDIWDEJQVIPO-UHFFFAOYSA-N

> <Salt_Solvent>


> <Salt_Solvent_ID>
0

> <MPID>
319950

> <HL Reference>


> <HL Temperature>


> <LogHL>
-3.4456901673447407

> <Tr_1_Tst_0>


$$$$
101908
  Mrv171c012241914302D          

 19 20  0  0  0  0            999 V2000
    2.8579    0.7816    0.0000 C   0  0  0  0  0  0  0  0  0  0  0  0
    2.1434    1.1941    0.0000 C   0  0  0  0  0  0  0  0  0  0  0  0
    2.1434    2.0191    0.0000 O   0  0  0  0  0  0  0  0  0  0  0  0
    1.4289    2.4316    0.0000 C   0  0  0  0  0  0  0  0  0  0  0  0
    1.4289    3.2566    0.0000 C   0  0  0  0  0  0  0  0  0  0  0  0
    2.1434    3.6691    0.0000 Cl  0  0  0  0  0  0  0  0  0  0  0  0
    0.7145    3.6691    0.0000 C   0  0  0  0  0  0  0  0  0  0  0  0
    0.7145    4.4941    0.0000 Cl  0  0  0  0  0  0  0  0  0  0  0  0
   -0.0000    3.2566    0.0000 C   0  0  0  0  0  0  0  0  0  0  0  0
   -0.0000    2.4316    0.0000 C   0  0  0  0  0  0  0  0  0  0  0  0
   -0.7145    2.0191    0.0000 Cl  0  0  0  0  0  0  0  0  0  0  0  0
    0.7145    2.0191    0.0000 C   0  0  0  0  0  0  0  0  0  0  0  0
    0.7145    1.1941    0.0000 Cl  0  0  0  0  0  0  0  0  0  0  0  0
    1.4289    0.7816    0.0000 C   0  0  0  0  0  0  0  0  0  0  0  0
    1.4289   -0.0434    0.0000 C   0  0  0  0  0  0  0  0  0  0  0  0
    0.7145   -0.4559    0.0000 Cl  0  0  0  0  0  0  0  0  0  0  0  0
    2.1434   -0.4559    0.0000 C   0  0  0  0  0  0  0  0  0  0  0  0
    2.1434   -1.2809    0.0000 Cl  0  0  0  0  0  0  0  0  0  0  0  0
    2.8579   -0.0434    0.0000 C   0  0  0  0  0  0  0  0  0  0  0  0
  2  1  1  0  0  0  0
  2  3  1  0  0  0  0
  3  4  1  0  0  0  0
  5  4  1  0  0  0  0
  5  6  1  0  0  0  0
  7  5  2  0  0  0  0
  7  8  1  0  0  0  0
  9  7  1  0  0  0  0
 10  9  2  0  0  0  0
 10 11  1  0  0  0  0
 12 10  1  0  0  0  0
  4 12  2  0  0  0  0
 12 13  1  0  0  0  0
 14  2  2  0  0  0  0
 15 14  1  0  0  0  0
 15 16  1  0  0  0  0
 17 15  2  0  0  0  0
 17 18  1  0  0  0  0
 19 17  1  0  0  0  0
  1 19  2  0  0  0  0
M  END
> <ChemID>
101908

> <CAS>
155999-97-6

> <Original_SMILES>
Clc1ccc(cc1Cl)Oc1c(Cl)c(Cl)cc(Cl)c1Cl

> <preferred_name>
2,3,3',4',5,6-Hexachlorodiphenylether

> <dsstox_substance_id>
DTXSID80877015

> <dsstox_compound_id>
DTXCID101015099

> <qc_level>


> <Canonical_QSARr>
ClC1=C(OC2=CC(Cl)=C(Cl)C=C2)C(Cl)=C(Cl)C=C1Cl

> <InChI_Code_QSARr>
InChI=1S/C12H4Cl6O/c13-6-2-1-5(3-7(6)14)19-12-10(17)8(15)4-9(16)11(12)18/h1-4H

> <InChI Key_QSARr>
YLAYOOJLJKJGCF-UHFFFAOYSA-N

> <Salt_Solvent>


> <Salt_Solvent_ID>
0

> <MPID>
319954

> <HL Reference>


> <HL Temperature>


> <LogHL>
-3.205686961173761

> <Tr_1_Tst_0>


$$$$
101909
  Mrv171c012241914302D          

 19 20  0  0  0  0            999 V2000
    3.9815    0.9119    0.0000 Cl  0  0  0  0  0  0  0  0  0  0  0  0
    3.2670    0.4994    0.0000 C   0  0  0  0  0  0  0  0  0  0  0  0
    2.5526    0.9119    0.0000 C   0  0  0  0  0  0  0  0  0  0  0  0
    2.5526    1.7369    0.0000 Cl  0  0  0  0  0  0  0  0  0  0  0  0
    1.8381    0.4994    0.0000 C   0  0  0  0  0  0  0  0  0  0  0  0
    1.1236    0.9119    0.0000 Cl  0  0  0  0  0  0  0  0  0  0  0  0
    1.8381   -0.3256    0.0000 C   0  0  0  0  0  0  0  0  0  0  0  0
    1.1236   -0.7381    0.0000 Cl  0  0  0  0  0  0  0  0  0  0  0  0
    2.5526   -0.7381    0.0000 C   0  0  0  0  0  0  0  0  0  0  0  0
    2.5526   -1.5631    0.0000 Cl  0  0  0  0  0  0  0  0  0  0  0  0
    3.2670   -0.3256    0.0000 C   0  0  0  0  0  0  0  0  0  0  0  0
    3.9815   -0.7381    0.0000 O   0  0  0  0  0  0  0  0  0  0  0  0
    4.6960   -0.3256    0.0000 C   0  0  0  0  0  0  0  0  0  0  0  0
    5.4105   -0.7381    0.0000 C   0  0  0  0  0  0  0  0  0  0  0  0
    6.1249   -0.3256    0.0000 C   0  0  0  0  0  0  0  0  0  0  0  0
    6.1249    0.4994    0.0000 C   0  0  0  0  0  0  0  0  0  0  0  0
    6.8394    0.9119    0.0000 Cl  0  0  0  0  0  0  0  0  0  0  0  0
    5.4105    0.9119    0.0000 C   0  0  0  0  0  0  0  0  0  0  0  0
    4.6960    0.4994    0.0000 C   0  0  0  0  0  0  0  0  0  0  0  0
  1  2  1  0  0  0  0
  3  2  1  0  0  0  0
  3  4  1  0  0  0  0
  5  3  2  0  0  0  0
  5  6  1  0  0  0  0
  7  5  1  0  0  0  0
  7  8  1  0  0  0  0
  9  7  2  0  0  0  0
  9 10  1  0  0  0  0
 11  9  1  0  0  0  0
  2 11  2  0  0  0  0
 11 12  1  0  0  0  0
 12 13  1  0  0  0  0
 14 13  1  0  0  0  0
 15 14  2  0  0  0  0
 16 15  1  0  0  0  0
 16 17  1  0  0  0  0
 18 16  2  0  0  0  0
 19 18  1  0  0  0  0
 13 19  2  0  0  0  0
M  END
> <ChemID>
101909

> <CAS>
63646-56-0

> <Original_SMILES>
Clc1ccc(cc1)Oc1c(Cl)c(Cl)c(Cl)c(Cl)c1Cl

> <preferred_name>
2,3,4,4',5,6-Hexachlorodiphenyl ether

> <dsstox_substance_id>
DTXSID50213022

> <dsstox_compound_id>
DTXCID50135513

> <qc_level>


> <Canonical_QSARr>
ClC1C=CC(=CC=1)OC1C(Cl)=C(Cl)C(Cl)=C(Cl)C=1Cl

> <InChI_Code_QSARr>
InChI=1S/C12H4Cl6O/c13-5-1-3-6(4-2-5)19-12-10(17)8(15)7(14)9(16)11(12)18/h1-4H

> <InChI Key_QSARr>
MXDRLBNLTLOWGV-UHFFFAOYSA-N

> <Salt_Solvent>


> <Salt_Solvent_ID>
0

> <MPID>
319958

> <HL Reference>


> <HL Temperature>


> <LogHL>
-2.7057079674687556

> <Tr_1_Tst_0>


$$$$
101910
  Mrv171c012241914302D          

 19 20  0  0  0  0            999 V2000
    4.4330    0.3257    0.0000 Cl  0  0  0  0  0  0  0  0  0  0  0  0
    3.7185    0.7382    0.0000 C   0  0  0  0  0  0  0  0  0  0  0  0
    3.7185    1.5632    0.0000 C   0  0  0  0  0  0  0  0  0  0  0  0
    3.0040    1.9757    0.0000 C   0  0  0  0  0  0  0  0  0  0  0  0
    3.0040    2.8007    0.0000 Cl  0  0  0  0  0  0  0  0  0  0  0  0
    2.2895    1.5632    0.0000 C   0  0  0  0  0  0  0  0  0  0  0  0
    1.5751    1.9757    0.0000 Cl  0  0  0  0  0  0  0  0  0  0  0  0
    2.2895    0.7382    0.0000 C   0  0  0  0  0  0  0  0  0  0  0  0
    3.0040    0.3257    0.0000 C   0  0  0  0  0  0  0  0  0  0  0  0
    3.0040   -0.4993    0.0000 O   0  0  0  0  0  0  0  0  0  0  0  0
    3.7185   -0.9118    0.0000 C   0  0  0  0  0  0  0  0  0  0  0  0
    3.7185   -1.7368    0.0000 C   0  0  0  0  0  0  0  0  0  0  0  0
    4.4330   -2.1493    0.0000 C   0  0  0  0  0  0  0  0  0  0  0  0
    4.4330   -2.9743    0.0000 Cl  0  0  0  0  0  0  0  0  0  0  0  0
    5.1474   -1.7368    0.0000 C   0  0  0  0  0  0  0  0  0  0  0  0
    5.8619   -2.1493    0.0000 Cl  0  0  0  0  0  0  0  0  0  0  0  0
    5.1474   -0.9118    0.0000 C   0  0  0  0  0  0  0  0  0  0  0  0
    5.8619   -0.4993    0.0000 Cl  0  0  0  0  0  0  0  0  0  0  0  0
    4.4330   -0.4993    0.0000 C   0  0  0  0  0  0  0  0  0  0  0  0
  1  2  1  0  0  0  0
  3  2  2  0  0  0  0
  4  3  1  0  0  0  0
  4  5  1  0  0  0  0
  6  4  2  0  0  0  0
  6  7  1  0  0  0  0
  8  6  1  0  0  0  0
  9  8  2  0  0  0  0
  2  9  1  0  0  0  0
  9 10  1  0  0  0  0
 10 11  1  0  0  0  0
 12 11  1  0  0  0  0
 13 12  2  0  0  0  0
 13 14  1  0  0  0  0
 15 13  1  0  0  0  0
 15 16  1  0  0  0  0
 17 15  2  0  0  0  0
 17 18  1  0  0  0  0
 19 17  1  0  0  0  0
 11 19  2  0  0  0  0
M  END
> <ChemID>
101910

> <CAS>
131138-20-0

> <Original_SMILES>
Clc1c(Cl)cc(cc1Cl)Oc1cc(Cl)c(Cl)cc1Cl

> <preferred_name>
2,3',4,4',5,5'-Hexachlorodiphenyl ether

> <dsstox_substance_id>
DTXSID90156909

> <dsstox_compound_id>
DTXCID7079400

> <qc_level>


> <Canonical_QSARr>
ClC1=CC(Cl)=C(Cl)C=C1OC1C=C(Cl)C(Cl)=C(Cl)C=1

> <InChI_Code_QSARr>
InChI=1S/C12H4Cl6O/c13-6-3-8(15)11(4-7(6)14)19-5-1-9(16)12(18)10(17)2-5/h1-4H

> <InChI Key_QSARr>
DYSUSQZPGJXVAL-UHFFFAOYSA-N

> <Salt_Solvent>


> <Salt_Solvent_ID>
0

> <MPID>
319962

> <HL Reference>


> <HL Temperature>


> <LogHL>
-2.925702976041409

> <Tr_1_Tst_0>


$$$$
101911
  Mrv171c012241914302D          

 20 21  0  0  0  0            999 V2000
   -1.3575    5.8988    0.0000 C   0  0  0  0  0  0  0  0  0  0  0  0
   -2.0720    6.3113    0.0000 C   0  0  0  0  0  0  0  0  0  0  0  0
   -2.0720    7.1363    0.0000 Cl  0  0  0  0  0  0  0  0  0  0  0  0
   -2.7865    5.8988    0.0000 C   0  0  0  0  0  0  0  0  0  0  0  0
   -3.5009    6.3113    0.0000 Cl  0  0  0  0  0  0  0  0  0  0  0  0
   -2.7865    5.0738    0.0000 C   0  0  0  0  0  0  0  0  0  0  0  0
   -3.5009    4.6613    0.0000 Cl  0  0  0  0  0  0  0  0  0  0  0  0
   -2.0720    4.6613    0.0000 C   0  0  0  0  0  0  0  0  0  0  0  0
   -2.0720    3.8363    0.0000 O   0  0  0  0  0  0  0  0  0  0  0  0
   -1.3575    3.4238    0.0000 C   0  0  0  0  0  0  0  0  0  0  0  0
   -1.3575    2.5988    0.0000 C   0  0  0  0  0  0  0  0  0  0  0  0
   -2.0720    2.1863    0.0000 Cl  0  0  0  0  0  0  0  0  0  0  0  0
   -0.6431    2.1863    0.0000 C   0  0  0  0  0  0  0  0  0  0  0  0
   -0.6431    1.3613    0.0000 Cl  0  0  0  0  0  0  0  0  0  0  0  0
    0.0714    2.5988    0.0000 C   0  0  0  0  0  0  0  0  0  0  0  0
    0.7859    2.1863    0.0000 Cl  0  0  0  0  0  0  0  0  0  0  0  0
    0.0714    3.4238    0.0000 C   0  0  0  0  0  0  0  0  0  0  0  0
    0.7859    3.8363    0.0000 Cl  0  0  0  0  0  0  0  0  0  0  0  0
   -0.6431    3.8363    0.0000 C   0  0  0  0  0  0  0  0  0  0  0  0
   -1.3575    5.0738    0.0000 C   0  0  0  0  0  0  0  0  0  0  0  0
  2  1  1  0  0  0  0
  2  3  1  0  0  0  0
  4  2  2  0  0  0  0
  4  5  1  0  0  0  0
  6  4  1  0  0  0  0
  6  7  1  0  0  0  0
  8  6  2  0  0  0  0
  8  9  1  0  0  0  0
  9 10  1  0  0  0  0
 11 10  2  0  0  0  0
 11 12  1  0  0  0  0
 13 11  1  0  0  0  0
 13 14  1  0  0  0  0
 15 13  2  0  0  0  0
 15 16  1  0  0  0  0
 17 15  1  0  0  0  0
 17 18  1  0  0  0  0
 19 17  2  0  0  0  0
 10 19  1  0  0  0  0
 20  8  1  0  0  0  0
  1 20  2  0  0  0  0
M  END
> <ChemID>
101911

> <CAS>
71585-40-5

> <Original_SMILES>
Clc1c(ccc(Cl)c1Cl)Oc1cc(Cl)c(Cl)c(Cl)c1Cl

> <preferred_name>
2,2',3,3',4,4',5-Heptachloro-diPh ether

> <dsstox_substance_id>
DTXSID10877008

> <dsstox_compound_id>
DTXCID201015092

> <qc_level>


> <Canonical_QSARr>
ClC1C=CC(OC2C=C(Cl)C(Cl)=C(Cl)C=2Cl)=C(Cl)C=1Cl

> <InChI_Code_QSARr>
InChI=1S/C12H3Cl7O/c13-4-1-2-6(10(17)8(4)15)20-7-3-5(14)9(16)12(19)11(7)18/h1-3H

> <InChI Key_QSARr>
BLBURLWSCHSPIS-UHFFFAOYSA-N

> <Salt_Solvent>


> <Salt_Solvent_ID>
0

> <MPID>
319966

> <HL Reference>


> <HL Temperature>


> <LogHL>
-3.3057054985343153

> <Tr_1_Tst_0>


$$$$
101912
  Mrv171c012241914302D          

 20 21  0  0  0  0            999 V2000
    1.2146    2.1862    0.0000 C   0  0  0  0  0  0  0  0  0  0  0  0
    0.5001    2.5988    0.0000 C   0  0  0  0  0  0  0  0  0  0  0  0
    0.5001    3.4238    0.0000 Cl  0  0  0  0  0  0  0  0  0  0  0  0
   -0.2143    2.1863    0.0000 C   0  0  0  0  0  0  0  0  0  0  0  0
   -0.9288    2.5988    0.0000 Cl  0  0  0  0  0  0  0  0  0  0  0  0
   -0.2143    1.3613    0.0000 C   0  0  0  0  0  0  0  0  0  0  0  0
   -0.9288    0.9488    0.0000 O   0  0  0  0  0  0  0  0  0  0  0  0
   -0.9288    0.1238    0.0000 C   0  0  0  0  0  0  0  0  0  0  0  0
   -1.6433   -0.2888    0.0000 C   0  0  0  0  0  0  0  0  0  0  0  0
   -2.3578    0.1237    0.0000 Cl  0  0  0  0  0  0  0  0  0  0  0  0
   -1.6433   -1.1138    0.0000 C   0  0  0  0  0  0  0  0  0  0  0  0
   -2.3578   -1.5263    0.0000 Cl  0  0  0  0  0  0  0  0  0  0  0  0
   -0.9288   -1.5262    0.0000 C   0  0  0  0  0  0  0  0  0  0  0  0
   -0.9288   -2.3512    0.0000 Cl  0  0  0  0  0  0  0  0  0  0  0  0
   -0.2143   -1.1138    0.0000 C   0  0  0  0  0  0  0  0  0  0  0  0
    0.5001   -1.5262    0.0000 Cl  0  0  0  0  0  0  0  0  0  0  0  0
   -0.2143   -0.2887    0.0000 C   0  0  0  0  0  0  0  0  0  0  0  0
    0.5001    0.9487    0.0000 C   0  0  0  0  0  0  0  0  0  0  0  0
    0.5001    0.1237    0.0000 Cl  0  0  0  0  0  0  0  0  0  0  0  0
    1.2146    1.3612    0.0000 C   0  0  0  0  0  0  0  0  0  0  0  0
  2  1  1  0  0  0  0
  2  3  1  0  0  0  0
  4  2  2  0  0  0  0
  4  5  1  0  0  0  0
  6  4  1  0  0  0  0
  6  7  1  0  0  0  0
  7  8  1  0  0  0  0
  9  8  2  0  0  0  0
  9 10  1  0  0  0  0
 11  9  1  0  0  0  0
 11 12  1  0  0  0  0
 13 11  2  0  0  0  0
 13 14  1  0  0  0  0
 15 13  1  0  0  0  0
 15 16  1  0  0  0  0
 17 15  2  0  0  0  0
  8 17  1  0  0  0  0
 18  6  2  0  0  0  0
 18 19  1  0  0  0  0
 20 18  1  0  0  0  0
  1 20  2  0  0  0  0
M  END
> <ChemID>
101912

> <CAS>
159553-73-8

> <Original_SMILES>
Clc1c(cc(Cl)c(Cl)c1Cl)Oc1c(Cl)c(Cl)ccc1Cl

> <preferred_name>
2,2',3,3',4,5,6'-Heptachloro-diPh ether

> <dsstox_substance_id>
DTXSID50877007

> <dsstox_compound_id>
DTXCID501015091

> <qc_level>


> <Canonical_QSARr>
ClC1=C(C=C(Cl)C(Cl)=C1Cl)OC1C(Cl)=C(Cl)C=CC=1Cl

> <InChI_Code_QSARr>
InChI=1S/C12H3Cl7O/c13-4-1-2-5(14)12(9(4)17)20-7-3-6(15)8(16)11(19)10(7)18/h1-3H

> <InChI Key_QSARr>
DQYYZAABYZAOOC-UHFFFAOYSA-N

> <Salt_Solvent>


> <Salt_Solvent_ID>
0

> <MPID>
319970

> <HL Reference>


> <HL Temperature>


> <LogHL>
-3.2565992145267315

> <Tr_1_Tst_0>


$$$$
101913
  Mrv171c012241914302D          

 20 21  0  0  0  0            999 V2000
    4.2936    1.7737    0.0000 Cl  0  0  0  0  0  0  0  0  0  0  0  0
    3.5792    1.3612    0.0000 C   0  0  0  0  0  0  0  0  0  0  0  0
    2.8647    1.7737    0.0000 C   0  0  0  0  0  0  0  0  0  0  0  0
    2.8647    2.5987    0.0000 Cl  0  0  0  0  0  0  0  0  0  0  0  0
    2.1502    1.3612    0.0000 C   0  0  0  0  0  0  0  0  0  0  0  0
    2.1502    0.5362    0.0000 C   0  0  0  0  0  0  0  0  0  0  0  0
    1.4357    0.1237    0.0000 Cl  0  0  0  0  0  0  0  0  0  0  0  0
    2.8647    0.1237    0.0000 C   0  0  0  0  0  0  0  0  0  0  0  0
    2.8647   -0.7013    0.0000 Cl  0  0  0  0  0  0  0  0  0  0  0  0
    3.5792    0.5362    0.0000 C   0  0  0  0  0  0  0  0  0  0  0  0
    4.2936    0.1237    0.0000 O   0  0  0  0  0  0  0  0  0  0  0  0
    4.2936   -0.7013    0.0000 C   0  0  0  0  0  0  0  0  0  0  0  0
    3.5792   -1.1138    0.0000 C   0  0  0  0  0  0  0  0  0  0  0  0
    3.5792   -1.9388    0.0000 C   0  0  0  0  0  0  0  0  0  0  0  0
    4.2936   -2.3513    0.0000 C   0  0  0  0  0  0  0  0  0  0  0  0
    4.2936   -3.1763    0.0000 Cl  0  0  0  0  0  0  0  0  0  0  0  0
    5.0081   -1.9388    0.0000 C   0  0  0  0  0  0  0  0  0  0  0  0
    5.7226   -2.3513    0.0000 Cl  0  0  0  0  0  0  0  0  0  0  0  0
    5.0081   -1.1138    0.0000 C   0  0  0  0  0  0  0  0  0  0  0  0
    5.7226   -0.7013    0.0000 Cl  0  0  0  0  0  0  0  0  0  0  0  0
  1  2  1  0  0  0  0
  3  2  1  0  0  0  0
  3  4  1  0  0  0  0
  5  3  2  0  0  0  0
  6  5  1  0  0  0  0
  6  7  1  0  0  0  0
  8  6  2  0  0  0  0
  8  9  1  0  0  0  0
 10  8  1  0  0  0  0
  2 10  2  0  0  0  0
 10 11  1  0  0  0  0
 11 12  1  0  0  0  0
 13 12  1  0  0  0  0
 14 13  2  0  0  0  0
 15 14  1  0  0  0  0
 15 16  1  0  0  0  0
 17 15  2  0  0  0  0
 17 18  1  0  0  0  0
 19 17  1  0  0  0  0
 12 19  2  0  0  0  0
 19 20  1  0  0  0  0
M  END
> <ChemID>
101913

> <CAS>
83992-71-6

> <Original_SMILES>
Clc1c(Cl)c(ccc1Cl)Oc1c(Cl)c(Cl)cc(Cl)c1Cl

> <preferred_name>
2,2',3,3',4,5',6'-Heptachlorodiphenyl ether

> <dsstox_substance_id>
DTXSID50232874

> <dsstox_compound_id>
DTXCID80155365

> <qc_level>


> <Canonical_QSARr>
ClC1C=C(Cl)C(Cl)=C(OC2C=CC(Cl)=C(Cl)C=2Cl)C=1Cl

> <InChI_Code_QSARr>
InChI=1S/C12H3Cl7O/c13-4-1-2-7(11(19)8(4)16)20-12-9(17)5(14)3-6(15)10(12)18/h1-3H

> <InChI Key_QSARr>
RXPQVFMDOJTCKE-UHFFFAOYSA-N

> <Salt_Solvent>


> <Salt_Solvent_ID>
0

> <MPID>
319974

> <HL Reference>


> <HL Temperature>


> <LogHL>
-3.145738301018107

> <Tr_1_Tst_0>


$$$$
101914
  Mrv171c012241914302D          

 20 21  0  0  0  0            999 V2000
    2.9363    1.8150    0.0000 Cl  0  0  0  0  0  0  0  0  0  0  0  0
    3.6508    1.4025    0.0000 C   0  0  0  0  0  0  0  0  0  0  0  0
    4.3653    1.8150    0.0000 C   0  0  0  0  0  0  0  0  0  0  0  0
    4.3653    2.6400    0.0000 Cl  0  0  0  0  0  0  0  0  0  0  0  0
    5.0797    1.4025    0.0000 C   0  0  0  0  0  0  0  0  0  0  0  0
    5.7942    1.8150    0.0000 Cl  0  0  0  0  0  0  0  0  0  0  0  0
    5.0797    0.5775    0.0000 C   0  0  0  0  0  0  0  0  0  0  0  0
    5.7942    0.1650    0.0000 Cl  0  0  0  0  0  0  0  0  0  0  0  0
    4.3653    0.1650    0.0000 C   0  0  0  0  0  0  0  0  0  0  0  0
    3.6508    0.5775    0.0000 C   0  0  0  0  0  0  0  0  0  0  0  0
    2.9363    0.1650    0.0000 O   0  0  0  0  0  0  0  0  0  0  0  0
    2.9363   -0.6600    0.0000 C   0  0  0  0  0  0  0  0  0  0  0  0
    2.2218   -1.0725    0.0000 C   0  0  0  0  0  0  0  0  0  0  0  0
    2.2218   -1.8975    0.0000 C   0  0  0  0  0  0  0  0  0  0  0  0
    1.5074   -2.3100    0.0000 Cl  0  0  0  0  0  0  0  0  0  0  0  0
    2.9363   -2.3100    0.0000 C   0  0  0  0  0  0  0  0  0  0  0  0
    2.9363   -3.1350    0.0000 Cl  0  0  0  0  0  0  0  0  0  0  0  0
    3.6508   -1.8975    0.0000 C   0  0  0  0  0  0  0  0  0  0  0  0
    3.6508   -1.0725    0.0000 C   0  0  0  0  0  0  0  0  0  0  0  0
    4.3653   -0.6600    0.0000 Cl  0  0  0  0  0  0  0  0  0  0  0  0
  1  2  1  0  0  0  0
  3  2  2  0  0  0  0
  3  4  1  0  0  0  0
  5  3  1  0  0  0  0
  5  6  1  0  0  0  0
  7  5  2  0  0  0  0
  7  8  1  0  0  0  0
  9  7  1  0  0  0  0
 10  9  2  0  0  0  0
  2 10  1  0  0  0  0
 10 11  1  0  0  0  0
 11 12  1  0  0  0  0
 13 12  2  0  0  0  0
 14 13  1  0  0  0  0
 14 15  1  0  0  0  0
 16 14  2  0  0  0  0
 16 17  1  0  0  0  0
 18 16  1  0  0  0  0
 19 18  2  0  0  0  0
 12 19  1  0  0  0  0
 19 20  1  0  0  0  0
M  END
> <ChemID>
101914

> <CAS>
83992-69-2

> <Original_SMILES>
Clc1cc(Cl)c(Cl)cc1Oc1cc(Cl)c(Cl)c(Cl)c1Cl

> <preferred_name>
2,2',3,4,4',5,5'-Heptachlorodiphenyl ether

> <dsstox_substance_id>
DTXSID30232872

> <dsstox_compound_id>
DTXCID60155363

> <qc_level>


> <Canonical_QSARr>
ClC1C(=CC(Cl)=C(Cl)C=1Cl)OC1=CC(Cl)=C(Cl)C=C1Cl

> <InChI_Code_QSARr>
InChI=1S/C12H3Cl7O/c13-4-1-6(15)8(2-5(4)14)20-9-3-7(16)10(17)12(19)11(9)18/h1-3H

> <InChI Key_QSARr>
YBYYCWMPXZRBNJ-UHFFFAOYSA-N

> <Salt_Solvent>


> <Salt_Solvent_ID>
0

> <MPID>
319978

> <HL Reference>


> <HL Temperature>


> <LogHL>
-2.7057079674687556

> <Tr_1_Tst_0>


$$$$
101915
  Mrv171c012241914302D          

 20 21  0  0  0  0            999 V2000
    4.4365    2.1038    0.0000 Cl  0  0  0  0  0  0  0  0  0  0  0  0
    3.7220    1.6913    0.0000 C   0  0  0  0  0  0  0  0  0  0  0  0
    3.0076    2.1038    0.0000 C   0  0  0  0  0  0  0  0  0  0  0  0
    3.0076    2.9288    0.0000 Cl  0  0  0  0  0  0  0  0  0  0  0  0
    2.2931    1.6913    0.0000 C   0  0  0  0  0  0  0  0  0  0  0  0
    1.5786    2.1038    0.0000 Cl  0  0  0  0  0  0  0  0  0  0  0  0
    2.2931    0.8663    0.0000 C   0  0  0  0  0  0  0  0  0  0  0  0
    1.5786    0.4538    0.0000 Cl  0  0  0  0  0  0  0  0  0  0  0  0
    3.0076    0.4538    0.0000 C   0  0  0  0  0  0  0  0  0  0  0  0
    3.0076   -0.3712    0.0000 Cl  0  0  0  0  0  0  0  0  0  0  0  0
    3.7220    0.8663    0.0000 C   0  0  0  0  0  0  0  0  0  0  0  0
    4.4365    0.4538    0.0000 O   0  0  0  0  0  0  0  0  0  0  0  0
    4.4365   -0.3712    0.0000 C   0  0  0  0  0  0  0  0  0  0  0  0
    3.7220   -0.7837    0.0000 C   0  0  0  0  0  0  0  0  0  0  0  0
    3.7220   -1.6087    0.0000 C   0  0  0  0  0  0  0  0  0  0  0  0
    4.4365   -2.0212    0.0000 C   0  0  0  0  0  0  0  0  0  0  0  0
    4.4365   -2.8462    0.0000 Cl  0  0  0  0  0  0  0  0  0  0  0  0
    5.1510   -1.6087    0.0000 C   0  0  0  0  0  0  0  0  0  0  0  0
    5.1510   -0.7837    0.0000 C   0  0  0  0  0  0  0  0  0  0  0  0
    5.8655   -0.3712    0.0000 Cl  0  0  0  0  0  0  0  0  0  0  0  0
  1  2  1  0  0  0  0
  3  2  1  0  0  0  0
  3  4  1  0  0  0  0
  5  3  2  0  0  0  0
  5  6  1  0  0  0  0
  7  5  1  0  0  0  0
  7  8  1  0  0  0  0
  9  7  2  0  0  0  0
  9 10  1  0  0  0  0
 11  9  1  0  0  0  0
  2 11  2  0  0  0  0
 11 12  1  0  0  0  0
 12 13  1  0  0  0  0
 14 13  1  0  0  0  0
 15 14  2  0  0  0  0
 16 15  1  0  0  0  0
 16 17  1  0  0  0  0
 18 16  2  0  0  0  0
 19 18  1  0  0  0  0
 13 19  2  0  0  0  0
 19 20  1  0  0  0  0
M  END
> <ChemID>
101915

> <CAS>
157683-75-5

> <Original_SMILES>
Clc1cc(Cl)c(cc1)Oc1c(Cl)c(Cl)c(Cl)c(Cl)c1Cl

> <preferred_name>
2,2',3,4,4',5,6-Heptachlorodiphenyl ether

> <dsstox_substance_id>
DTXSID10166303

> <dsstox_compound_id>
DTXCID1088794

> <qc_level>


> <Canonical_QSARr>
ClC1=CC(Cl)=C(C=C1)OC1C(Cl)=C(Cl)C(Cl)=C(Cl)C=1Cl

> <InChI_Code_QSARr>
InChI=1S/C12H3Cl7O/c13-4-1-2-6(5(14)3-4)20-12-10(18)8(16)7(15)9(17)11(12)19/h1-3H

> <InChI Key_QSARr>
RPNFRXWGMTYOPA-UHFFFAOYSA-N

> <Salt_Solvent>


> <Salt_Solvent_ID>
0

> <MPID>
319982

> <HL Reference>


> <HL Temperature>


> <LogHL>
-2.535717663737292

> <Tr_1_Tst_0>


$$$$
101916
  Mrv171c012241914302D          

 20 21  0  0  0  0            999 V2000
    4.5080    2.0625    0.0000 Cl  0  0  0  0  0  0  0  0  0  0  0  0
    3.7935    1.6500    0.0000 C   0  0  0  0  0  0  0  0  0  0  0  0
    3.0790    2.0625    0.0000 C   0  0  0  0  0  0  0  0  0  0  0  0
    3.0790    2.8875    0.0000 Cl  0  0  0  0  0  0  0  0  0  0  0  0
    2.3646    1.6500    0.0000 C   0  0  0  0  0  0  0  0  0  0  0  0
    2.3646    0.8250    0.0000 C   0  0  0  0  0  0  0  0  0  0  0  0
    1.6501    0.4125    0.0000 Cl  0  0  0  0  0  0  0  0  0  0  0  0
    3.0790    0.4125    0.0000 C   0  0  0  0  0  0  0  0  0  0  0  0
    3.0790   -0.4125    0.0000 Cl  0  0  0  0  0  0  0  0  0  0  0  0
    3.7935    0.8250    0.0000 C   0  0  0  0  0  0  0  0  0  0  0  0
    4.5080    0.4125    0.0000 O   0  0  0  0  0  0  0  0  0  0  0  0
    4.5080   -0.4125    0.0000 C   0  0  0  0  0  0  0  0  0  0  0  0
    3.7935   -0.8250    0.0000 C   0  0  0  0  0  0  0  0  0  0  0  0
    3.7935   -1.6500    0.0000 C   0  0  0  0  0  0  0  0  0  0  0  0
    3.0790   -2.0625    0.0000 Cl  0  0  0  0  0  0  0  0  0  0  0  0
    4.5080   -2.0625    0.0000 C   0  0  0  0  0  0  0  0  0  0  0  0
    4.5080   -2.8875    0.0000 Cl  0  0  0  0  0  0  0  0  0  0  0  0
    5.2224   -1.6500    0.0000 C   0  0  0  0  0  0  0  0  0  0  0  0
    5.2224   -0.8250    0.0000 C   0  0  0  0  0  0  0  0  0  0  0  0
    5.9369   -0.4125    0.0000 Cl  0  0  0  0  0  0  0  0  0  0  0  0
  1  2  1  0  0  0  0
  3  2  1  0  0  0  0
  3  4  1  0  0  0  0
  5  3  2  0  0  0  0
  6  5  1  0  0  0  0
  6  7  1  0  0  0  0
  8  6  2  0  0  0  0
  8  9  1  0  0  0  0
 10  8  1  0  0  0  0
  2 10  2  0  0  0  0
 10 11  1  0  0  0  0
 11 12  1  0  0  0  0
 13 12  2  0  0  0  0
 14 13  1  0  0  0  0
 14 15  1  0  0  0  0
 16 14  2  0  0  0  0
 16 17  1  0  0  0  0
 18 16  1  0  0  0  0
 19 18  2  0  0  0  0
 12 19  1  0  0  0  0
 19 20  1  0  0  0  0
M  END
> <ChemID>
101916

> <CAS>
109828-23-1

> <Original_SMILES>
Clc1cc(Cl)c(Cl)cc1Oc1c(Cl)c(Cl)cc(Cl)c1Cl

> <preferred_name>
2,2',3,4',5,5',6-Heptachlorodiphenyl ether

> <dsstox_substance_id>
DTXSID20149061

> <dsstox_compound_id>
DTXCID4071552

> <qc_level>


> <Canonical_QSARr>
ClC1=CC(Cl)=C(Cl)C(OC2=CC(Cl)=C(Cl)C=C2Cl)=C1Cl

> <InChI_Code_QSARr>
InChI=1S/C12H3Cl7O/c13-4-1-6(15)9(3-5(4)14)20-12-10(18)7(16)2-8(17)11(12)19/h1-3H

> <InChI Key_QSARr>
BHJCMMGUFRZLKK-UHFFFAOYSA-N

> <Salt_Solvent>


> <Salt_Solvent_ID>
0

> <MPID>
319986

> <HL Reference>


> <HL Temperature>


> <LogHL>
-2.8757371169234722

> <Tr_1_Tst_0>


$$$$
101917
  Mrv171c012241914302D          

 20 21  0  0  0  0            999 V2000
    3.7937    0.5775    0.0000 Cl  0  0  0  0  0  0  0  0  0  0  0  0
    3.0792    0.1650    0.0000 C   0  0  0  0  0  0  0  0  0  0  0  0
    2.3648    0.5775    0.0000 C   0  0  0  0  0  0  0  0  0  0  0  0
    2.3648    1.4025    0.0000 Cl  0  0  0  0  0  0  0  0  0  0  0  0
    1.6503    0.1650    0.0000 C   0  0  0  0  0  0  0  0  0  0  0  0
    0.9358    0.5775    0.0000 Cl  0  0  0  0  0  0  0  0  0  0  0  0
    1.6503   -0.6600    0.0000 C   0  0  0  0  0  0  0  0  0  0  0  0
    0.9358   -1.0725    0.0000 Cl  0  0  0  0  0  0  0  0  0  0  0  0
    2.3648   -1.0725    0.0000 C   0  0  0  0  0  0  0  0  0  0  0  0
    3.0792   -0.6600    0.0000 C   0  0  0  0  0  0  0  0  0  0  0  0
    3.7937   -1.0725    0.0000 O   0  0  0  0  0  0  0  0  0  0  0  0
    4.5082   -0.6600    0.0000 C   0  0  0  0  0  0  0  0  0  0  0  0
    5.2226   -1.0725    0.0000 C   0  0  0  0  0  0  0  0  0  0  0  0
    5.9371   -0.6600    0.0000 C   0  0  0  0  0  0  0  0  0  0  0  0
    6.6516   -1.0725    0.0000 Cl  0  0  0  0  0  0  0  0  0  0  0  0
    5.9371    0.1650    0.0000 C   0  0  0  0  0  0  0  0  0  0  0  0
    6.6516    0.5775    0.0000 Cl  0  0  0  0  0  0  0  0  0  0  0  0
    5.2226    0.5775    0.0000 C   0  0  0  0  0  0  0  0  0  0  0  0
    5.2226    1.4025    0.0000 Cl  0  0  0  0  0  0  0  0  0  0  0  0
    4.5082    0.1650    0.0000 C   0  0  0  0  0  0  0  0  0  0  0  0
  1  2  1  0  0  0  0
  3  2  2  0  0  0  0
  3  4  1  0  0  0  0
  5  3  1  0  0  0  0
  5  6  1  0  0  0  0
  7  5  2  0  0  0  0
  7  8  1  0  0  0  0
  9  7  1  0  0  0  0
 10  9  2  0  0  0  0
  2 10  1  0  0  0  0
 10 11  1  0  0  0  0
 11 12  1  0  0  0  0
 13 12  1  0  0  0  0
 14 13  2  0  0  0  0
 14 15  1  0  0  0  0
 16 14  1  0  0  0  0
 16 17  1  0  0  0  0
 18 16  2  0  0  0  0
 18 19  1  0  0  0  0
 20 18  1  0  0  0  0
 12 20  2  0  0  0  0
M  END
> <ChemID>
101917

> <CAS>
83992-72-7

> <Original_SMILES>
Clc1c(cc(Cl)c(Cl)c1Cl)Oc1cc(Cl)c(Cl)c(Cl)c1

> <preferred_name>
2,3,3',4,4',5,5'-Heptachlorodiphenyl ether

> <dsstox_substance_id>
DTXSID10232875

> <dsstox_compound_id>
DTXCID40155366

> <qc_level>


> <Canonical_QSARr>
ClC1C=C(OC2C=C(Cl)C(Cl)=C(Cl)C=2)C(Cl)=C(Cl)C=1Cl

> <InChI_Code_QSARr>
InChI=1S/C12H3Cl7O/c13-5-1-4(2-6(14)9(5)16)20-8-3-7(15)10(17)12(19)11(8)18/h1-3H

> <InChI Key_QSARr>
JUHPMUOWCYBMEY-UHFFFAOYSA-N

> <Salt_Solvent>


> <Salt_Solvent_ID>
0

> <MPID>
319990

> <HL Reference>


> <HL Temperature>


> <LogHL>
-2.795719900773552

> <Tr_1_Tst_0>


$$$$
101918
  Mrv171c012241914302D          

 20 21  0  0  0  0            999 V2000
    4.0078    0.8663    0.0000 Cl  0  0  0  0  0  0  0  0  0  0  0  0
    3.2934    0.4538    0.0000 C   0  0  0  0  0  0  0  0  0  0  0  0
    2.5789    0.8663    0.0000 C   0  0  0  0  0  0  0  0  0  0  0  0
    2.5789    1.6913    0.0000 Cl  0  0  0  0  0  0  0  0  0  0  0  0
    1.8644    0.4538    0.0000 C   0  0  0  0  0  0  0  0  0  0  0  0
    1.1500    0.8663    0.0000 Cl  0  0  0  0  0  0  0  0  0  0  0  0
    1.8644   -0.3712    0.0000 C   0  0  0  0  0  0  0  0  0  0  0  0
    1.1500   -0.7837    0.0000 Cl  0  0  0  0  0  0  0  0  0  0  0  0
    2.5789   -0.7837    0.0000 C   0  0  0  0  0  0  0  0  0  0  0  0
    2.5789   -1.6087    0.0000 Cl  0  0  0  0  0  0  0  0  0  0  0  0
    3.2934   -0.3712    0.0000 C   0  0  0  0  0  0  0  0  0  0  0  0
    4.0078   -0.7837    0.0000 O   0  0  0  0  0  0  0  0  0  0  0  0
    4.7223   -0.3712    0.0000 C   0  0  0  0  0  0  0  0  0  0  0  0
    5.4368   -0.7837    0.0000 C   0  0  0  0  0  0  0  0  0  0  0  0
    6.1513   -0.3712    0.0000 C   0  0  0  0  0  0  0  0  0  0  0  0
    6.1513    0.4538    0.0000 C   0  0  0  0  0  0  0  0  0  0  0  0
    6.8657    0.8663    0.0000 Cl  0  0  0  0  0  0  0  0  0  0  0  0
    5.4368    0.8663    0.0000 C   0  0  0  0  0  0  0  0  0  0  0  0
    5.4368    1.6913    0.0000 Cl  0  0  0  0  0  0  0  0  0  0  0  0
    4.7223    0.4538    0.0000 C   0  0  0  0  0  0  0  0  0  0  0  0
  1  2  1  0  0  0  0
  3  2  1  0  0  0  0
  3  4  1  0  0  0  0
  5  3  2  0  0  0  0
  5  6  1  0  0  0  0
  7  5  1  0  0  0  0
  7  8  1  0  0  0  0
  9  7  2  0  0  0  0
  9 10  1  0  0  0  0
 11  9  1  0  0  0  0
  2 11  2  0  0  0  0
 11 12  1  0  0  0  0
 12 13  1  0  0  0  0
 14 13  1  0  0  0  0
 15 14  2  0  0  0  0
 16 15  1  0  0  0  0
 16 17  1  0  0  0  0
 18 16  2  0  0  0  0
 18 19  1  0  0  0  0
 20 18  1  0  0  0  0
 13 20  2  0  0  0  0
M  END
> <ChemID>
101918

> <CAS>
83992-70-5

> <Original_SMILES>
Clc1cc(ccc1Cl)Oc1c(Cl)c(Cl)c(Cl)c(Cl)c1Cl

> <preferred_name>
2,3,3',4,4',5,6-Heptachlorodiphenyl ether

> <dsstox_substance_id>
DTXSID90232873

> <dsstox_compound_id>
DTXCID20155364

> <qc_level>


> <Canonical_QSARr>
ClC1C=C(C=CC=1Cl)OC1C(Cl)=C(Cl)C(Cl)=C(Cl)C=1Cl

> <InChI_Code_QSARr>
InChI=1S/C12H3Cl7O/c13-5-2-1-4(3-6(5)14)20-12-10(18)8(16)7(15)9(17)11(12)19/h1-3H

> <InChI Key_QSARr>
QLSBRXLSQINWHM-UHFFFAOYSA-N

> <Salt_Solvent>


> <Salt_Solvent_ID>
0

> <MPID>
319994

> <HL Reference>


> <HL Temperature>


> <LogHL>
-2.765718149677578

> <Tr_1_Tst_0>


$$$$
101919
  Mrv171c012241914302D          

 21 22  0  0  0  0            999 V2000
    3.0108    1.9446    0.0000 Cl  0  0  0  0  0  0  0  0  0  0  0  0
    3.7253    1.5321    0.0000 C   0  0  0  0  0  0  0  0  0  0  0  0
    4.4398    1.9446    0.0000 C   0  0  0  0  0  0  0  0  0  0  0  0
    4.4398    2.7696    0.0000 Cl  0  0  0  0  0  0  0  0  0  0  0  0
    5.1542    1.5321    0.0000 C   0  0  0  0  0  0  0  0  0  0  0  0
    5.8687    1.9446    0.0000 Cl  0  0  0  0  0  0  0  0  0  0  0  0
    5.1542    0.7071    0.0000 C   0  0  0  0  0  0  0  0  0  0  0  0
    5.8687    0.2946    0.0000 Cl  0  0  0  0  0  0  0  0  0  0  0  0
    4.4398    0.2946    0.0000 C   0  0  0  0  0  0  0  0  0  0  0  0
    3.7253    0.7071    0.0000 C   0  0  0  0  0  0  0  0  0  0  0  0
    3.0108    0.2946    0.0000 O   0  0  0  0  0  0  0  0  0  0  0  0
    3.0108   -0.5304    0.0000 C   0  0  0  0  0  0  0  0  0  0  0  0
    2.2964   -0.9429    0.0000 C   0  0  0  0  0  0  0  0  0  0  0  0
    2.2964   -1.7679    0.0000 C   0  0  0  0  0  0  0  0  0  0  0  0
    1.5819   -2.1804    0.0000 Cl  0  0  0  0  0  0  0  0  0  0  0  0
    3.0108   -2.1804    0.0000 C   0  0  0  0  0  0  0  0  0  0  0  0
    3.0108   -3.0054    0.0000 Cl  0  0  0  0  0  0  0  0  0  0  0  0
    3.7253   -1.7679    0.0000 C   0  0  0  0  0  0  0  0  0  0  0  0
    4.4398   -2.1804    0.0000 Cl  0  0  0  0  0  0  0  0  0  0  0  0
    3.7253   -0.9429    0.0000 C   0  0  0  0  0  0  0  0  0  0  0  0
    4.4398   -0.5304    0.0000 Cl  0  0  0  0  0  0  0  0  0  0  0  0
  1  2  1  0  0  0  0
  3  2  2  0  0  0  0
  3  4  1  0  0  0  0
  5  3  1  0  0  0  0
  5  6  1  0  0  0  0
  7  5  2  0  0  0  0
  7  8  1  0  0  0  0
  9  7  1  0  0  0  0
 10  9  2  0  0  0  0
  2 10  1  0  0  0  0
 10 11  1  0  0  0  0
 11 12  1  0  0  0  0
 13 12  2  0  0  0  0
 14 13  1  0  0  0  0
 14 15  1  0  0  0  0
 16 14  2  0  0  0  0
 16 17  1  0  0  0  0
 18 16  1  0  0  0  0
 18 19  1  0  0  0  0
 20 18  2  0  0  0  0
 12 20  1  0  0  0  0
 20 21  1  0  0  0  0
M  END
> <ChemID>
101919

> <CAS>
57379-40-5

> <Original_SMILES>
Clc1cc(Oc2cc(Cl)c(Cl)c(Cl)c2Cl)c(Cl)c(Cl)c1Cl

> <preferred_name>
2,2',3,3',4,4',5,5'-Octachlorodiphenyl ether

> <dsstox_substance_id>
DTXSID00205972

> <dsstox_compound_id>
DTXCID30128463

> <qc_level>


> <Canonical_QSARr>
ClC1C=C(OC2=CC(Cl)=C(Cl)C(Cl)=C2Cl)C(Cl)=C(Cl)C=1Cl

> <InChI_Code_QSARr>
InChI=1S/C12H2Cl8O/c13-3-1-5(9(17)11(19)7(3)15)21-6-2-4(14)8(16)12(20)10(6)18/h1-2H

> <InChI Key_QSARr>
IXZVOZCULZBCDY-UHFFFAOYSA-N

> <Salt_Solvent>


> <Salt_Solvent_ID>
0

> <MPID>
319998

> <HL Reference>


> <HL Temperature>


> <LogHL>
-2.6357211101734004

> <Tr_1_Tst_0>


$$$$
101920
  Mrv171c012241914302D          

 21 22  0  0  0  0            999 V2000
    2.8579    5.9715    0.0000 C   0  0  0  0  0  0  0  0  0  0  0  0
    2.1434    6.3840    0.0000 C   0  0  0  0  0  0  0  0  0  0  0  0
    2.1434    7.2090    0.0000 Cl  0  0  0  0  0  0  0  0  0  0  0  0
    1.4290    5.9715    0.0000 C   0  0  0  0  0  0  0  0  0  0  0  0
    0.7145    6.3840    0.0000 Cl  0  0  0  0  0  0  0  0  0  0  0  0
    1.4290    5.1465    0.0000 C   0  0  0  0  0  0  0  0  0  0  0  0
    0.7145    4.7340    0.0000 Cl  0  0  0  0  0  0  0  0  0  0  0  0
    2.1434    4.7340    0.0000 C   0  0  0  0  0  0  0  0  0  0  0  0
    2.1434    3.9090    0.0000 O   0  0  0  0  0  0  0  0  0  0  0  0
    2.8579    3.4965    0.0000 C   0  0  0  0  0  0  0  0  0  0  0  0
    2.8579    2.6715    0.0000 C   0  0  0  0  0  0  0  0  0  0  0  0
    2.1434    2.2590    0.0000 Cl  0  0  0  0  0  0  0  0  0  0  0  0
    3.5724    2.2590    0.0000 C   0  0  0  0  0  0  0  0  0  0  0  0
    3.5724    1.4340    0.0000 Cl  0  0  0  0  0  0  0  0  0  0  0  0
    4.2868    2.6715    0.0000 C   0  0  0  0  0  0  0  0  0  0  0  0
    5.0013    2.2590    0.0000 Cl  0  0  0  0  0  0  0  0  0  0  0  0
    4.2868    3.4965    0.0000 C   0  0  0  0  0  0  0  0  0  0  0  0
    5.0013    3.9090    0.0000 Cl  0  0  0  0  0  0  0  0  0  0  0  0
    3.5724    3.9090    0.0000 C   0  0  0  0  0  0  0  0  0  0  0  0
    3.5724    4.7340    0.0000 Cl  0  0  0  0  0  0  0  0  0  0  0  0
    2.8579    5.1465    0.0000 C   0  0  0  0  0  0  0  0  0  0  0  0
  2  1  1  0  0  0  0
  2  3  1  0  0  0  0
  4  2  2  0  0  0  0
  4  5  1  0  0  0  0
  6  4  1  0  0  0  0
  6  7  1  0  0  0  0
  8  6  2  0  0  0  0
  8  9  1  0  0  0  0
  9 10  1  0  0  0  0
 11 10  1  0  0  0  0
 11 12  1  0  0  0  0
 13 11  2  0  0  0  0
 13 14  1  0  0  0  0
 15 13  1  0  0  0  0
 15 16  1  0  0  0  0
 17 15  2  0  0  0  0
 17 18  1  0  0  0  0
 19 17  1  0  0  0  0
 10 19  2  0  0  0  0
 19 20  1  0  0  0  0
 21  8  1  0  0  0  0
  1 21  2  0  0  0  0
M  END
> <ChemID>
101920

> <CAS>
65075-02-7

> <Original_SMILES>
Clc1ccc(Oc2c(Cl)c(Cl)c(Cl)c(Cl)c2Cl)c(Cl)c1Cl

> <preferred_name>
2,2',3,3',4,4',5,6-Octachloro-diPh ether

> <dsstox_substance_id>
DTXSID30877005

> <dsstox_compound_id>
DTXCID501015089

> <qc_level>


> <Canonical_QSARr>
ClC1C=CC(OC2C(Cl)=C(Cl)C(Cl)=C(Cl)C=2Cl)=C(Cl)C=1Cl

> <InChI_Code_QSARr>
InChI=1S/C12H2Cl8O/c13-3-1-2-4(6(15)5(3)14)21-12-10(19)8(17)7(16)9(18)11(12)20/h1-2H

> <InChI Key_QSARr>
YHUPMPHVHYBYJE-UHFFFAOYSA-N

> <Salt_Solvent>


> <Salt_Solvent_ID>
0

> <MPID>
320002

> <HL Reference>


> <HL Temperature>


> <LogHL>
-2.2557179721916194

> <Tr_1_Tst_0>


$$$$
101921
  Mrv171c012241914302D          

 21 22  0  0  0  0            999 V2000
    2.9428    1.8268    0.0000 Cl  0  0  0  0  0  0  0  0  0  0  0  0
    3.6573    1.4143    0.0000 C   0  0  0  0  0  0  0  0  0  0  0  0
    4.3717    1.8268    0.0000 C   0  0  0  0  0  0  0  0  0  0  0  0
    4.3717    2.6518    0.0000 Cl  0  0  0  0  0  0  0  0  0  0  0  0
    5.0862    1.4143    0.0000 C   0  0  0  0  0  0  0  0  0  0  0  0
    5.8007    1.8268    0.0000 Cl  0  0  0  0  0  0  0  0  0  0  0  0
    5.0862    0.5893    0.0000 C   0  0  0  0  0  0  0  0  0  0  0  0
    5.8007    0.1768    0.0000 Cl  0  0  0  0  0  0  0  0  0  0  0  0
    4.3717    0.1768    0.0000 C   0  0  0  0  0  0  0  0  0  0  0  0
    3.6573    0.5893    0.0000 C   0  0  0  0  0  0  0  0  0  0  0  0
    2.9428    0.1768    0.0000 O   0  0  0  0  0  0  0  0  0  0  0  0
    2.9428   -0.6482    0.0000 C   0  0  0  0  0  0  0  0  0  0  0  0
    2.2283   -1.0607    0.0000 C   0  0  0  0  0  0  0  0  0  0  0  0
    1.5138   -0.6482    0.0000 Cl  0  0  0  0  0  0  0  0  0  0  0  0
    2.2283   -1.8857    0.0000 C   0  0  0  0  0  0  0  0  0  0  0  0
    1.5138   -2.2982    0.0000 Cl  0  0  0  0  0  0  0  0  0  0  0  0
    2.9428   -2.2982    0.0000 C   0  0  0  0  0  0  0  0  0  0  0  0
    3.6573   -1.8857    0.0000 C   0  0  0  0  0  0  0  0  0  0  0  0
    4.3717   -2.2982    0.0000 Cl  0  0  0  0  0  0  0  0  0  0  0  0
    3.6573   -1.0607    0.0000 C   0  0  0  0  0  0  0  0  0  0  0  0
    4.3717   -0.6482    0.0000 Cl  0  0  0  0  0  0  0  0  0  0  0  0
  1  2  1  0  0  0  0
  3  2  2  0  0  0  0
  3  4  1  0  0  0  0
  5  3  1  0  0  0  0
  5  6  1  0  0  0  0
  7  5  2  0  0  0  0
  7  8  1  0  0  0  0
  9  7  1  0  0  0  0
 10  9  2  0  0  0  0
  2 10  1  0  0  0  0
 10 11  1  0  0  0  0
 11 12  1  0  0  0  0
 13 12  1  0  0  0  0
 13 14  1  0  0  0  0
 15 13  2  0  0  0  0
 15 16  1  0  0  0  0
 17 15  1  0  0  0  0
 18 17  2  0  0  0  0
 18 19  1  0  0  0  0
 20 18  1  0  0  0  0
 12 20  2  0  0  0  0
 20 21  1  0  0  0  0
M  END
> <ChemID>
101921

> <CAS>
83992-76-1

> <Original_SMILES>
Clc1cc(Oc2c(Cl)c(Cl)cc(Cl)c2Cl)c(Cl)c(Cl)c1Cl

> <preferred_name>
2,2',3,3',4,5,5',6'-Octachlorodiphenyl ether

> <dsstox_substance_id>
DTXSID70232876

> <dsstox_compound_id>
DTXCID00155367

> <qc_level>


> <Canonical_QSARr>
ClC1C=C(OC2C(Cl)=C(Cl)C=C(Cl)C=2Cl)C(Cl)=C(Cl)C=1Cl

> <InChI_Code_QSARr>
InChI=1S/C12H2Cl8O/c13-3-1-4(14)9(18)12(8(3)17)21-6-2-5(15)7(16)11(20)10(6)19/h1-2H

> <InChI Key_QSARr>
MRHQOXCYYPFGEE-UHFFFAOYSA-N

> <Salt_Solvent>


> <Salt_Solvent_ID>
0

> <MPID>
320006

> <HL Reference>


> <HL Temperature>


> <LogHL>
-2.425716335769612

> <Tr_1_Tst_0>


$$$$
101922
  Mrv171c012241914302D          

 21 22  0  0  0  0            999 V2000
    3.6064    2.0036    0.0000 C   0  0  0  0  0  0  0  0  0  0  0  0
    2.8919    2.4161    0.0000 C   0  0  0  0  0  0  0  0  0  0  0  0
    2.8919    3.2411    0.0000 Cl  0  0  0  0  0  0  0  0  0  0  0  0
    2.1774    2.0036    0.0000 C   0  0  0  0  0  0  0  0  0  0  0  0
    1.4629    2.4161    0.0000 O   0  0  0  0  0  0  0  0  0  0  0  0
    0.7485    2.0036    0.0000 C   0  0  0  0  0  0  0  0  0  0  0  0
    0.0340    2.4161    0.0000 C   0  0  0  0  0  0  0  0  0  0  0  0
    0.0340    3.2411    0.0000 Cl  0  0  0  0  0  0  0  0  0  0  0  0
   -0.6805    2.0036    0.0000 C   0  0  0  0  0  0  0  0  0  0  0  0
   -1.3949    2.4161    0.0000 Cl  0  0  0  0  0  0  0  0  0  0  0  0
   -0.6805    1.1786    0.0000 C   0  0  0  0  0  0  0  0  0  0  0  0
   -1.3949    0.7661    0.0000 Cl  0  0  0  0  0  0  0  0  0  0  0  0
    0.0340    0.7661    0.0000 C   0  0  0  0  0  0  0  0  0  0  0  0
    0.0340   -0.0589    0.0000 Cl  0  0  0  0  0  0  0  0  0  0  0  0
    0.7485    1.1786    0.0000 C   0  0  0  0  0  0  0  0  0  0  0  0
    1.4629    0.7661    0.0000 Cl  0  0  0  0  0  0  0  0  0  0  0  0
    2.1774    1.1786    0.0000 C   0  0  0  0  0  0  0  0  0  0  0  0
    2.8919    0.7661    0.0000 C   0  0  0  0  0  0  0  0  0  0  0  0
    2.8919   -0.0589    0.0000 Cl  0  0  0  0  0  0  0  0  0  0  0  0
    3.6064    1.1786    0.0000 C   0  0  0  0  0  0  0  0  0  0  0  0
    4.3208    0.7661    0.0000 Cl  0  0  0  0  0  0  0  0  0  0  0  0
  2  1  1  0  0  0  0
  2  3  1  0  0  0  0
  4  2  2  0  0  0  0
  4  5  1  0  0  0  0
  5  6  1  0  0  0  0
  7  6  1  0  0  0  0
  7  8  1  0  0  0  0
  9  7  2  0  0  0  0
  9 10  1  0  0  0  0
 11  9  1  0  0  0  0
 11 12  1  0  0  0  0
 13 11  2  0  0  0  0
 13 14  1  0  0  0  0
 15 13  1  0  0  0  0
  6 15  2  0  0  0  0
 15 16  1  0  0  0  0
 17  4  1  0  0  0  0
 18 17  2  0  0  0  0
 18 19  1  0  0  0  0
 20 18  1  0  0  0  0
  1 20  2  0  0  0  0
 20 21  1  0  0  0  0
M  END
> <ChemID>
101922

> <CAS>
83992-75-0

> <Original_SMILES>
Clc1cc(Oc2c(Cl)c(Cl)c(Cl)c(Cl)c2Cl)c(Cl)cc1Cl

> <preferred_name>
2,2',3,4,4',5,5',6-Octachloro-diPh ether

> <dsstox_substance_id>
DTXSID90877006

> <dsstox_compound_id>
DTXCID801015090

> <qc_level>


> <Canonical_QSARr>
ClC1C=C(Cl)C(Cl)=CC=1OC1C(Cl)=C(Cl)C(Cl)=C(Cl)C=1Cl

> <InChI_Code_QSARr>
InChI=1S/C12H2Cl8O/c13-3-1-5(15)6(2-4(3)14)21-12-10(19)8(17)7(16)9(18)11(12)20/h1-2H

> <InChI Key_QSARr>
PKOSPVZTRLMBSK-UHFFFAOYSA-N

> <Salt_Solvent>


> <Salt_Solvent_ID>
0

> <MPID>
320010

> <HL Reference>


> <HL Temperature>


> <LogHL>
-2.3657222891555145

> <Tr_1_Tst_0>


$$$$
101923
  Mrv171c012241914302D          

 22 23  0  0  0  0            999 V2000
    0.7145    2.0625    0.0000 C   0  0  0  0  0  0  0  0  0  0  0  0
    1.4289    2.4750    0.0000 C   0  0  0  0  0  0  0  0  0  0  0  0
    1.4289    3.3000    0.0000 O   0  0  0  0  0  0  0  0  0  0  0  0
    0.7145    3.7125    0.0000 C   0  0  0  0  0  0  0  0  0  0  0  0
    0.7145    4.5375    0.0000 C   0  0  0  0  0  0  0  0  0  0  0  0
    1.4289    4.9500    0.0000 Cl  0  0  0  0  0  0  0  0  0  0  0  0
   -0.0000    4.9500    0.0000 C   0  0  0  0  0  0  0  0  0  0  0  0
   -0.0000    5.7750    0.0000 Cl  0  0  0  0  0  0  0  0  0  0  0  0
   -0.7145    4.5375    0.0000 C   0  0  0  0  0  0  0  0  0  0  0  0
   -1.4290    4.9500    0.0000 Cl  0  0  0  0  0  0  0  0  0  0  0  0
   -0.7145    3.7125    0.0000 C   0  0  0  0  0  0  0  0  0  0  0  0
   -1.4290    3.3000    0.0000 Cl  0  0  0  0  0  0  0  0  0  0  0  0
   -0.0000    3.3000    0.0000 C   0  0  0  0  0  0  0  0  0  0  0  0
   -0.0000    2.4750    0.0000 Cl  0  0  0  0  0  0  0  0  0  0  0  0
    2.1434    2.0625    0.0000 C   0  0  0  0  0  0  0  0  0  0  0  0
    2.8579    2.4750    0.0000 Cl  0  0  0  0  0  0  0  0  0  0  0  0
    2.1434    1.2375    0.0000 C   0  0  0  0  0  0  0  0  0  0  0  0
    2.8579    0.8250    0.0000 Cl  0  0  0  0  0  0  0  0  0  0  0  0
    1.4289    0.8250    0.0000 C   0  0  0  0  0  0  0  0  0  0  0  0
    1.4289    0.0000    0.0000 Cl  0  0  0  0  0  0  0  0  0  0  0  0
    0.7145    1.2375    0.0000 C   0  0  0  0  0  0  0  0  0  0  0  0
   -0.0000    0.8250    0.0000 Cl  0  0  0  0  0  0  0  0  0  0  0  0
  2  1  1  0  0  0  0
  2  3  1  0  0  0  0
  3  4  1  0  0  0  0
  5  4  1  0  0  0  0
  5  6  1  0  0  0  0
  7  5  2  0  0  0  0
  7  8  1  0  0  0  0
  9  7  1  0  0  0  0
  9 10  1  0  0  0  0
 11  9  2  0  0  0  0
 11 12  1  0  0  0  0
 13 11  1  0  0  0  0
  4 13  2  0  0  0  0
 13 14  1  0  0  0  0
 15  2  2  0  0  0  0
 15 16  1  0  0  0  0
 17 15  1  0  0  0  0
 17 18  1  0  0  0  0
 19 17  2  0  0  0  0
 19 20  1  0  0  0  0
 21 19  1  0  0  0  0
  1 21  2  0  0  0  0
 21 22  1  0  0  0  0
M  END
> <ChemID>
101923

> <CAS>
83992-73-8

> <Original_SMILES>
Clc1cc(Oc2c(Cl)c(Cl)c(Cl)c(Cl)c2Cl)c(Cl)c(Cl)c1Cl

> <preferred_name>
2,2',3,3',4,4',5,5',6-Nona-CL-diPh ether

> <dsstox_substance_id>
DTXSID10877088

> <dsstox_compound_id>
DTXCID501015172

> <qc_level>


> <Canonical_QSARr>
ClC1=C(OC2C=C(Cl)C(Cl)=C(Cl)C=2Cl)C(Cl)=C(Cl)C(Cl)=C1Cl

> <InChI_Code_QSARr>
InChI=1S/C12HCl9O/c13-2-1-3(5(15)6(16)4(2)14)22-12-10(20)8(18)7(17)9(19)11(12)21/h1H

> <InChI Key_QSARr>
FPEYJPVHPGDXDD-UHFFFAOYSA-N

> <Salt_Solvent>


> <Salt_Solvent_ID>
0

> <MPID>
320014

> <HL Reference>


> <HL Temperature>


> <LogHL>
-1.71571819265242

> <Tr_1_Tst_0>


$$$$
101924
  Mrv171c012241914302D          

 23 24  0  0  0  0            999 V2000
    3.3611    0.7977    0.0000 Cl  0  0  0  0  0  0  0  0  0  0  0  0
    2.6467    0.3852    0.0000 C   0  0  0  0  0  0  0  0  0  0  0  0
    1.9322    0.7977    0.0000 C   0  0  0  0  0  0  0  0  0  0  0  0
    1.9322    1.6227    0.0000 Cl  0  0  0  0  0  0  0  0  0  0  0  0
    1.2177    0.3852    0.0000 C   0  0  0  0  0  0  0  0  0  0  0  0
    0.5033    0.7977    0.0000 Cl  0  0  0  0  0  0  0  0  0  0  0  0
    1.2177   -0.4398    0.0000 C   0  0  0  0  0  0  0  0  0  0  0  0
    0.5033   -0.8523    0.0000 Cl  0  0  0  0  0  0  0  0  0  0  0  0
    1.9322   -0.8523    0.0000 C   0  0  0  0  0  0  0  0  0  0  0  0
    1.9322   -1.6773    0.0000 Cl  0  0  0  0  0  0  0  0  0  0  0  0
    2.6467   -0.4398    0.0000 C   0  0  0  0  0  0  0  0  0  0  0  0
    3.3611   -0.8523    0.0000 O   0  0  0  0  0  0  0  0  0  0  0  0
    4.0756   -0.4398    0.0000 C   0  0  0  0  0  0  0  0  0  0  0  0
    4.7901   -0.8523    0.0000 C   0  0  0  0  0  0  0  0  0  0  0  0
    4.7901   -1.6773    0.0000 Cl  0  0  0  0  0  0  0  0  0  0  0  0
    5.5046   -0.4398    0.0000 C   0  0  0  0  0  0  0  0  0  0  0  0
    6.2190   -0.8523    0.0000 Cl  0  0  0  0  0  0  0  0  0  0  0  0
    5.5046    0.3852    0.0000 C   0  0  0  0  0  0  0  0  0  0  0  0
    6.2190    0.7977    0.0000 Cl  0  0  0  0  0  0  0  0  0  0  0  0
    4.7901    0.7977    0.0000 C   0  0  0  0  0  0  0  0  0  0  0  0
    4.7901    1.6227    0.0000 Cl  0  0  0  0  0  0  0  0  0  0  0  0
    4.0756    0.3852    0.0000 C   0  0  0  0  0  0  0  0  0  0  0  0
    3.7401    1.1389    0.0000 Cl  0  0  0  0  0  0  0  0  0  0  0  0
  1  2  1  0  0  0  0
  3  2  1  0  0  0  0
  3  4  1  0  0  0  0
  5  3  2  0  0  0  0
  5  6  1  0  0  0  0
  7  5  1  0  0  0  0
  7  8  1  0  0  0  0
  9  7  2  0  0  0  0
  9 10  1  0  0  0  0
 11  9  1  0  0  0  0
  2 11  2  0  0  0  0
 11 12  1  0  0  0  0
 12 13  1  0  0  0  0
 14 13  1  0  0  0  0
 14 15  1  0  0  0  0
 16 14  2  0  0  0  0
 16 17  1  0  0  0  0
 18 16  1  0  0  0  0
 18 19  1  0  0  0  0
 20 18  2  0  0  0  0
 20 21  1  0  0  0  0
 22 20  1  0  0  0  0
 13 22  2  0  0  0  0
 22 23  1  0  0  0  0
M  END
> <ChemID>
101924

> <CAS>
31710-30-2

> <Original_SMILES>
Clc1c(Oc2c(Cl)c(Cl)c(Cl)c(Cl)c2Cl)c(Cl)c(Cl)c(Cl)c1Cl

> <preferred_name>
Decachlorodiphenyl ether

> <dsstox_substance_id>
DTXSID80185607

> <dsstox_compound_id>
DTXCID80108098

> <qc_level>


> <Canonical_QSARr>
ClC1C(OC2=C(Cl)C(Cl)=C(Cl)C(Cl)=C2Cl)=C(Cl)C(Cl)=C(Cl)C=1Cl

> <InChI_Code_QSARr>
InChI=1S/C12Cl10O/c13-1-3(15)7(19)11(8(20)4(1)16)23-12-9(21)5(17)2(14)6(18)10(12)22

> <InChI Key_QSARr>
CIPFDHFTBYJKQB-UHFFFAOYSA-N

> <Salt_Solvent>


> <Salt_Solvent_ID>
0

> <MPID>
320018

> <HL Reference>


> <HL Temperature>


> <LogHL>
-0.8557154185977853

> <Tr_1_Tst_0>


$$$$
101925
  Mrv171c012241914302D          

  7  6  0  0  0  0            999 V2000
    0.8250   -2.0625    0.0000 F   0  0  0  0  0  0  0  0  0  0  0  0
    0.8250   -1.2375    0.0000 C   0  0  0  0  0  0  0  0  0  0  0  0
    0.8250   -0.4125    0.0000 C   0  0  0  0  0  0  0  0  0  0  0  0
    0.1105    0.0000    0.0000 Br  0  0  0  0  0  0  0  0  0  0  0  0
    1.5395   -0.0000    0.0000 Cl  0  0  0  0  0  0  0  0  0  0  0  0
    1.6500   -1.2375    0.0000 F   0  0  0  0  0  0  0  0  0  0  0  0
    0.0000   -1.2375    0.0000 F   0  0  0  0  0  0  0  0  0  0  0  0
  1  2  1  0  0  0  0
  2  3  1  0  0  0  0
  3  4  1  0  0  0  0
  3  5  1  0  0  0  0
  2  6  1  0  0  0  0
  2  7  1  0  0  0  0
M  END
> <ChemID>
101925

> <CAS>
151-67-7

> <Original_SMILES>
FC(F)(F)C(Cl)Br

> <preferred_name>
Halothane

> <dsstox_substance_id>
DTXSID4025371

> <dsstox_compound_id>
DTXCID605371

> <qc_level>
DSSTox_Low

> <Canonical_QSARr>
FC(F)(F)C(Cl)Br

> <InChI_Code_QSARr>
InChI=1S/C2HBrClF3/c3-1(4)2(5,6)7/h1H

> <InChI Key_QSARr>
BCQZXOMGPXTTIC-UHFFFAOYSA-N

> <Salt_Solvent>


> <Salt_Solvent_ID>
0

> <MPID>
356725

> <HL Reference>
ABRAHAM,MH ET AL. (1994)

> <HL Temperature>
25

> <LogHL>
-1.6925039620867879

> <Tr_1_Tst_0>


$$$$
101926
  Mrv171c012241914302D          

 10  9  0  0  0  0            999 V2000
    2.3462    0.6398    0.0000 F   0  0  0  0  0  0  0  0  0  0  0  0
    1.9337   -0.0746    0.0000 C   0  0  0  0  0  0  0  0  0  0  0  0
    1.2193    0.3379    0.0000 F   0  0  0  0  0  0  0  0  0  0  0  0
    2.6482   -0.4871    0.0000 F   0  0  0  0  0  0  0  0  0  0  0  0
    1.5212   -0.7891    0.0000 C   0  0  0  0  0  0  0  0  0  0  0  0
    0.6962   -0.7891    0.0000 Cl  0  0  0  0  0  0  0  0  0  0  0  0
    1.9337   -1.5036    0.0000 O   0  0  0  0  0  0  0  0  0  0  0  0
    1.5212   -2.2180    0.0000 C   0  0  0  0  0  0  0  0  0  0  0  0
    1.9337   -2.9325    0.0000 F   0  0  0  0  0  0  0  0  0  0  0  0
    0.6962   -2.2180    0.0000 F   0  0  0  0  0  0  0  0  0  0  0  0
  1  2  1  0  0  0  0
  2  3  1  0  0  0  0
  2  4  1  0  0  0  0
  2  5  1  0  0  0  0
  5  6  1  0  0  0  0
  5  7  1  0  0  0  0
  7  8  1  0  0  0  0
  8  9  1  0  0  0  0
  8 10  1  0  0  0  0
M  END
> <ChemID>
101926

> <CAS>
26675-46-7

> <Original_SMILES>
FC(F)OC(Cl)C(F)(F)F

> <preferred_name>
Isoflurane

> <dsstox_substance_id>
DTXSID3020752

> <dsstox_compound_id>
DTXCID30752

> <qc_level>
DSSTox_Low

> <Canonical_QSARr>
FC(F)OC(Cl)C(F)(F)F

> <InChI_Code_QSARr>
InChI=1S/C3H2ClF5O/c4-1(3(7,8)9)10-2(5)6/h1-2H

> <InChI Key_QSARr>
PIWKPBJCKXDKJR-UHFFFAOYSA-N

> <Salt_Solvent>


> <Salt_Solvent_ID>
0

> <MPID>
356726

> <HL Reference>
ABRAHAM,MH ET AL. (1994)

> <HL Temperature>
25

> <LogHL>
-1.5421181032660072

> <Tr_1_Tst_0>


$$$$
101927
  Mrv171c012241914302D          

  7  6  0  0  0  0            999 V2000
    1.3509   -0.5202    0.0000 C   0  0  0  0  0  0  0  0  0  0  0  0
    1.7634    0.1943    0.0000 F   0  0  0  0  0  0  0  0  0  0  0  0
    0.6364   -0.1077    0.0000 F   0  0  0  0  0  0  0  0  0  0  0  0
    2.0654   -0.9327    0.0000 F   0  0  0  0  0  0  0  0  0  0  0  0
    0.9384   -1.2347    0.0000 C   0  0  0  0  0  0  0  0  0  0  0  0
    1.3509   -1.9492    0.0000 Cl  0  0  0  0  0  0  0  0  0  0  0  0
    0.1134   -1.2347    0.0000 Cl  0  0  0  0  0  0  0  0  0  0  0  0
  1  2  1  0  0  0  0
  1  3  1  0  0  0  0
  1  4  1  0  0  0  0
  1  5  1  0  0  0  0
  5  6  1  0  0  0  0
  5  7  1  0  0  0  0
M  END
> <ChemID>
101927

> <CAS>
306-83-2

> <Original_SMILES>
FC(F)(F)C(Cl)Cl

> <preferred_name>
2,2-Dichloro-1,1,1-trifluoroethane

> <dsstox_substance_id>
DTXSID7020712

> <dsstox_compound_id>
DTXCID50712

> <qc_level>
DSSTox_Low

> <Canonical_QSARr>
FC(F)(F)C(Cl)Cl

> <InChI_Code_QSARr>
InChI=1S/C2HCl2F3/c3-1(4)2(5,6)7/h1H

> <InChI Key_QSARr>
OHMHBGPWCHTMQE-UHFFFAOYSA-N

> <Salt_Solvent>


> <Salt_Solvent_ID>
0

> <MPID>
356727

> <HL Reference>
CHANG,WK & CRIDDLE,CS (1995)

> <HL Temperature>
22

> <LogHL>
-1.5917600346881504

> <Tr_1_Tst_0>


$$$$
101928
  Mrv171c012241914302D          

  7  6  0  0  0  0            999 V2000
    1.0570    0.2963    0.0000 Cl  0  0  0  0  0  0  0  0  0  0  0  0
    0.6445   -0.4182    0.0000 C   0  0  0  0  0  0  0  0  0  0  0  0
    1.0570   -1.1327    0.0000 C   0  0  0  0  0  0  0  0  0  0  0  0
    1.4695   -1.8471    0.0000 F   0  0  0  0  0  0  0  0  0  0  0  0
    0.3426   -1.5452    0.0000 F   0  0  0  0  0  0  0  0  0  0  0  0
    1.7715   -0.7202    0.0000 F   0  0  0  0  0  0  0  0  0  0  0  0
   -0.1805   -0.4182    0.0000 O   0  0  0  0  0  0  0  0  0  0  0  0
  1  2  1  0  0  0  0
  2  3  1  0  0  0  0
  3  4  1  0  0  0  0
  3  5  1  0  0  0  0
  3  6  1  0  0  0  0
  2  7  2  0  0  0  0
M  END
> <ChemID>
101928

> <CAS>
354-32-5

> <Original_SMILES>
O=C(Cl)C(F)(F)F

> <preferred_name>
Trifluoroacetyl chloride

> <dsstox_substance_id>
DTXSID1029176

> <dsstox_compound_id>
DTXCID609176

> <qc_level>
DSSTox_Low

> <Canonical_QSARr>
O=C(Cl)C(F)(F)F

> <InChI_Code_QSARr>
InChI=1S/C2ClF3O/c3-1(7)2(4,5)6

> <InChI Key_QSARr>
PNQBEPDZQUOCNY-UHFFFAOYSA-N

> <Salt_Solvent>


> <Salt_Solvent_ID>
0

> <MPID>
356728

> <HL Reference>
NIST WEBBOOK

> <HL Temperature>
25

> <LogHL>
-3.346787486224656

> <Tr_1_Tst_0>


$$$$
101929
  Mrv171c012241914302D          

  7  6  0  0  0  0            999 V2000
    1.0018    0.7692    0.0000 O   0  0  0  0  0  0  0  0  0  0  0  0
    0.5893    0.0547    0.0000 C   0  0  0  0  0  0  0  0  0  0  0  0
    1.0018   -0.6598    0.0000 C   0  0  0  0  0  0  0  0  0  0  0  0
    1.4143   -1.3742    0.0000 F   0  0  0  0  0  0  0  0  0  0  0  0
    0.2873   -1.0723    0.0000 F   0  0  0  0  0  0  0  0  0  0  0  0
    1.7163   -0.2473    0.0000 F   0  0  0  0  0  0  0  0  0  0  0  0
   -0.2357    0.0547    0.0000 F   0  0  0  0  0  0  0  0  0  0  0  0
  1  2  2  0  0  0  0
  2  3  1  0  0  0  0
  3  4  1  0  0  0  0
  3  5  1  0  0  0  0
  3  6  1  0  0  0  0
  2  7  1  0  0  0  0
M  END
> <ChemID>
101929

> <CAS>
354-34-7

> <Original_SMILES>
O=C(F)C(F)(F)F

> <preferred_name>
Acetyl fluoride, trifluoro-

> <dsstox_substance_id>
DTXSID6059867

> <dsstox_compound_id>
DTXCID5039010

> <qc_level>
Public_High

> <Canonical_QSARr>
O=C(F)C(F)(F)F

> <InChI_Code_QSARr>
InChI=1S/C2F4O/c3-1(7)2(4,5)6

> <InChI Key_QSARr>
DCEPGADSNJKOJK-UHFFFAOYSA-N

> <Salt_Solvent>


> <Salt_Solvent_ID>
0

> <MPID>
356729

> <HL Reference>
NIST WEBBOOK

> <HL Temperature>
25

> <LogHL>
-3.4775557664936794

> <Tr_1_Tst_0>


$$$$
101930
  Mrv171c012241914302D          

  9  8  0  0  0  0            999 V2000
    0.8250   -0.4583    0.0000 C   0  0  0  0  0  0  0  0  0  0  0  0
    1.6500   -0.4583    0.0000 F   0  0  0  0  0  0  0  0  0  0  0  0
   -0.0000   -0.4583    0.0000 F   0  0  0  0  0  0  0  0  0  0  0  0
    0.8250   -1.2833    0.0000 C   0  0  0  0  0  0  0  0  0  0  0  0
    0.1105   -1.6958    0.0000 O   0  0  0  0  0  0  0  0  0  0  0  0
    0.8250    0.3667    0.0000 C   0  0  0  0  0  0  0  0  0  0  0  0
    0.8250    1.1917    0.0000 F   0  0  0  0  0  0  0  0  0  0  0  0
    1.6500    0.3667    0.0000 F   0  0  0  0  0  0  0  0  0  0  0  0
   -0.0000    0.3667    0.0000 F   0  0  0  0  0  0  0  0  0  0  0  0
  1  2  1  0  0  0  0
  1  3  1  0  0  0  0
  1  4  1  0  0  0  0
  4  5  1  0  0  0  0
  1  6  1  0  0  0  0
  6  7  1  0  0  0  0
  6  8  1  0  0  0  0
  6  9  1  0  0  0  0
M  END
> <ChemID>
101930

> <CAS>
422-05-9

> <Original_SMILES>
OCC(F)(F)C(F)(F)F

> <preferred_name>
2:1 Fluorotelomer alcohol|1-Propanol, 2,2,3,3,3-pentafluoro-

> <dsstox_substance_id>
DTXSID4059966

> <dsstox_compound_id>
DTXCID4040050

> <qc_level>
Public_High

> <Canonical_QSARr>
OCC(F)(F)C(F)(F)F

> <InChI_Code_QSARr>
InChI=1S/C3H3F5O/c4-2(5,1-9)3(6,7)8/h9H,1H2

> <InChI Key_QSARr>
PSQZJKGXDGNDFP-UHFFFAOYSA-N

> <Salt_Solvent>


> <Salt_Solvent_ID>
0

> <MPID>
356730

> <HL Reference>
ROCHESTER,CH & SYMONDS,JR (1973)

> <HL Temperature>
25

> <LogHL>
-4.6516951369518384

> <Tr_1_Tst_0>


$$$$
101931
  Mrv171c012241914302D          

 10  9  0  0  0  0            999 V2000
    1.9405   -0.1817    0.0000 C   0  0  0  0  0  0  0  0  0  0  0  0
    2.3530    0.5328    0.0000 F   0  0  0  0  0  0  0  0  0  0  0  0
    1.2260    0.2308    0.0000 F   0  0  0  0  0  0  0  0  0  0  0  0
    2.6550   -0.5942    0.0000 F   0  0  0  0  0  0  0  0  0  0  0  0
    1.5280   -0.8962    0.0000 C   0  0  0  0  0  0  0  0  0  0  0  0
    0.8135   -0.4837    0.0000 F   0  0  0  0  0  0  0  0  0  0  0  0
    2.2425   -1.3087    0.0000 F   0  0  0  0  0  0  0  0  0  0  0  0
    1.1155   -1.6106    0.0000 C   0  0  0  0  0  0  0  0  0  0  0  0
    1.5280   -2.3251    0.0000 Cl  0  0  0  0  0  0  0  0  0  0  0  0
    0.2905   -1.6106    0.0000 Cl  0  0  0  0  0  0  0  0  0  0  0  0
  1  2  1  0  0  0  0
  1  3  1  0  0  0  0
  1  4  1  0  0  0  0
  1  5  1  0  0  0  0
  5  6  1  0  0  0  0
  5  7  1  0  0  0  0
  5  8  1  0  0  0  0
  8  9  1  0  0  0  0
  8 10  1  0  0  0  0
M  END
> <ChemID>
101931

> <CAS>
422-56-0

> <Original_SMILES>
FC(F)(F)C(F)(F)C(Cl)Cl

> <preferred_name>
3,3-Dichloro-1,1,1,2,2-pentafluoropropane|3,3-dichloro-1,1,1,2,2-pentafluoropropane

> <dsstox_substance_id>
DTXSID1042027

> <dsstox_compound_id>
DTXCID9022027

> <qc_level>
DSSTox_Low

> <Canonical_QSARr>
FC(F)(F)C(F)(F)C(Cl)Cl

> <InChI_Code_QSARr>
InChI=1S/C3HCl2F5/c4-1(5)2(6,7)3(8,9)10/h1H

> <InChI Key_QSARr>
COAUHYBSXMIJDK-UHFFFAOYSA-N

> <Salt_Solvent>


> <Salt_Solvent_ID>
0

> <MPID>
356731

> <HL Reference>
BERENDS,AG ET AL. (1999)

> <HL Temperature>
25

> <LogHL>
-0.29929628285498067

> <Tr_1_Tst_0>


$$$$
101932
  Mrv171c012241914302D          

  5  4  0  0  0  0            999 V2000
    0.8250   -0.8250    0.0000 C   0  0  0  0  0  0  0  0  0  0  0  0
    0.8250   -1.6500    0.0000 F   0  0  0  0  0  0  0  0  0  0  0  0
    0.8250    0.0000    0.0000 F   0  0  0  0  0  0  0  0  0  0  0  0
    1.6500   -0.8250    0.0000 F   0  0  0  0  0  0  0  0  0  0  0  0
    0.0000   -0.8250    0.0000 F   0  0  0  0  0  0  0  0  0  0  0  0
  1  2  1  0  0  0  0
  1  3  1  0  0  0  0
  1  4  1  0  0  0  0
  1  5  1  0  0  0  0
M  END
> <ChemID>
101932

> <CAS>
75-73-0

> <Original_SMILES>
FC(F)(F)F

> <preferred_name>
Carbon tetrafluoride

> <dsstox_substance_id>
DTXSID2041757

> <dsstox_compound_id>
DTXCID0021757

> <qc_level>
DSSTox_Low

> <Canonical_QSARr>
FC(F)(F)F

> <InChI_Code_QSARr>
InChI=1S/CF4/c2-1(3,4)5

> <InChI Key_QSARr>
TXEYQDLBPFQVAA-UHFFFAOYSA-N

> <Salt_Solvent>


> <Salt_Solvent_ID>
0

> <MPID>
356732

> <HL Reference>
PARK,T ET AL. (1982)

> <HL Temperature>
25

> <LogHL>
0.7118072290411899

> <Tr_1_Tst_0>


$$$$
101933
  Mrv171c012241914302D          

  6  5  0  0  0  0            999 V2000
    1.0703   -0.5078    0.0000 C   0  0  0  0  0  0  0  0  0  0  0  0
    1.0703   -1.3328    0.0000 C   0  0  0  0  0  0  0  0  0  0  0  0
    0.3559   -1.7453    0.0000 O   0  0  0  0  0  0  0  0  0  0  0  0
    1.0703    0.3172    0.0000 F   0  0  0  0  0  0  0  0  0  0  0  0
    1.8953   -0.5078    0.0000 F   0  0  0  0  0  0  0  0  0  0  0  0
    0.2453   -0.5078    0.0000 F   0  0  0  0  0  0  0  0  0  0  0  0
  1  2  1  0  0  0  0
  2  3  1  0  0  0  0
  1  4  1  0  0  0  0
  1  5  1  0  0  0  0
  1  6  1  0  0  0  0
M  END
> <ChemID>
101933

> <CAS>
75-89-8

> <Original_SMILES>
OCC(F)(F)F

> <preferred_name>
2,2,2-Trifluoroethanol

> <dsstox_substance_id>
DTXSID0021751

> <dsstox_compound_id>
DTXCID401751

> <qc_level>
DSSTox_Low

> <Canonical_QSARr>
OCC(F)(F)F

> <InChI_Code_QSARr>
InChI=1S/C2H3F3O/c3-2(4,5)1-6/h6H,1H2

> <InChI Key_QSARr>
RHQDFWAXVIIEBN-UHFFFAOYSA-N

> <Salt_Solvent>


> <Salt_Solvent_ID>
0

> <MPID>
356733

> <HL Reference>
ROCHESTER,CH & SYMONDS,JR (1973)

> <HL Temperature>
25

> <LogHL>
-4.761953896871195

> <Tr_1_Tst_0>


$$$$
101934
  Mrv171c012241914302D          

  7  6  0  0  0  0            999 V2000
    0.9890   -1.5310    0.0000 C   0  0  0  0  0  0  0  0  0  0  0  0
    1.4015   -0.8166    0.0000 C   0  0  0  0  0  0  0  0  0  0  0  0
    1.8140   -0.1021    0.0000 F   0  0  0  0  0  0  0  0  0  0  0  0
    0.6870   -0.4041    0.0000 F   0  0  0  0  0  0  0  0  0  0  0  0
    2.1159   -1.2291    0.0000 F   0  0  0  0  0  0  0  0  0  0  0  0
    1.4015   -2.2455    0.0000 O   0  0  0  0  0  0  0  0  0  0  0  0
    0.1640   -1.5310    0.0000 O   0  0  0  0  0  0  0  0  0  0  0  0
  1  2  1  0  0  0  0
  2  3  1  0  0  0  0
  2  4  1  0  0  0  0
  2  5  1  0  0  0  0
  1  6  1  0  0  0  0
  1  7  2  0  0  0  0
M  END
> <ChemID>
101934

> <CAS>
76-05-1

> <Original_SMILES>
OC(=O)C(F)(F)F

> <preferred_name>
Trifluoroacetic acid|Acetic acid, trifluoro-

> <dsstox_substance_id>
DTXSID9041578

> <dsstox_compound_id>
DTXCID7021578

> <qc_level>
DSSTox_Low

> <Canonical_QSARr>
OC(=O)C(F)(F)F

> <InChI_Code_QSARr>
InChI=1S/C2HF3O2/c3-2(4,5)1(6)7/h(H,6,7)

> <InChI Key_QSARr>
DTQVDTLACAAQTR-UHFFFAOYSA-N

> <Salt_Solvent>


> <Salt_Solvent_ID>
0

> <MPID>
356734

> <HL Reference>
BOWDEN,DJ ET AL. (1998)

> <HL Temperature>
25

> <LogHL>
-6.954677021213347

> <Tr_1_Tst_0>


$$$$
101935
  Mrv171c012241914302D          

  8  7  0  0  0  0            999 V2000
    1.2326   -1.2369    0.0000 C   0  0  0  0  0  0  0  0  0  0  0  0
    1.2326   -2.0619    0.0000 F   0  0  0  0  0  0  0  0  0  0  0  0
    2.0576   -1.2369    0.0000 F   0  0  0  0  0  0  0  0  0  0  0  0
    0.4076   -1.2369    0.0000 F   0  0  0  0  0  0  0  0  0  0  0  0
    1.2326   -0.4119    0.0000 C   0  0  0  0  0  0  0  0  0  0  0  0
    1.2326    0.4131    0.0000 F   0  0  0  0  0  0  0  0  0  0  0  0
    2.0576   -0.4119    0.0000 F   0  0  0  0  0  0  0  0  0  0  0  0
    0.4076   -0.4119    0.0000 F   0  0  0  0  0  0  0  0  0  0  0  0
  1  2  1  0  0  0  0
  1  3  1  0  0  0  0
  1  4  1  0  0  0  0
  1  5  1  0  0  0  0
  5  6  1  0  0  0  0
  5  7  1  0  0  0  0
  5  8  1  0  0  0  0
M  END
> <ChemID>
101935

> <CAS>
76-16-4

> <Original_SMILES>
FC(F)(F)C(F)(F)F

> <preferred_name>
Perfluoroethane|Ethane, hexafluoro-

> <dsstox_substance_id>
DTXSID2041915

> <dsstox_compound_id>
DTXCID0021915

> <qc_level>
DSSTox_Low

> <Canonical_QSARr>
FC(F)(F)C(F)(F)F

> <InChI_Code_QSARr>
InChI=1S/C2F6/c3-1(4,5)2(6,7)8

> <InChI Key_QSARr>
WMIYKQLTONQJES-UHFFFAOYSA-N

> <Salt_Solvent>


> <Salt_Solvent_ID>
0

> <MPID>
356735

> <HL Reference>
PARK,T ET AL. (1982)

> <HL Temperature>
25

> <LogHL>
1.3074960379132126

> <Tr_1_Tst_0>


$$$$
101936
  Mrv171c012241914302D          

  8  7  0  0  0  0            999 V2000
    0.8904   -0.0654    0.0000 C   0  0  0  0  0  0  0  0  0  0  0  0
    0.1759    0.3471    0.0000 F   0  0  0  0  0  0  0  0  0  0  0  0
    1.6048   -0.4779    0.0000 F   0  0  0  0  0  0  0  0  0  0  0  0
    1.3029    0.6491    0.0000 C   0  0  0  0  0  0  0  0  0  0  0  0
    0.8904    1.3636    0.0000 O   0  0  0  0  0  0  0  0  0  0  0  0
    0.4779   -0.7798    0.0000 C   0  0  0  0  0  0  0  0  0  0  0  0
    0.8904   -1.4943    0.0000 F   0  0  0  0  0  0  0  0  0  0  0  0
   -0.3471   -0.7798    0.0000 F   0  0  0  0  0  0  0  0  0  0  0  0
  1  2  1  0  0  0  0
  1  3  1  0  0  0  0
  1  4  1  0  0  0  0
  4  5  1  0  0  0  0
  1  6  1  0  0  0  0
  6  7  1  0  0  0  0
  6  8  1  0  0  0  0
M  END
> <ChemID>
101936

> <CAS>
76-37-9

> <Original_SMILES>
OCC(F)(F)C(F)F

> <preferred_name>
2,2,3,3-Tetrafluoro-1-propanol|1-Propanol, 2,2,3,3-tetrafluoro-

> <dsstox_substance_id>
DTXSID8058796

> <dsstox_compound_id>
DTXCID0047828

> <qc_level>
Public_High

> <Canonical_QSARr>
OCC(F)(F)C(F)F

> <InChI_Code_QSARr>
InChI=1S/C3H4F4O/c4-2(5)3(6,7)1-8/h2,8H,1H2

> <InChI Key_QSARr>
NBUKAOOFKZFCGD-UHFFFAOYSA-N

> <Salt_Solvent>


> <Salt_Solvent_ID>
0

> <MPID>
356736

> <HL Reference>
ROCHESTER,CH & SYMONDS,JR (1973)

> <HL Temperature>
25

> <LogHL>
-5.201349354554725

> <Tr_1_Tst_0>


$$$$
101937
  Mrv171c012241914302D          

  6  5  0  0  0  0            999 V2000
    0.3559   -1.7453    0.0000 F   0  0  0  0  0  0  0  0  0  0  0  0
    1.0703   -1.3328    0.0000 C   0  0  0  0  0  0  0  0  0  0  0  0
    1.0703   -0.5078    0.0000 C   0  0  0  0  0  0  0  0  0  0  0  0
    1.0703    0.3172    0.0000 F   0  0  0  0  0  0  0  0  0  0  0  0
    1.8953   -0.5078    0.0000 F   0  0  0  0  0  0  0  0  0  0  0  0
    0.2453   -0.5078    0.0000 F   0  0  0  0  0  0  0  0  0  0  0  0
  1  2  1  0  0  0  0
  2  3  1  0  0  0  0
  3  4  1  0  0  0  0
  3  5  1  0  0  0  0
  3  6  1  0  0  0  0
M  END
> <ChemID>
101937

> <CAS>
811-97-2

> <Original_SMILES>
FCC(F)(F)F

> <preferred_name>
1,1,1,2-Tetrafluoroethane

> <dsstox_substance_id>
DTXSID1021324

> <dsstox_compound_id>
DTXCID901324

> <qc_level>
DSSTox_Low

> <Canonical_QSARr>
FCC(F)(F)F

> <InChI_Code_QSARr>
InChI=1S/C2H2F4/c3-1-2(4,5)6/h1H2

> <InChI Key_QSARr>
LVGUZGTVOIAKKC-UHFFFAOYSA-N

> <Salt_Solvent>


> <Salt_Solvent_ID>
0

> <MPID>
356737

> <HL Reference>
CHANG,WK & CRIDDLE,CS (1995)

> <HL Temperature>
22

> <LogHL>
-1.3010299956639808

> <Tr_1_Tst_0>


$$$$
101938
  Mrv171c012241914302D          

 10  9  0  0  0  0            999 V2000
    1.4413   -0.7697    0.0000 C   0  0  0  0  0  0  0  0  0  0  0  0
    1.4413   -1.5947    0.0000 C   0  0  0  0  0  0  0  0  0  0  0  0
    0.7268   -2.0072    0.0000 C   0  0  0  0  0  0  0  0  0  0  0  0
    0.0124   -2.4197    0.0000 F   0  0  0  0  0  0  0  0  0  0  0  0
    1.1393   -2.7217    0.0000 F   0  0  0  0  0  0  0  0  0  0  0  0
    0.3143   -1.2928    0.0000 F   0  0  0  0  0  0  0  0  0  0  0  0
    2.1558   -2.0072    0.0000 O   0  0  0  0  0  0  0  0  0  0  0  0
    1.4413    0.0553    0.0000 F   0  0  0  0  0  0  0  0  0  0  0  0
    2.2663   -0.7697    0.0000 F   0  0  0  0  0  0  0  0  0  0  0  0
    0.6163   -0.7697    0.0000 F   0  0  0  0  0  0  0  0  0  0  0  0
  1  2  1  0  0  0  0
  2  3  1  0  0  0  0
  3  4  1  0  0  0  0
  3  5  1  0  0  0  0
  3  6  1  0  0  0  0
  2  7  1  0  0  0  0
  1  8  1  0  0  0  0
  1  9  1  0  0  0  0
  1 10  1  0  0  0  0
M  END
> <ChemID>
101938

> <CAS>
920-66-1

> <Original_SMILES>
OC(C(F)(F)F)C(F)(F)F

> <preferred_name>
2H-Perfluoro-2-propanol|1,1,1,3,3,3-Hexafluoro-2-propanol

> <dsstox_substance_id>
DTXSID1022134

> <dsstox_compound_id>
DTXCID902134

> <qc_level>
DSSTox_Low

> <Canonical_QSARr>
OC(C(F)(F)F)C(F)(F)F

> <InChI_Code_QSARr>
InChI=1S/C3H2F6O/c4-2(5,6)1(10)3(7,8)9/h1,10H

> <InChI Key_QSARr>
BYEAHWXPCBROCE-UHFFFAOYSA-N

> <Salt_Solvent>


> <Salt_Solvent_ID>
0

> <MPID>
356738

> <HL Reference>
ROCHESTER,CH & SYMONDS,JR (1973)

> <HL Temperature>
25

> <LogHL>
-4.371611069949687

> <Tr_1_Tst_0>


$$$$
