100001
  Mrv171c012251910542D          

 19 20  0  0  0  0            999 V2000
    1.3190   -2.0632    0.0000 Cl  0  0  0  0  0  0  0  0  0  0  0  0
    1.7315   -2.7776    0.0000 C   0  0  0  0  0  0  0  0  0  0  0  0
    2.1440   -3.4921    0.0000 Cl  0  0  0  0  0  0  0  0  0  0  0  0
    1.0170   -3.1901    0.0000 Cl  0  0  0  0  0  0  0  0  0  0  0  0
    2.4459   -2.3651    0.0000 C   0  0  0  0  0  0  0  0  0  0  0  0
    2.4459   -1.5401    0.0000 C   0  0  0  0  0  0  0  0  0  0  0  0
    3.1604   -1.1276    0.0000 C   0  0  0  0  0  0  0  0  0  0  0  0
    3.1604   -0.3026    0.0000 C   0  0  0  0  0  0  0  0  0  0  0  0
    2.4459    0.1099    0.0000 C   0  0  0  0  0  0  0  0  0  0  0  0
    2.4459    0.9349    0.0000 Cl  0  0  0  0  0  0  0  0  0  0  0  0
    1.7315   -0.3026    0.0000 C   0  0  0  0  0  0  0  0  0  0  0  0
    1.7315   -1.1276    0.0000 C   0  0  0  0  0  0  0  0  0  0  0  0
    3.1604   -2.7776    0.0000 C   0  0  0  0  0  0  0  0  0  0  0  0
    3.1604   -3.6026    0.0000 C   0  0  0  0  0  0  0  0  0  0  0  0
    3.8749   -4.0151    0.0000 C   0  0  0  0  0  0  0  0  0  0  0  0
    4.5894   -3.6026    0.0000 C   0  0  0  0  0  0  0  0  0  0  0  0
    5.3038   -4.0151    0.0000 Cl  0  0  0  0  0  0  0  0  0  0  0  0
    4.5894   -2.7776    0.0000 C   0  0  0  0  0  0  0  0  0  0  0  0
    3.8749   -2.3651    0.0000 C   0  0  0  0  0  0  0  0  0  0  0  0
  1  2  1  0  0  0  0
  2  3  1  0  0  0  0
  2  4  1  0  0  0  0
  2  5  1  0  0  0  0
  5  6  1  0  0  0  0
  7  6  1  0  0  0  0
  8  7  2  0  0  0  0
  9  8  1  0  0  0  0
  9 10  1  0  0  0  0
 11  9  2  0  0  0  0
 12 11  1  0  0  0  0
  6 12  2  0  0  0  0
  5 13  1  0  0  0  0
 14 13  1  0  0  0  0
 15 14  2  0  0  0  0
 16 15  1  0  0  0  0
 16 17  1  0  0  0  0
 18 16  2  0  0  0  0
 19 18  1  0  0  0  0
 13 19  2  0  0  0  0
M  END
> <ChemID>
100001

> <CAS>
50-29-3

> <Original_SMILES>
ClC(Cl)(Cl)C(c1ccc(Cl)cc1)c1ccc(Cl)cc1

> <preferred_name>
p,p'-DDT

> <dsstox_substance_id>
DTXSID4020375

> <dsstox_compound_id>
DTXCID20375

> <qc_level>
DSSTox_High

> <Canonical_QSARr>
ClC(Cl)(Cl)C(C1C=CC(Cl)=CC=1)C1C=CC(Cl)=CC=1

> <InChI_Code_QSARr>
InChI=1S/C14H9Cl5/c15-11-5-1-9(2-6-11)13(14(17,18)19)10-3-7-12(16)8-4-10/h1-8,13H

> <InChI Key_QSARr>
YVGGHNCTFXOJCH-UHFFFAOYSA-N

> <Salt_Solvent>


> <Salt_Solvent_ID>
0

> <MPID>
101638

> <LogKmHL>
1.93

> <Tr_1_Tst_0>
1

$$$$
100002
  Mrv171c012251910542D          

 20 24  0  0  0  0            999 V2000
    2.8348   -2.5049    0.0000 C   0  0  0  0  0  0  0  0  0  0  0  0
    3.1048   -1.7254    0.0000 C   0  0  0  0  0  0  0  0  0  0  0  0
    3.9149   -1.5695    0.0000 C   0  0  0  0  0  0  0  0  0  0  0  0
    4.4550   -2.1931    0.0000 C   0  0  0  0  0  0  0  0  0  0  0  0
    5.2652   -2.0372    0.0000 C   0  0  0  0  0  0  0  0  0  0  0  0
    5.5352   -1.2576    0.0000 C   0  0  0  0  0  0  0  0  0  0  0  0
    4.9951   -0.6340    0.0000 C   0  0  0  0  0  0  0  0  0  0  0  0
    4.1850   -0.7899    0.0000 C   0  0  0  0  0  0  0  0  0  0  0  0
    3.6449   -0.1663    0.0000 C   0  0  0  0  0  0  0  0  0  0  0  0
    2.8348   -0.3222    0.0000 C   0  0  0  0  0  0  0  0  0  0  0  0
    2.5647   -1.1017    0.0000 C   0  0  0  0  0  0  0  0  0  0  0  0
    1.7546   -1.2576    0.0000 C   0  0  0  0  0  0  0  0  0  0  0  0
    1.2145   -0.6340    0.0000 C   0  0  0  0  0  0  0  0  0  0  0  0
    1.4845    0.1456    0.0000 C   0  0  0  0  0  0  0  0  0  0  0  0
    2.2947    0.3015    0.0000 C   0  0  0  0  0  0  0  0  0  0  0  0
    0.4043   -0.7899    0.0000 C   0  0  0  0  0  0  0  0  0  0  0  0
    0.1343   -1.5695    0.0000 C   0  0  0  0  0  0  0  0  0  0  0  0
    0.6744   -2.1931    0.0000 C   0  0  0  0  0  0  0  0  0  0  0  0
    1.4845   -2.0372    0.0000 C   0  0  0  0  0  0  0  0  0  0  0  0
    2.0246   -2.6608    0.0000 C   0  0  0  0  0  0  0  0  0  0  0  0
  2  1  1  0  0  0  0
  2  3  2  0  0  0  0
  4  3  1  0  0  0  0
  5  4  2  0  0  0  0
  6  5  1  0  0  0  0
  7  6  2  0  0  0  0
  8  7  1  0  0  0  0
  3  8  1  0  0  0  0
  8  9  2  0  0  0  0
  9 10  1  0  0  0  0
 10 11  1  0  0  0  0
 11  2  1  0  0  0  0
 11 12  2  0  0  0  0
 12 13  1  0  0  0  0
 13 14  2  0  0  0  0
 14 15  1  0  0  0  0
 15 10  2  0  0  0  0
 13 16  1  0  0  0  0
 16 17  2  0  0  0  0
 17 18  1  0  0  0  0
 18 19  2  0  0  0  0
 19 12  1  0  0  0  0
 20 19  1  0  0  0  0
  1 20  2  0  0  0  0
M  END
> <ChemID>
100002

> <CAS>
50-32-8

> <Original_SMILES>
c1c2ccccc2c2ccc3cccc4ccc1c2c34

> <preferred_name>
Benzo(a)pyrene

> <dsstox_substance_id>
DTXSID2020139

> <dsstox_compound_id>
DTXCID40139

> <qc_level>
DSSTox_Low

> <Canonical_QSARr>
C1C2=CC=C3C=CC=C4C=CC(C2=C34)=C2C=CC=CC2=1

> <InChI_Code_QSARr>
InChI=1S/C20H12/c1-2-7-17-15(4-1)12-16-9-8-13-5-3-6-14-10-11-18(17)20(16)19(13)14/h1-12H

> <InChI Key_QSARr>
FMMWHPNWAFZXNH-UHFFFAOYSA-N

> <Salt_Solvent>


> <Salt_Solvent_ID>
0

> <MPID>
101639

> <LogKmHL>
0.05

> <Tr_1_Tst_0>
1

$$$$
100003
  Mrv171c012251910542D          

 18 19  0  0  0  0            999 V2000
    6.0303   -2.7928    0.0000 Cl  0  0  0  0  0  0  0  0  0  0  0  0
    5.3158   -3.2053    0.0000 C   0  0  0  0  0  0  0  0  0  0  0  0
    5.3158   -4.0303    0.0000 Cl  0  0  0  0  0  0  0  0  0  0  0  0
    4.6013   -2.7928    0.0000 C   0  0  0  0  0  0  0  0  0  0  0  0
    4.6013   -1.9678    0.0000 C   0  0  0  0  0  0  0  0  0  0  0  0
    5.3158   -1.5553    0.0000 C   0  0  0  0  0  0  0  0  0  0  0  0
    5.3158   -0.7303    0.0000 C   0  0  0  0  0  0  0  0  0  0  0  0
    4.6013   -0.3178    0.0000 C   0  0  0  0  0  0  0  0  0  0  0  0
    4.6013    0.5072    0.0000 Cl  0  0  0  0  0  0  0  0  0  0  0  0
    3.8869   -0.7303    0.0000 C   0  0  0  0  0  0  0  0  0  0  0  0
    3.8869   -1.5553    0.0000 C   0  0  0  0  0  0  0  0  0  0  0  0
    3.8869   -3.2053    0.0000 C   0  0  0  0  0  0  0  0  0  0  0  0
    3.1724   -2.7928    0.0000 C   0  0  0  0  0  0  0  0  0  0  0  0
    2.4579   -3.2053    0.0000 C   0  0  0  0  0  0  0  0  0  0  0  0
    2.4579   -4.0303    0.0000 C   0  0  0  0  0  0  0  0  0  0  0  0
    3.1724   -4.4428    0.0000 C   0  0  0  0  0  0  0  0  0  0  0  0
    3.8869   -4.0303    0.0000 C   0  0  0  0  0  0  0  0  0  0  0  0
    4.6013   -4.4428    0.0000 Cl  0  0  0  0  0  0  0  0  0  0  0  0
  1  2  1  0  0  0  0
  2  3  1  0  0  0  0
  2  4  1  0  0  0  0
  4  5  1  0  0  0  0
  6  5  1  0  0  0  0
  7  6  2  0  0  0  0
  8  7  1  0  0  0  0
  8  9  1  0  0  0  0
 10  8  2  0  0  0  0
 11 10  1  0  0  0  0
  5 11  2  0  0  0  0
  4 12  1  0  0  0  0
 13 12  1  0  0  0  0
 14 13  2  0  0  0  0
 15 14  1  0  0  0  0
 16 15  2  0  0  0  0
 17 16  1  0  0  0  0
 12 17  2  0  0  0  0
 17 18  1  0  0  0  0
M  END
> <ChemID>
100003

> <CAS>
53-19-0

> <Original_SMILES>
ClC(Cl)C(c1ccccc1Cl)c1ccc(Cl)cc1

> <preferred_name>
o,p'-DDD

> <dsstox_substance_id>
DTXSID9020372

> <dsstox_compound_id>
DTXCID30372

> <qc_level>
DSSTox_Low

> <Canonical_QSARr>
ClC(Cl)C(C1C=CC=CC=1Cl)C1=CC=C(Cl)C=C1

> <InChI_Code_QSARr>
InChI=1S/C14H10Cl4/c15-10-7-5-9(6-8-10)13(14(17)18)11-3-1-2-4-12(11)16/h1-8,13-14H

> <InChI Key_QSARr>
JWBOIMRXGHLCPP-UHFFFAOYSA-N

> <Salt_Solvent>


> <Salt_Solvent_ID>
0

> <MPID>
101640

> <LogKmHL>
1.65

> <Tr_1_Tst_0>
1

$$$$
100004
  Mrv171c012251910542D          

 22 26  0  0  0  0            999 V2000
    3.7119   -2.1422    0.0000 C   0  0  0  0  0  0  0  0  0  0  0  0
    4.1244   -1.4277    0.0000 C   0  0  0  0  0  0  0  0  0  0  0  0
    4.9494   -1.4277    0.0000 C   0  0  0  0  0  0  0  0  0  0  0  0
    5.3619   -2.1422    0.0000 C   0  0  0  0  0  0  0  0  0  0  0  0
    6.1869   -2.1422    0.0000 C   0  0  0  0  0  0  0  0  0  0  0  0
    6.5994   -1.4277    0.0000 C   0  0  0  0  0  0  0  0  0  0  0  0
    6.1869   -0.7133    0.0000 C   0  0  0  0  0  0  0  0  0  0  0  0
    5.3619   -0.7133    0.0000 C   0  0  0  0  0  0  0  0  0  0  0  0
    4.9494    0.0012    0.0000 C   0  0  0  0  0  0  0  0  0  0  0  0
    4.1244    0.0012    0.0000 C   0  0  0  0  0  0  0  0  0  0  0  0
    3.7119   -0.7133    0.0000 C   0  0  0  0  0  0  0  0  0  0  0  0
    2.8869   -0.7133    0.0000 C   0  0  0  0  0  0  0  0  0  0  0  0
    2.4744   -1.4277    0.0000 C   0  0  0  0  0  0  0  0  0  0  0  0
    1.6494   -1.4277    0.0000 C   0  0  0  0  0  0  0  0  0  0  0  0
    1.2369   -0.7133    0.0000 C   0  0  0  0  0  0  0  0  0  0  0  0
    0.4119   -0.7133    0.0000 C   0  0  0  0  0  0  0  0  0  0  0  0
   -0.0006   -1.4277    0.0000 C   0  0  0  0  0  0  0  0  0  0  0  0
    0.4119   -2.1422    0.0000 C   0  0  0  0  0  0  0  0  0  0  0  0
    1.2369   -2.1422    0.0000 C   0  0  0  0  0  0  0  0  0  0  0  0
    1.6494   -2.8567    0.0000 C   0  0  0  0  0  0  0  0  0  0  0  0
    2.4744   -2.8567    0.0000 C   0  0  0  0  0  0  0  0  0  0  0  0
    2.8869   -2.1422    0.0000 C   0  0  0  0  0  0  0  0  0  0  0  0
  2  1  1  0  0  0  0
  2  3  2  0  0  0  0
  4  3  1  0  0  0  0
  5  4  2  0  0  0  0
  6  5  1  0  0  0  0
  7  6  2  0  0  0  0
  8  7  1  0  0  0  0
  3  8  1  0  0  0  0
  8  9  2  0  0  0  0
  9 10  1  0  0  0  0
 10 11  2  0  0  0  0
 11  2  1  0  0  0  0
 12 11  1  0  0  0  0
 13 12  2  0  0  0  0
 13 14  1  0  0  0  0
 15 14  2  0  0  0  0
 16 15  1  0  0  0  0
 17 16  2  0  0  0  0
 18 17  1  0  0  0  0
 19 18  2  0  0  0  0
 14 19  1  0  0  0  0
 19 20  1  0  0  0  0
 20 21  2  0  0  0  0
 21 22  1  0  0  0  0
  1 22  2  0  0  0  0
 22 13  1  0  0  0  0
M  END
> <ChemID>
100004

> <CAS>
53-70-3

> <Original_SMILES>
c1c2c3ccccc3ccc2cc2c3ccccc3ccc21

> <preferred_name>
Dibenz(a,h)anthracene

> <dsstox_substance_id>
DTXSID9020409

> <dsstox_compound_id>
DTXCID10409

> <qc_level>
DSSTox_Low

> <Canonical_QSARr>
C1=C2C3=CC=CC=C3C=CC2=CC2=C3C=CC=CC3=CC=C21

> <InChI_Code_QSARr>
InChI=1S/C22H14/c1-3-7-19-15(5-1)9-11-17-14-22-18(13-21(17)19)12-10-16-6-2-4-8-20(16)22/h1-14H

> <InChI Key_QSARr>
LHRCREOYAASXPZ-UHFFFAOYSA-N

> <Salt_Solvent>


> <Salt_Solvent_ID>
0

> <MPID>
101641

> <LogKmHL>
0.21

> <Tr_1_Tst_0>
0

$$$$
100005
  Mrv171c012251910542D          

 16 16  0  0  0  0            999 V2000
    3.9709   -2.3001    0.0000 S   0  0  0  0  0  0  0  0  0  0  0  0
    4.3834   -3.0146    0.0000 P   0  0  0  0  0  0  0  0  0  0  0  0
    3.6690   -3.4271    0.0000 O   0  0  0  0  0  0  0  0  0  0  0  0
    3.6690   -4.2521    0.0000 C   0  0  0  0  0  0  0  0  0  0  0  0
    4.7959   -3.7291    0.0000 O   0  0  0  0  0  0  0  0  0  0  0  0
    4.3834   -4.4436    0.0000 C   0  0  0  0  0  0  0  0  0  0  0  0
    5.0979   -2.6021    0.0000 O   0  0  0  0  0  0  0  0  0  0  0  0
    5.0979   -1.7771    0.0000 C   0  0  0  0  0  0  0  0  0  0  0  0
    5.8124   -1.3646    0.0000 C   0  0  0  0  0  0  0  0  0  0  0  0
    5.8124   -0.5396    0.0000 C   0  0  0  0  0  0  0  0  0  0  0  0
    5.0979   -0.1271    0.0000 C   0  0  0  0  0  0  0  0  0  0  0  0
    5.0979    0.6979    0.0000 S   0  0  0  0  0  0  0  0  0  0  0  0
    4.3834    1.1104    0.0000 C   0  0  0  0  0  0  0  0  0  0  0  0
    4.3834   -0.5396    0.0000 C   0  0  0  0  0  0  0  0  0  0  0  0
    3.6690   -0.1271    0.0000 C   0  0  0  0  0  0  0  0  0  0  0  0
    4.3834   -1.3646    0.0000 C   0  0  0  0  0  0  0  0  0  0  0  0
  1  2  2  0  0  0  0
  2  3  1  0  0  0  0
  3  4  1  0  0  0  0
  2  5  1  0  0  0  0
  5  6  1  0  0  0  0
  2  7  1  0  0  0  0
  7  8  1  0  0  0  0
  9  8  1  0  0  0  0
 10  9  2  0  0  0  0
 11 10  1  0  0  0  0
 11 12  1  0  0  0  0
 12 13  1  0  0  0  0
 14 11  2  0  0  0  0
 14 15  1  0  0  0  0
 16 14  1  0  0  0  0
  8 16  2  0  0  0  0
M  END
> <ChemID>
100005

> <CAS>
55-38-9

> <Original_SMILES>
Cc1cc(ccc1SC)OP(=S)(OC)OC

> <preferred_name>
Fenthion

> <dsstox_substance_id>
DTXSID8020620

> <dsstox_compound_id>
DTXCID00620

> <qc_level>
DSSTox_High

> <Canonical_QSARr>
CC1C=C(C=CC=1SC)OP(=S)(OC)OC

> <InChI_Code_QSARr>
InChI=1S/C10H15O3PS2/c1-8-7-9(5-6-10(8)16-4)13-14(15,11-2)12-3/h5-7H,1-4H3

> <InChI Key_QSARr>
PNVJTZOFSHSLTO-UHFFFAOYSA-N

> <Salt_Solvent>


> <Salt_Solvent_ID>
0

> <MPID>
101642

> <LogKmHL>
-0.36

> <Tr_1_Tst_0>
1

$$$$
100006
  Mrv171c012251910542D          

  5  4  0  0  0  0            999 V2000
    0.8250   -1.6500    0.0000 Cl  0  0  0  0  0  0  0  0  0  0  0  0
    0.8250   -0.8250    0.0000 C   0  0  0  0  0  0  0  0  0  0  0  0
    0.8250    0.0000    0.0000 Cl  0  0  0  0  0  0  0  0  0  0  0  0
    1.6500   -0.8250    0.0000 Cl  0  0  0  0  0  0  0  0  0  0  0  0
    0.0000   -0.8250    0.0000 Cl  0  0  0  0  0  0  0  0  0  0  0  0
  1  2  1  0  0  0  0
  2  3  1  0  0  0  0
  2  4  1  0  0  0  0
  2  5  1  0  0  0  0
M  END
> <ChemID>
100006

> <CAS>
56-23-5

> <Original_SMILES>
ClC(Cl)(Cl)Cl

> <preferred_name>
Carbon tetrachloride

> <dsstox_substance_id>
DTXSID8020250

> <dsstox_compound_id>
DTXCID20250

> <qc_level>
DSSTox_Low

> <Canonical_QSARr>
ClC(Cl)(Cl)Cl

> <InChI_Code_QSARr>
InChI=1S/CCl4/c2-1(3,4)5

> <InChI Key_QSARr>
VZGDMQKNWNREIO-UHFFFAOYSA-N

> <Salt_Solvent>


> <Salt_Solvent_ID>
0

> <MPID>
101643

> <LogKmHL>
-1.19

> <Tr_1_Tst_0>
1

$$$$
100007
  Mrv171c012251910542D          

 18 18  0  0  0  0            999 V2000
    2.3786   -1.4485    0.0000 S   0  0  0  0  0  0  0  0  0  0  0  0
    2.7911   -2.1629    0.0000 P   0  0  0  0  0  0  0  0  0  0  0  0
    2.0766   -2.5754    0.0000 O   0  0  0  0  0  0  0  0  0  0  0  0
    2.0766   -3.4004    0.0000 C   0  0  0  0  0  0  0  0  0  0  0  0
    1.3621   -3.8129    0.0000 C   0  0  0  0  0  0  0  0  0  0  0  0
    3.2036   -2.8774    0.0000 O   0  0  0  0  0  0  0  0  0  0  0  0
    2.7911   -3.5919    0.0000 C   0  0  0  0  0  0  0  0  0  0  0  0
    3.2036   -4.3063    0.0000 C   0  0  0  0  0  0  0  0  0  0  0  0
    3.5055   -1.7504    0.0000 O   0  0  0  0  0  0  0  0  0  0  0  0
    3.5055   -0.9254    0.0000 C   0  0  0  0  0  0  0  0  0  0  0  0
    4.2200   -0.5129    0.0000 C   0  0  0  0  0  0  0  0  0  0  0  0
    4.2200    0.3121    0.0000 C   0  0  0  0  0  0  0  0  0  0  0  0
    3.5055    0.7246    0.0000 C   0  0  0  0  0  0  0  0  0  0  0  0
    3.5055    1.5496    0.0000 N   0  3  0  0  0  0  0  0  0  0  0  0
    2.7911    1.9621    0.0000 O   0  5  0  0  0  0  0  0  0  0  0  0
    4.2200    1.9621    0.0000 O   0  0  0  0  0  0  0  0  0  0  0  0
    2.7911    0.3121    0.0000 C   0  0  0  0  0  0  0  0  0  0  0  0
    2.7911   -0.5129    0.0000 C   0  0  0  0  0  0  0  0  0  0  0  0
  1  2  2  0  0  0  0
  2  3  1  0  0  0  0
  3  4  1  0  0  0  0
  4  5  1  0  0  0  0
  2  6  1  0  0  0  0
  6  7  1  0  0  0  0
  7  8  1  0  0  0  0
  2  9  1  0  0  0  0
  9 10  1  0  0  0  0
 11 10  1  0  0  0  0
 12 11  2  0  0  0  0
 13 12  1  0  0  0  0
 13 14  1  0  0  0  0
 14 15  1  0  0  0  0
 14 16  2  0  0  0  0
 17 13  2  0  0  0  0
 18 17  1  0  0  0  0
 10 18  2  0  0  0  0
M  CHG  2  14   1  15  -1
M  END
> <ChemID>
100007

> <CAS>
56-38-2

> <Original_SMILES>
CCOP(=S)(Oc1ccc(cc1)[N+]([O-])=O)OCC

> <preferred_name>
Parathion

> <dsstox_substance_id>
DTXSID7021100

> <dsstox_compound_id>
DTXCID301100

> <qc_level>
DSSTox_Low

> <Canonical_QSARr>
CCOP(=S)(OC1C=CC(=CC=1)[N+]([O-])=O)OCC

> <InChI_Code_QSARr>
InChI=1S/C10H14NO5PS/c1-3-14-17(18,15-4-2)16-10-7-5-9(6-8-10)11(12)13/h5-8H,3-4H2,1-2H3

> <InChI Key_QSARr>
LCCNCVORNKJIRZ-UHFFFAOYSA-N

> <Salt_Solvent>


> <Salt_Solvent_ID>
0

> <MPID>
101644

> <LogKmHL>
-0.41

> <Tr_1_Tst_0>
1

$$$$
100008
  Mrv171c012251910542D          

 18 21  0  0  0  0            999 V2000
    2.8633   -1.7226    0.0000 C   0  0  0  0  0  0  0  0  0  0  0  0
    3.6734   -1.5667    0.0000 C   0  0  0  0  0  0  0  0  0  0  0  0
    3.9434   -0.7872    0.0000 C   0  0  0  0  0  0  0  0  0  0  0  0
    4.7536   -0.6313    0.0000 C   0  0  0  0  0  0  0  0  0  0  0  0
    5.2937   -1.2549    0.0000 C   0  0  0  0  0  0  0  0  0  0  0  0
    5.0236   -2.0345    0.0000 C   0  0  0  0  0  0  0  0  0  0  0  0
    4.2135   -2.1904    0.0000 C   0  0  0  0  0  0  0  0  0  0  0  0
    3.9434   -2.9699    0.0000 C   0  0  0  0  0  0  0  0  0  0  0  0
    3.1333   -3.1258    0.0000 C   0  0  0  0  0  0  0  0  0  0  0  0
    2.5932   -2.5022    0.0000 C   0  0  0  0  0  0  0  0  0  0  0  0
    1.7831   -2.6581    0.0000 C   0  0  0  0  0  0  0  0  0  0  0  0
    1.2430   -2.0345    0.0000 C   0  0  0  0  0  0  0  0  0  0  0  0
    0.4329   -2.1904    0.0000 C   0  0  0  0  0  0  0  0  0  0  0  0
   -0.1072   -1.5667    0.0000 C   0  0  0  0  0  0  0  0  0  0  0  0
    0.1628   -0.7872    0.0000 C   0  0  0  0  0  0  0  0  0  0  0  0
    0.9730   -0.6313    0.0000 C   0  0  0  0  0  0  0  0  0  0  0  0
    1.5130   -1.2549    0.0000 C   0  0  0  0  0  0  0  0  0  0  0  0
    2.3232   -1.0990    0.0000 C   0  0  0  0  0  0  0  0  0  0  0  0
  2  1  1  0  0  0  0
  2  3  1  0  0  0  0
  3  4  2  0  0  0  0
  4  5  1  0  0  0  0
  5  6  2  0  0  0  0
  6  7  1  0  0  0  0
  7  2  2  0  0  0  0
  8  7  1  0  0  0  0
  9  8  2  0  0  0  0
 10  9  1  0  0  0  0
 10  1  1  0  0  0  0
 11 10  2  0  0  0  0
 12 11  1  0  0  0  0
 12 13  1  0  0  0  0
 13 14  2  0  0  0  0
 14 15  1  0  0  0  0
 15 16  2  0  0  0  0
 16 17  1  0  0  0  0
 17 12  2  0  0  0  0
 18 17  1  0  0  0  0
  1 18  2  0  0  0  0
M  END
> <ChemID>
100008

> <CAS>
56-55-3

> <Original_SMILES>
c1c2c3ccccc3ccc2cc2ccccc21

> <preferred_name>
Benz(a)anthracene

> <dsstox_substance_id>
DTXSID5023902

> <dsstox_compound_id>
DTXCID903902

> <qc_level>
DSSTox_Low

> <Canonical_QSARr>
C1=C2C3C=CC=CC=3C=CC2=CC2C=CC=CC=21

> <InChI_Code_QSARr>
InChI=1S/C18H12/c1-2-7-15-12-18-16(11-14(15)6-1)10-9-13-5-3-4-8-17(13)18/h1-12H

> <InChI Key_QSARr>
DXBHBZVCASKNBY-UHFFFAOYSA-N

> <Salt_Solvent>


> <Salt_Solvent_ID>
0

> <MPID>
101645

> <LogKmHL>
0.02

> <Tr_1_Tst_0>
0

$$$$
100009
  Mrv171c012251910542D          

 18 20  0  0  0  0            999 V2000
    1.3175   -1.5147    0.0000 C   0  0  0  0  0  0  0  0  0  0  0  0
    0.4609   -1.4936    0.0000 Cl  0  0  0  0  0  0  0  0  0  0  0  0
    1.7956   -2.1870    0.0000 C   0  0  0  0  0  0  0  0  0  0  0  0
    1.3151   -2.9094    0.0000 Cl  0  0  0  0  0  0  0  0  0  0  0  0
    2.4995   -2.0217    0.0000 C   0  0  0  0  0  0  0  0  0  0  0  0
    3.2930   -2.3598    0.0000 C   0  0  0  0  0  0  0  0  0  0  0  0
    3.5861   -3.1936    0.0000 Cl  0  0  0  0  0  0  0  0  0  0  0  0
    3.5077   -1.5369    0.0000 C   0  0  0  0  0  0  0  0  0  0  0  0
    2.8824   -2.3390    0.0000 Cl  0  0  0  0  0  0  0  0  0  0  0  0
    2.8734   -0.6796    0.0000 Cl  0  0  0  0  0  0  0  0  0  0  0  0
    3.3098   -0.7099    0.0000 C   0  0  0  0  0  0  0  0  0  0  0  0
    3.5557    0.1537    0.0000 Cl  0  0  0  0  0  0  0  0  0  0  0  0
    2.5912   -1.1151    0.0000 C   0  0  0  0  0  0  0  0  0  0  0  0
    1.8092   -0.8522    0.0000 C   0  0  0  0  0  0  0  0  0  0  0  0
    4.0200   -1.1296    0.0000 C   0  0  0  0  0  0  0  0  0  0  0  0
    4.7861   -0.7240    0.0000 Cl  0  0  0  0  0  0  0  0  0  0  0  0
    4.0117   -1.9546    0.0000 C   0  0  0  0  0  0  0  0  0  0  0  0
    4.7785   -2.3615    0.0000 Cl  0  0  0  0  0  0  0  0  0  0  0  0
  1  2  1  0  0  0  0
  3  1  1  0  0  0  0
  3  4  1  0  0  0  0
  5  3  1  0  0  0  0
  5  6  1  0  0  0  0
  6  7  1  0  0  0  0
  8  6  1  0  0  0  0
  8  9  1  0  0  0  0
  8 10  1  0  0  0  0
 11  8  1  0  0  0  0
 11 12  1  0  0  0  0
 11 13  1  0  0  0  0
 13  5  1  0  0  0  0
 14 13  1  0  0  0  0
  1 14  1  0  0  0  0
 15 11  1  0  0  0  0
 15 16  1  0  0  0  0
 17 15  2  0  0  0  0
  6 17  1  0  0  0  0
 17 18  1  0  0  0  0
M  END
> <ChemID>
100009

> <CAS>
57-74-9

> <Original_SMILES>
ClC1(Cl)C2(Cl)C3CC(Cl)C(Cl)C3C1(Cl)C(Cl)=C2Cl

> <preferred_name>
Chlordane|cis-Chlordane|trans-Chlordane

> <dsstox_substance_id>
DTXSID7020267

> <dsstox_compound_id>
DTXCID0028117

> <qc_level>
DSSTox_High

> <Canonical_QSARr>
ClC1(Cl)C2(Cl)C3CC(Cl)C(Cl)C3C1(Cl)C(Cl)=C2Cl

> <InChI_Code_QSARr>
InChI=1S/C10H6Cl8/c11-3-1-2-4(5(3)12)9(16)7(14)6(13)8(2,15)10(9,17)18/h2-5H,1H2

> <InChI Key_QSARr>
BIWJNBZANLAXMG-UHFFFAOYSA-N

> <Salt_Solvent>


> <Salt_Solvent_ID>
0

> <MPID>
101646|101999|102000|102016

> <LogKmHL>
2.2575

> <Tr_1_Tst_0>
1

$$$$
100010
  Mrv171c012251910542D          

 12 12  0  0  0  0            999 V2000
    2.1693   -1.2482    0.0000 C   0  0  0  0  0  0  0  0  0  0  0  0
    2.8837   -0.8357    0.0000 Cl  0  0  0  0  0  0  0  0  0  0  0  0
    1.4548   -0.8357    0.0000 C   0  0  0  0  0  0  0  0  0  0  0  0
    1.4548   -0.0107    0.0000 Cl  0  0  0  0  0  0  0  0  0  0  0  0
    0.7403   -1.2482    0.0000 C   0  0  0  0  0  0  0  0  0  0  0  0
    0.0258   -0.8357    0.0000 Cl  0  0  0  0  0  0  0  0  0  0  0  0
    0.7403   -2.0732    0.0000 C   0  0  0  0  0  0  0  0  0  0  0  0
    0.0258   -2.4857    0.0000 Cl  0  0  0  0  0  0  0  0  0  0  0  0
    1.4548   -2.4857    0.0000 C   0  0  0  0  0  0  0  0  0  0  0  0
    1.4548   -3.3107    0.0000 Cl  0  0  0  0  0  0  0  0  0  0  0  0
    2.1693   -2.0732    0.0000 C   0  0  0  0  0  0  0  0  0  0  0  0
    2.8837   -2.4857    0.0000 Cl  0  0  0  0  0  0  0  0  0  0  0  0
  1  2  1  0  0  0  0
  3  1  1  0  0  0  0
  3  4  1  0  0  0  0
  5  3  1  0  0  0  0
  5  6  1  0  0  0  0
  7  5  1  0  0  0  0
  7  8  1  0  0  0  0
  9  7  1  0  0  0  0
  9 10  1  0  0  0  0
 11  9  1  0  0  0  0
  1 11  1  0  0  0  0
 11 12  1  0  0  0  0
M  END
> <ChemID>
100010

> <CAS>
58-89-9|319-84-6|319-85-7|319-86-8

> <Original_SMILES>
Cl[C@@H]1[C@@H](Cl)[C@H](Cl)[C@H](Cl)[C@@H](Cl)[C@@H]1Cl

> <preferred_name>
Lindane|alpha-1,2,3,4,5,6-Hexachlorocyclohexane|beta-Hexachlorocyclohexane|delta-Hexachlorocyclohexane

> <dsstox_substance_id>
DTXSID2020686|DTXSID2020684|DTXSID7020685|DTXSID5024134

> <dsstox_compound_id>
DTXCID40196532|DTXCID00196533|DTXCID20196535|DTXCID60196534

> <qc_level>
DSSTox_High

> <Canonical_QSARr>
ClC1C(Cl)C(Cl)C(Cl)C(Cl)C1Cl

> <InChI_Code_QSARr>
InChI=1S/C6H6Cl6/c7-1-2(8)4(10)6(12)5(11)3(1)9/h1-6H

> <InChI Key_QSARr>
JLYXXMFPNIAWKQ-UHFFFAOYSA-N

> <Salt_Solvent>


> <Salt_Solvent_ID>
0

> <MPID>
101647|101859|101860|101861

> <LogKmHL>
1.4924999999999997

> <Tr_1_Tst_0>
1

$$$$
100011
  Mrv171c012251910542D          

  9  9  0  0  0  0            999 V2000
    1.4296   -2.6583    0.0000 O   0  0  0  0  0  0  0  0  0  0  0  0
    1.4296   -1.8333    0.0000 C   0  0  0  0  0  0  0  0  0  0  0  0
    2.1441   -1.4208    0.0000 C   0  0  0  0  0  0  0  0  0  0  0  0
    2.1441   -0.5958    0.0000 C   0  0  0  0  0  0  0  0  0  0  0  0
    1.4296   -0.1833    0.0000 C   0  0  0  0  0  0  0  0  0  0  0  0
    1.4296    0.6417    0.0000 Cl  0  0  0  0  0  0  0  0  0  0  0  0
    0.7151   -0.5958    0.0000 C   0  0  0  0  0  0  0  0  0  0  0  0
    0.0007   -0.1833    0.0000 C   0  0  0  0  0  0  0  0  0  0  0  0
    0.7151   -1.4208    0.0000 C   0  0  0  0  0  0  0  0  0  0  0  0
  1  2  1  0  0  0  0
  3  2  1  0  0  0  0
  4  3  2  0  0  0  0
  5  4  1  0  0  0  0
  5  6  1  0  0  0  0
  7  5  2  0  0  0  0
  7  8  1  0  0  0  0
  9  7  1  0  0  0  0
  2  9  2  0  0  0  0
M  END
> <ChemID>
100011

> <CAS>
59-50-7

> <Original_SMILES>
Cc1cc(O)ccc1Cl

> <preferred_name>
4-Chloro-3-methylphenol

> <dsstox_substance_id>
DTXSID4021717

> <dsstox_compound_id>
DTXCID601717

> <qc_level>
DSSTox_Low

> <Canonical_QSARr>
CC1C=C(O)C=CC=1Cl

> <InChI_Code_QSARr>
InChI=1S/C7H7ClO/c1-5-4-6(9)2-3-7(5)8/h2-4,9H,1H3

> <InChI Key_QSARr>
CFKMVGJGLGKFKI-UHFFFAOYSA-N

> <Salt_Solvent>


> <Salt_Solvent_ID>
0

> <MPID>
101648

> <LogKmHL>
-1.28

> <Tr_1_Tst_0>
1

$$$$
100012
  Mrv171c012251910542D          

  5  4  0  0  0  0            999 V2000
    1.3473   -0.3899    0.0000 O   0  0  0  0  0  0  0  0  0  0  0  0
    2.1723   -0.3899    0.0000 C   0  0  0  0  0  0  0  0  0  0  0  0
    2.5848   -1.1044    0.0000 C   0  0  0  0  0  0  0  0  0  0  0  0
    0.9348    0.3245    0.0000 C   0  0  0  0  0  0  0  0  0  0  0  0
    0.1098    0.3245    0.0000 C   0  0  0  0  0  0  0  0  0  0  0  0
  1  2  1  0  0  0  0
  2  3  1  0  0  0  0
  1  4  1  0  0  0  0
  4  5  1  0  0  0  0
M  END
> <ChemID>
100012

> <CAS>
60-29-7

> <Original_SMILES>
CCOCC

> <preferred_name>
Diethyl ether

> <dsstox_substance_id>
DTXSID3021720

> <dsstox_compound_id>
DTXCID101720

> <qc_level>
DSSTox_Low

> <Canonical_QSARr>
CCOCC

> <InChI_Code_QSARr>
InChI=1S/C4H10O/c1-3-5-4-2/h3-4H2,1-2H3

> <InChI Key_QSARr>
RTZKZFJDLAIYFH-UHFFFAOYSA-N

> <Salt_Solvent>


> <Salt_Solvent_ID>
0

> <MPID>
101649

> <LogKmHL>
-0.7

> <Tr_1_Tst_0>
0

$$$$
100013
  Mrv171c012251910542D          

 12 11  0  0  0  0            999 V2000
    0.9482   -3.3580    0.0000 S   0  0  0  0  0  0  0  0  0  0  0  0
    1.6627   -2.9455    0.0000 P   0  0  0  0  0  0  0  0  0  0  0  0
    2.0752   -3.6600    0.0000 O   0  0  0  0  0  0  0  0  0  0  0  0
    1.6627   -4.3744    0.0000 C   0  0  0  0  0  0  0  0  0  0  0  0
    2.3771   -2.5330    0.0000 O   0  0  0  0  0  0  0  0  0  0  0  0
    3.0916   -2.9455    0.0000 C   0  0  0  0  0  0  0  0  0  0  0  0
    1.2502   -2.2310    0.0000 S   0  0  0  0  0  0  0  0  0  0  0  0
    1.6627   -1.5165    0.0000 C   0  0  0  0  0  0  0  0  0  0  0  0
    1.2502   -0.8021    0.0000 C   0  0  0  0  0  0  0  0  0  0  0  0
    1.6627   -0.0876    0.0000 N   0  0  0  0  0  0  0  0  0  0  0  0
    1.2502    0.6269    0.0000 C   0  0  0  0  0  0  0  0  0  0  0  0
    0.4252   -0.8021    0.0000 O   0  0  0  0  0  0  0  0  0  0  0  0
  1  2  2  0  0  0  0
  2  3  1  0  0  0  0
  3  4  1  0  0  0  0
  2  5  1  0  0  0  0
  5  6  1  0  0  0  0
  2  7  1  0  0  0  0
  7  8  1  0  0  0  0
  8  9  1  0  0  0  0
  9 10  1  0  0  0  0
 10 11  1  0  0  0  0
  9 12  2  0  0  0  0
M  END
> <ChemID>
100013

> <CAS>
60-51-5

> <Original_SMILES>
CNC(=O)CSP(=S)(OC)OC

> <preferred_name>
Dimethoate

> <dsstox_substance_id>
DTXSID7020479

> <dsstox_compound_id>
DTXCID50479

> <qc_level>
DSSTox_Low

> <Canonical_QSARr>
CNC(=O)CSP(=S)(OC)OC

> <InChI_Code_QSARr>
InChI=1S/C5H12NO3PS2/c1-6-5(7)4-12-10(11,8-2)9-3/h4H2,1-3H3,(H,6,7)

> <InChI Key_QSARr>
MCWXGJITAZMZEV-UHFFFAOYSA-N

> <Salt_Solvent>


> <Salt_Solvent_ID>
0

> <MPID>
101650

> <LogKmHL>
-1.01

> <Tr_1_Tst_0>
1

$$$$
100014
  Mrv171c012251910542D          

 19 23  0  0  0  0            999 V2000
    0.8791   -2.2674    0.0000 C   0  0  0  0  0  0  0  0  0  0  0  0
    1.5936   -2.6799    0.0000 C   0  0  0  0  0  0  0  0  0  0  0  0
    1.7998   -1.8549    0.0000 C   0  0  0  0  0  0  0  0  0  0  0  0
    1.5936   -1.0299    0.0000 C   0  0  0  0  0  0  0  0  0  0  0  0
    2.1954   -1.4726    0.0000 C   0  0  0  0  0  0  0  0  0  0  0  0
    3.0225   -1.0299    0.0000 C   0  0  0  0  0  0  0  0  0  0  0  0
    3.2138   -0.1477    0.0000 Cl  0  0  0  0  0  0  0  0  0  0  0  0
    3.2288   -1.8549    0.0000 C   0  0  0  0  0  0  0  0  0  0  0  0
    2.5237   -0.9691    0.0000 Cl  0  0  0  0  0  0  0  0  0  0  0  0
    2.5404   -2.7583    0.0000 Cl  0  0  0  0  0  0  0  0  0  0  0  0
    3.0225   -2.6799    0.0000 C   0  0  0  0  0  0  0  0  0  0  0  0
    3.2450   -3.5556    0.0000 Cl  0  0  0  0  0  0  0  0  0  0  0  0
    3.7370   -2.2674    0.0000 C   0  0  0  0  0  0  0  0  0  0  0  0
    4.4962   -2.6868    0.0000 Cl  0  0  0  0  0  0  0  0  0  0  0  0
    3.7370   -1.4424    0.0000 C   0  0  0  0  0  0  0  0  0  0  0  0
    4.4973   -1.0254    0.0000 Cl  0  0  0  0  0  0  0  0  0  0  0  0
    2.3081   -2.2674    0.0000 C   0  0  0  0  0  0  0  0  0  0  0  0
    0.8791   -1.4424    0.0000 C   0  0  0  0  0  0  0  0  0  0  0  0
    0.1646   -1.8549    0.0000 O   0  0  0  0  0  0  0  0  0  0  0  0
  2  1  1  0  0  0  0
  2  3  1  0  0  0  0
  3  4  1  0  0  0  0
  4  5  1  0  0  0  0
  6  5  1  0  0  0  0
  6  7  1  0  0  0  0
  6  8  1  0  0  0  0
  8  9  1  0  0  0  0
  8 10  1  0  0  0  0
  8 11  1  0  0  0  0
 11 12  1  0  0  0  0
 11 13  1  0  0  0  0
 13 14  1  0  0  0  0
 13 15  2  0  0  0  0
 15  6  1  0  0  0  0
 15 16  1  0  0  0  0
 17 11  1  0  0  0  0
  5 17  1  0  0  0  0
 17  2  1  0  0  0  0
 18  4  1  0  0  0  0
 18  1  1  0  0  0  0
 19 18  1  0  0  0  0
  1 19  1  0  0  0  0
M  END
> <ChemID>
100014

> <CAS>
60-57-1|72-20-8

> <Original_SMILES>
ClC1(Cl)[C@@]2(Cl)[C@@H]3[C@@H]4C[C@@H]([C@H]5O[C@H]54)[C@@H]3[C@]1(Cl)C(Cl)=C2Cl

> <preferred_name>
Dieldrin|Endrin

> <dsstox_substance_id>
DTXSID9020453|DTXSID6020561

> <dsstox_compound_id>
DTXCID30196607|DTXCID90196608

> <qc_level>
DSSTox_High

> <Canonical_QSARr>
ClC1(Cl)C2(Cl)C3C4CC(C5OC54)C3C1(Cl)C(Cl)=C2Cl

> <InChI_Code_QSARr>
InChI=1S/C12H8Cl6O/c13-8-9(14)11(16)5-3-1-2(6-7(3)19-6)4(5)10(8,15)12(11,17)18/h2-7H,1H2

> <InChI Key_QSARr>
DFBKLUNHFCTMDC-UHFFFAOYSA-N

> <Salt_Solvent>


> <Salt_Solvent_ID>
0

> <MPID>
101651|101658

> <LogKmHL>
1.645

> <Tr_1_Tst_0>
1

$$$$
100015
  Mrv171c012251910542D          

 13 13  0  0  0  0            999 V2000
    2.4199   -3.6189    0.0000 C   0  0  0  0  0  0  0  0  0  0  0  0
    2.4199   -2.7939    0.0000 C   0  0  0  0  0  0  0  0  0  0  0  0
    3.1344   -2.3814    0.0000 N   0  0  0  0  0  0  0  0  0  0  0  0
    3.1344   -1.5564    0.0000 C   0  0  0  0  0  0  0  0  0  0  0  0
    3.8488   -1.1439    0.0000 C   0  0  0  0  0  0  0  0  0  0  0  0
    3.8488   -0.3189    0.0000 C   0  0  0  0  0  0  0  0  0  0  0  0
    3.1344    0.0936    0.0000 C   0  0  0  0  0  0  0  0  0  0  0  0
    3.1344    0.9186    0.0000 O   0  0  0  0  0  0  0  0  0  0  0  0
    3.8488    1.3311    0.0000 C   0  0  0  0  0  0  0  0  0  0  0  0
    3.8488    2.1561    0.0000 C   0  0  0  0  0  0  0  0  0  0  0  0
    2.4199   -0.3189    0.0000 C   0  0  0  0  0  0  0  0  0  0  0  0
    2.4199   -1.1439    0.0000 C   0  0  0  0  0  0  0  0  0  0  0  0
    1.7054   -2.3814    0.0000 O   0  0  0  0  0  0  0  0  0  0  0  0
  1  2  1  0  0  0  0
  2  3  1  0  0  0  0
  3  4  1  0  0  0  0
  5  4  1  0  0  0  0
  6  5  2  0  0  0  0
  7  6  1  0  0  0  0
  7  8  1  0  0  0  0
  8  9  1  0  0  0  0
  9 10  1  0  0  0  0
 11  7  2  0  0  0  0
 12 11  1  0  0  0  0
  4 12  2  0  0  0  0
  2 13  2  0  0  0  0
M  END
> <ChemID>
100015

> <CAS>
62-44-2

> <Original_SMILES>
CC(=O)Nc1ccc(cc1)OCC

> <preferred_name>
Phenacetin

> <dsstox_substance_id>
DTXSID1021116

> <dsstox_compound_id>
DTXCID001116

> <qc_level>
DSSTox_Low

> <Canonical_QSARr>
CC(=O)NC1C=CC(=CC=1)OCC

> <InChI_Code_QSARr>
InChI=1S/C10H13NO2/c1-3-13-10-6-4-9(5-7-10)11-8(2)12/h4-7H,3H2,1-2H3,(H,11,12)

> <InChI Key_QSARr>
CPJSUEIXXCENMM-UHFFFAOYSA-N

> <Salt_Solvent>


> <Salt_Solvent_ID>
0

> <MPID>
101652

> <LogKmHL>
-0.55

> <Tr_1_Tst_0>
1

$$$$
100016
  Mrv171c012251910542D          

  7  7  0  0  0  0            999 V2000
    1.4153    0.7000    0.0000 N   0  0  0  0  0  0  0  0  0  0  0  0
    1.4153   -0.1250    0.0000 C   0  0  0  0  0  0  0  0  0  0  0  0
    0.7009   -0.5375    0.0000 C   0  0  0  0  0  0  0  0  0  0  0  0
    0.7009   -1.3625    0.0000 C   0  0  0  0  0  0  0  0  0  0  0  0
    1.4153   -1.7750    0.0000 C   0  0  0  0  0  0  0  0  0  0  0  0
    2.1298   -1.3625    0.0000 C   0  0  0  0  0  0  0  0  0  0  0  0
    2.1298   -0.5375    0.0000 C   0  0  0  0  0  0  0  0  0  0  0  0
  1  2  1  0  0  0  0
  3  2  1  0  0  0  0
  4  3  2  0  0  0  0
  5  4  1  0  0  0  0
  6  5  2  0  0  0  0
  7  6  1  0  0  0  0
  2  7  2  0  0  0  0
M  END
> <ChemID>
100016

> <CAS>
62-53-3

> <Original_SMILES>
Nc1ccccc1

> <preferred_name>
Aniline

> <dsstox_substance_id>
DTXSID8020090

> <dsstox_compound_id>
DTXCID9090

> <qc_level>
DSSTox_High

> <Canonical_QSARr>
NC1C=CC=CC=1

> <InChI_Code_QSARr>
InChI=1S/C6H7N/c7-6-4-2-1-3-5-6/h1-5H,7H2

> <InChI Key_QSARr>
PAYRUJLWNCNPSJ-UHFFFAOYSA-N

> <Salt_Solvent>


> <Salt_Solvent_ID>
0

> <MPID>
101653

> <LogKmHL>
-0.78

> <Tr_1_Tst_0>
0

$$$$
100017
  Mrv171c012251910542D          

 15 16  0  0  0  0            999 V2000
    0.7124   -2.3379    0.0000 O   0  0  0  0  0  0  0  0  0  0  0  0
    1.4268   -2.7504    0.0000 C   0  0  0  0  0  0  0  0  0  0  0  0
    1.4268   -3.5754    0.0000 N   0  0  0  0  0  0  0  0  0  0  0  0
    0.7124   -3.9879    0.0000 C   0  0  0  0  0  0  0  0  0  0  0  0
    2.1413   -2.3379    0.0000 O   0  0  0  0  0  0  0  0  0  0  0  0
    2.1413   -1.5129    0.0000 C   0  0  0  0  0  0  0  0  0  0  0  0
    1.4268   -1.1004    0.0000 C   0  0  0  0  0  0  0  0  0  0  0  0
    1.4268   -0.2754    0.0000 C   0  0  0  0  0  0  0  0  0  0  0  0
    2.1413    0.1371    0.0000 C   0  0  0  0  0  0  0  0  0  0  0  0
    2.8558   -0.2754    0.0000 C   0  0  0  0  0  0  0  0  0  0  0  0
    3.5703    0.1371    0.0000 C   0  0  0  0  0  0  0  0  0  0  0  0
    4.2847   -0.2754    0.0000 C   0  0  0  0  0  0  0  0  0  0  0  0
    4.2847   -1.1004    0.0000 C   0  0  0  0  0  0  0  0  0  0  0  0
    3.5703   -1.5129    0.0000 C   0  0  0  0  0  0  0  0  0  0  0  0
    2.8558   -1.1004    0.0000 C   0  0  0  0  0  0  0  0  0  0  0  0
  1  2  2  0  0  0  0
  2  3  1  0  0  0  0
  3  4  1  0  0  0  0
  2  5  1  0  0  0  0
  5  6  1  0  0  0  0
  7  6  1  0  0  0  0
  8  7  2  0  0  0  0
  9  8  1  0  0  0  0
 10  9  2  0  0  0  0
 10 11  1  0  0  0  0
 11 12  2  0  0  0  0
 12 13  1  0  0  0  0
 13 14  2  0  0  0  0
 14 15  1  0  0  0  0
  6 15  2  0  0  0  0
 15 10  1  0  0  0  0
M  END
> <ChemID>
100017

> <CAS>
63-25-2

> <Original_SMILES>
CNC(=O)Oc1cccc2ccccc21

> <preferred_name>
Carbaryl

> <dsstox_substance_id>
DTXSID9020247

> <dsstox_compound_id>
DTXCID10247

> <qc_level>
DSSTox_Low

> <Canonical_QSARr>
CNC(=O)OC1C=CC=C2C=CC=CC2=1

> <InChI_Code_QSARr>
InChI=1S/C12H11NO2/c1-13-12(14)15-11-8-4-6-9-5-2-3-7-10(9)11/h2-8H,1H3,(H,13,14)

> <InChI Key_QSARr>
CVXBEEMKQHEXEN-UHFFFAOYSA-N

> <Salt_Solvent>


> <Salt_Solvent_ID>
0

> <MPID>
101654

> <LogKmHL>
-1.18

> <Tr_1_Tst_0>
1

$$$$
100018
  Mrv171c012251910542D          

  4  3  0  0  0  0            999 V2000
    1.2371    0.0002    0.0000 Cl  0  0  0  0  0  0  0  0  0  0  0  0
    0.8246   -0.7143    0.0000 C   0  0  0  0  0  0  0  0  0  0  0  0
    1.2371   -1.4287    0.0000 Cl  0  0  0  0  0  0  0  0  0  0  0  0
   -0.0004   -0.7143    0.0000 Cl  0  0  0  0  0  0  0  0  0  0  0  0
  1  2  1  0  0  0  0
  2  3  1  0  0  0  0
  2  4  1  0  0  0  0
M  END
> <ChemID>
100018

> <CAS>
67-66-3

> <Original_SMILES>
ClC(Cl)Cl

> <preferred_name>
Chloroform

> <dsstox_substance_id>
DTXSID1020306

> <dsstox_compound_id>
DTXCID10306

> <qc_level>
DSSTox_Low

> <Canonical_QSARr>
ClC(Cl)Cl

> <InChI_Code_QSARr>
InChI=1S/CHCl3/c2-1(3)4/h1H

> <InChI Key_QSARr>
HEDRZPFGACZZDS-UHFFFAOYSA-N

> <Salt_Solvent>


> <Salt_Solvent_ID>
0

> <MPID>
101655

> <LogKmHL>
-0.76

> <Tr_1_Tst_0>
1

$$$$
100019
  Mrv171c012251910542D          

  8  7  0  0  0  0            999 V2000
    0.8232   -2.4725    0.0000 Cl  0  0  0  0  0  0  0  0  0  0  0  0
    0.8232   -1.6475    0.0000 C   0  0  0  0  0  0  0  0  0  0  0  0
    1.6482   -1.6475    0.0000 Cl  0  0  0  0  0  0  0  0  0  0  0  0
   -0.0018   -1.6475    0.0000 Cl  0  0  0  0  0  0  0  0  0  0  0  0
    0.8232   -0.8225    0.0000 C   0  0  0  0  0  0  0  0  0  0  0  0
    0.8232    0.0025    0.0000 Cl  0  0  0  0  0  0  0  0  0  0  0  0
    1.6482   -0.8225    0.0000 Cl  0  0  0  0  0  0  0  0  0  0  0  0
   -0.0018   -0.8225    0.0000 Cl  0  0  0  0  0  0  0  0  0  0  0  0
  1  2  1  0  0  0  0
  2  3  1  0  0  0  0
  2  4  1  0  0  0  0
  2  5  1  0  0  0  0
  5  6  1  0  0  0  0
  5  7  1  0  0  0  0
  5  8  1  0  0  0  0
M  END
> <ChemID>
100019

> <CAS>
67-72-1

> <Original_SMILES>
ClC(Cl)(Cl)C(Cl)(Cl)Cl

> <preferred_name>
Hexachloroethane

> <dsstox_substance_id>
DTXSID7020689

> <dsstox_compound_id>
DTXCID90689

> <qc_level>
DSSTox_Low

> <Canonical_QSARr>
ClC(Cl)(Cl)C(Cl)(Cl)Cl

> <InChI_Code_QSARr>
InChI=1S/C2Cl6/c3-1(4,5)2(6,7)8

> <InChI Key_QSARr>
VHHHONWQHHHLTI-UHFFFAOYSA-N

> <Salt_Solvent>


> <Salt_Solvent_ID>
0

> <MPID>
101656

> <LogKmHL>
0.76

> <Tr_1_Tst_0>
1

$$$$
100020
  Mrv171c012251910542D          

  5  4  0  0  0  0            999 V2000
    0.8250   -1.6500    0.0000 C   0  0  0  0  0  0  0  0  0  0  0  0
    0.8250   -0.8250    0.0000 C   0  0  0  0  0  0  0  0  0  0  0  0
    0.8250    0.0000    0.0000 Cl  0  0  0  0  0  0  0  0  0  0  0  0
    1.6500   -0.8250    0.0000 Cl  0  0  0  0  0  0  0  0  0  0  0  0
    0.0000   -0.8250    0.0000 Cl  0  0  0  0  0  0  0  0  0  0  0  0
  1  2  1  0  0  0  0
  2  3  1  0  0  0  0
  2  4  1  0  0  0  0
  2  5  1  0  0  0  0
M  END
> <ChemID>
100020

> <CAS>
71-55-6

> <Original_SMILES>
CC(Cl)(Cl)Cl

> <preferred_name>
1,1,1-Trichloroethane

> <dsstox_substance_id>
DTXSID0021381

> <dsstox_compound_id>
DTXCID501381

> <qc_level>
DSSTox_Low

> <Canonical_QSARr>
CC(Cl)(Cl)Cl

> <InChI_Code_QSARr>
InChI=1S/C2H3Cl3/c1-2(3,4)5/h1H3

> <InChI Key_QSARr>
UOCLXMDMGBRAIB-UHFFFAOYSA-N

> <Salt_Solvent>


> <Salt_Solvent_ID>
0

> <MPID>
101657

> <LogKmHL>
-1.39

> <Tr_1_Tst_0>
0

$$$$
100022
  Mrv171c012251910542D          

 18 19  0  0  0  0            999 V2000
    4.7646   -2.0618    0.0000 Cl  0  0  0  0  0  0  0  0  0  0  0  0
    4.0501   -2.4743    0.0000 C   0  0  0  0  0  0  0  0  0  0  0  0
    4.0501   -3.2993    0.0000 Cl  0  0  0  0  0  0  0  0  0  0  0  0
    3.3357   -2.0618    0.0000 C   0  0  0  0  0  0  0  0  0  0  0  0
    3.3357   -1.2368    0.0000 C   0  0  0  0  0  0  0  0  0  0  0  0
    4.0501   -0.8243    0.0000 C   0  0  0  0  0  0  0  0  0  0  0  0
    4.0501    0.0007    0.0000 C   0  0  0  0  0  0  0  0  0  0  0  0
    3.3357    0.4132    0.0000 C   0  0  0  0  0  0  0  0  0  0  0  0
    3.3357    1.2382    0.0000 Cl  0  0  0  0  0  0  0  0  0  0  0  0
    2.6212    0.0007    0.0000 C   0  0  0  0  0  0  0  0  0  0  0  0
    2.6212   -0.8243    0.0000 C   0  0  0  0  0  0  0  0  0  0  0  0
    2.6212   -2.4743    0.0000 C   0  0  0  0  0  0  0  0  0  0  0  0
    1.9067   -2.0618    0.0000 C   0  0  0  0  0  0  0  0  0  0  0  0
    1.1922   -2.4743    0.0000 C   0  0  0  0  0  0  0  0  0  0  0  0
    1.1922   -3.2993    0.0000 C   0  0  0  0  0  0  0  0  0  0  0  0
    0.4778   -3.7118    0.0000 Cl  0  0  0  0  0  0  0  0  0  0  0  0
    1.9067   -3.7118    0.0000 C   0  0  0  0  0  0  0  0  0  0  0  0
    2.6212   -3.2993    0.0000 C   0  0  0  0  0  0  0  0  0  0  0  0
  1  2  1  0  0  0  0
  2  3  1  0  0  0  0
  2  4  1  0  0  0  0
  4  5  1  0  0  0  0
  6  5  1  0  0  0  0
  7  6  2  0  0  0  0
  8  7  1  0  0  0  0
  8  9  1  0  0  0  0
 10  8  2  0  0  0  0
 11 10  1  0  0  0  0
  5 11  2  0  0  0  0
  4 12  1  0  0  0  0
 13 12  1  0  0  0  0
 14 13  2  0  0  0  0
 15 14  1  0  0  0  0
 15 16  1  0  0  0  0
 17 15  2  0  0  0  0
 18 17  1  0  0  0  0
 12 18  2  0  0  0  0
M  END
> <ChemID>
100022

> <CAS>
72-54-8

> <Original_SMILES>
ClC(Cl)C(c1ccc(Cl)cc1)c1ccc(Cl)cc1

> <preferred_name>
p,p'-DDD

> <dsstox_substance_id>
DTXSID4020373

> <dsstox_compound_id>
DTXCID60373

> <qc_level>
DSSTox_Low

> <Canonical_QSARr>
ClC(Cl)C(C1=CC=C(Cl)C=C1)C1=CC=C(Cl)C=C1

> <InChI_Code_QSARr>
InChI=1S/C14H10Cl4/c15-11-5-1-9(2-6-11)13(14(17)18)10-3-7-12(16)8-4-10/h1-8,13-14H

> <InChI Key_QSARr>
AHJKRLASYNVKDZ-UHFFFAOYSA-N

> <Salt_Solvent>


> <Salt_Solvent_ID>
0

> <MPID>
101659

> <LogKmHL>
2.44

> <Tr_1_Tst_0>
1

$$$$
100023
  Mrv171c012251910542D          

 18 19  0  0  0  0            999 V2000
    4.7646   -2.0618    0.0000 Cl  0  0  0  0  0  0  0  0  0  0  0  0
    4.0501   -2.4743    0.0000 C   0  0  0  0  0  0  0  0  0  0  0  0
    4.0501   -3.2993    0.0000 Cl  0  0  0  0  0  0  0  0  0  0  0  0
    3.3357   -2.0618    0.0000 C   0  0  0  0  0  0  0  0  0  0  0  0
    3.3357   -1.2368    0.0000 C   0  0  0  0  0  0  0  0  0  0  0  0
    4.0501   -0.8243    0.0000 C   0  0  0  0  0  0  0  0  0  0  0  0
    4.0501    0.0007    0.0000 C   0  0  0  0  0  0  0  0  0  0  0  0
    3.3357    0.4132    0.0000 C   0  0  0  0  0  0  0  0  0  0  0  0
    3.3357    1.2382    0.0000 Cl  0  0  0  0  0  0  0  0  0  0  0  0
    2.6212    0.0007    0.0000 C   0  0  0  0  0  0  0  0  0  0  0  0
    2.6212   -0.8243    0.0000 C   0  0  0  0  0  0  0  0  0  0  0  0
    2.6212   -2.4743    0.0000 C   0  0  0  0  0  0  0  0  0  0  0  0
    1.9067   -2.0618    0.0000 C   0  0  0  0  0  0  0  0  0  0  0  0
    1.1922   -2.4743    0.0000 C   0  0  0  0  0  0  0  0  0  0  0  0
    1.1922   -3.2993    0.0000 C   0  0  0  0  0  0  0  0  0  0  0  0
    0.4778   -3.7118    0.0000 Cl  0  0  0  0  0  0  0  0  0  0  0  0
    1.9067   -3.7118    0.0000 C   0  0  0  0  0  0  0  0  0  0  0  0
    2.6212   -3.2993    0.0000 C   0  0  0  0  0  0  0  0  0  0  0  0
  1  2  1  0  0  0  0
  2  3  1  0  0  0  0
  2  4  2  0  0  0  0
  4  5  1  0  0  0  0
  6  5  1  0  0  0  0
  7  6  2  0  0  0  0
  8  7  1  0  0  0  0
  8  9  1  0  0  0  0
 10  8  2  0  0  0  0
 11 10  1  0  0  0  0
  5 11  2  0  0  0  0
  4 12  1  0  0  0  0
 13 12  1  0  0  0  0
 14 13  2  0  0  0  0
 15 14  1  0  0  0  0
 15 16  1  0  0  0  0
 17 15  2  0  0  0  0
 18 17  1  0  0  0  0
 12 18  2  0  0  0  0
M  END
> <ChemID>
100023

> <CAS>
72-55-9

> <Original_SMILES>
ClC(Cl)=C(c1ccc(Cl)cc1)c1ccc(Cl)cc1

> <preferred_name>
p,p'-DDE

> <dsstox_substance_id>
DTXSID9020374

> <dsstox_compound_id>
DTXCID90374

> <qc_level>
DSSTox_High

> <Canonical_QSARr>
ClC(Cl)=C(C1C=CC(Cl)=CC=1)C1C=CC(Cl)=CC=1

> <InChI_Code_QSARr>
InChI=1S/C14H8Cl4/c15-11-5-1-9(2-6-11)13(14(17)18)10-3-7-12(16)8-4-10/h1-8H

> <InChI Key_QSARr>
UCNVFOCBFJOQAL-UHFFFAOYSA-N

> <Salt_Solvent>


> <Salt_Solvent_ID>
0

> <MPID>
101660

> <LogKmHL>
1.71

> <Tr_1_Tst_0>
1

$$$$
100024
  Mrv171c012251910542D          

  3  2  0  0  0  0            999 V2000
   -0.0002   -0.1377    0.0000 Cl  0  0  0  0  0  0  0  0  0  0  0  0
    0.7143   -0.5502    0.0000 C   0  0  0  0  0  0  0  0  0  0  0  0
    1.4287   -0.1377    0.0000 Br  0  0  0  0  0  0  0  0  0  0  0  0
  1  2  1  0  0  0  0
  2  3  1  0  0  0  0
M  END
> <ChemID>
100024

> <CAS>
74-97-5

> <Original_SMILES>
ClCBr

> <preferred_name>
Bromochloromethane

> <dsstox_substance_id>
DTXSID4021503

> <dsstox_compound_id>
DTXCID301503

> <qc_level>
DSSTox_Low

> <Canonical_QSARr>
ClCBr

> <InChI_Code_QSARr>
InChI=1S/CH2BrCl/c2-1-3/h1H2

> <InChI Key_QSARr>
JPOXNPPZZKNXOV-UHFFFAOYSA-N

> <Salt_Solvent>


> <Salt_Solvent_ID>
0

> <MPID>
101661

> <LogKmHL>
-0.74

> <Tr_1_Tst_0>
1

$$$$
100025
  Mrv171c012251910542D          

  3  2  0  0  0  0            999 V2000
   -0.0002   -0.1377    0.0000 Cl  0  0  0  0  0  0  0  0  0  0  0  0
    0.7143   -0.5502    0.0000 C   0  0  0  0  0  0  0  0  0  0  0  0
    1.4287   -0.1377    0.0000 Cl  0  0  0  0  0  0  0  0  0  0  0  0
  1  2  1  0  0  0  0
  2  3  1  0  0  0  0
M  END
> <ChemID>
100025

> <CAS>
75-09-2

> <Original_SMILES>
ClCCl

> <preferred_name>
Dichloromethane

> <dsstox_substance_id>
DTXSID0020868

> <dsstox_compound_id>
DTXCID40868

> <qc_level>
DSSTox_Low

> <Canonical_QSARr>
ClCCl

> <InChI_Code_QSARr>
InChI=1S/CH2Cl2/c2-1-3/h1H2

> <InChI Key_QSARr>
YMWUJEATGCHHMB-UHFFFAOYSA-N

> <Salt_Solvent>


> <Salt_Solvent_ID>
0

> <MPID>
101662

> <LogKmHL>
-0.51

> <Tr_1_Tst_0>
0

$$$$
100026
  Mrv171c012251910542D          

  4  3  0  0  0  0            999 V2000
    0.8246   -0.7143    0.0000 C   0  0  0  0  0  0  0  0  0  0  0  0
    1.2371    0.0002    0.0000 Br  0  0  0  0  0  0  0  0  0  0  0  0
    1.2371   -1.4287    0.0000 Br  0  0  0  0  0  0  0  0  0  0  0  0
   -0.0004   -0.7143    0.0000 Br  0  0  0  0  0  0  0  0  0  0  0  0
  1  2  1  0  0  0  0
  1  3  1  0  0  0  0
  1  4  1  0  0  0  0
M  END
> <ChemID>
100026

> <CAS>
75-25-2

> <Original_SMILES>
BrC(Br)Br

> <preferred_name>
Bromoform

> <dsstox_substance_id>
DTXSID1021374

> <dsstox_compound_id>
DTXCID401374

> <qc_level>
DSSTox_Low

> <Canonical_QSARr>
BrC(Br)Br

> <InChI_Code_QSARr>
InChI=1S/CHBr3/c2-1(3)4/h1H

> <InChI Key_QSARr>
DIKBFYAXUHHXCS-UHFFFAOYSA-N

> <Salt_Solvent>


> <Salt_Solvent_ID>
0

> <MPID>
101663

> <LogKmHL>
-0.7

> <Tr_1_Tst_0>
1

$$$$
100027
  Mrv171c012251910542D          

  4  3  0  0  0  0            999 V2000
    1.2371    0.0002    0.0000 C   0  0  0  0  0  0  0  0  0  0  0  0
    0.8246   -0.7143    0.0000 C   0  0  0  0  0  0  0  0  0  0  0  0
    1.2371   -1.4287    0.0000 Cl  0  0  0  0  0  0  0  0  0  0  0  0
   -0.0004   -0.7143    0.0000 Cl  0  0  0  0  0  0  0  0  0  0  0  0
  1  2  2  0  0  0  0
  2  3  1  0  0  0  0
  2  4  1  0  0  0  0
M  END
> <ChemID>
100027

> <CAS>
75-35-4

> <Original_SMILES>
C=C(Cl)Cl

> <preferred_name>
1,1-Dichloroethylene

> <dsstox_substance_id>
DTXSID8021438

> <dsstox_compound_id>
DTXCID001438

> <qc_level>
DSSTox_Low

> <Canonical_QSARr>
C=C(Cl)Cl

> <InChI_Code_QSARr>
InChI=1S/C2H2Cl2/c1-2(3)4/h1H2

> <InChI Key_QSARr>
LGXVIGDEPROXKC-UHFFFAOYSA-N

> <Salt_Solvent>


> <Salt_Solvent_ID>
0

> <MPID>
101664

> <LogKmHL>
-0.72

> <Tr_1_Tst_0>
1

$$$$
100028
  Mrv171c012251910542D          

  5  4  0  0  0  0            999 V2000
    0.8250   -0.8250    0.0000 C   0  0  0  0  0  0  0  0  0  0  0  0
    0.8250   -1.6500    0.0000 O   0  0  0  0  0  0  0  0  0  0  0  0
    0.8250    0.0000    0.0000 C   0  0  0  0  0  0  0  0  0  0  0  0
    1.6500   -0.8250    0.0000 C   0  0  0  0  0  0  0  0  0  0  0  0
    0.0000   -0.8250    0.0000 C   0  0  0  0  0  0  0  0  0  0  0  0
  1  2  1  0  0  0  0
  1  3  1  0  0  0  0
  1  4  1  0  0  0  0
  1  5  1  0  0  0  0
M  END
> <ChemID>
100028

> <CAS>
75-65-0

> <Original_SMILES>
CC(C)(C)O

> <preferred_name>
tert-Butyl alcohol

> <dsstox_substance_id>
DTXSID8020204

> <dsstox_compound_id>
DTXCID40204

> <qc_level>
DSSTox_Low

> <Canonical_QSARr>
CC(C)(C)O

> <InChI_Code_QSARr>
InChI=1S/C4H10O/c1-4(2,3)5/h5H,1-3H3

> <InChI Key_QSARr>
DKGAVHZHDRPRBM-UHFFFAOYSA-N

> <Salt_Solvent>


> <Salt_Solvent_ID>
0

> <MPID>
101665

> <LogKmHL>
-1.13

> <Tr_1_Tst_0>
1

$$$$
100029
  Mrv171c012251910542D          

 17 19  0  0  0  0            999 V2000
    1.4056   -1.2261    0.0000 C   0  0  0  0  0  0  0  0  0  0  0  0
    1.3880   -0.3679    0.0000 Cl  0  0  0  0  0  0  0  0  0  0  0  0
    2.0376   -1.5561    0.0000 C   0  0  0  0  0  0  0  0  0  0  0  0
    2.9047   -1.3837    0.0000 C   0  0  0  0  0  0  0  0  0  0  0  0
    3.1554   -0.5320    0.0000 Cl  0  0  0  0  0  0  0  0  0  0  0  0
    3.3896   -2.0511    0.0000 C   0  0  0  0  0  0  0  0  0  0  0  0
    2.9047   -2.7186    0.0000 C   0  0  0  0  0  0  0  0  0  0  0  0
    2.0376   -2.5461    0.0000 C   0  0  0  0  0  0  0  0  0  0  0  0
    1.4056   -2.8761    0.0000 C   0  0  0  0  0  0  0  0  0  0  0  0
    0.6911   -2.4636    0.0000 C   0  0  0  0  0  0  0  0  0  0  0  0
   -0.0477   -2.8895    0.0000 Cl  0  0  0  0  0  0  0  0  0  0  0  0
    0.6911   -1.6386    0.0000 C   0  0  0  0  0  0  0  0  0  0  0  0
   -0.0476   -1.2129    0.0000 Cl  0  0  0  0  0  0  0  0  0  0  0  0
    1.3926   -3.7347    0.0000 Cl  0  0  0  0  0  0  0  0  0  0  0  0
    1.6118   -2.0511    0.0000 C   0  0  0  0  0  0  0  0  0  0  0  0
    2.5556   -1.7741    0.0000 Cl  0  0  0  0  0  0  0  0  0  0  0  0
    2.5548   -2.3315    0.0000 Cl  0  0  0  0  0  0  0  0  0  0  0  0
  1  2  1  0  0  0  0
  3  1  1  0  0  0  0
  3  4  1  0  0  0  0
  4  5  1  0  0  0  0
  4  6  1  0  0  0  0
  6  7  2  0  0  0  0
  7  8  1  0  0  0  0
  8  3  1  0  0  0  0
  9  8  1  0  0  0  0
  9 10  1  0  0  0  0
 10 11  1  0  0  0  0
 10 12  2  0  0  0  0
 12  1  1  0  0  0  0
 12 13  1  0  0  0  0
  9 14  1  0  0  0  0
 15  9  1  0  0  0  0
  1 15  1  0  0  0  0
 15 16  1  0  0  0  0
 15 17  1  0  0  0  0
M  END
> <ChemID>
100029

> <CAS>
76-44-8

> <Original_SMILES>
ClC1(Cl)C2(Cl)C3C=CC(Cl)C3C1(Cl)C(Cl)=C2Cl

> <preferred_name>
Heptachlor

> <dsstox_substance_id>
DTXSID3020679

> <dsstox_compound_id>
DTXCID70679

> <qc_level>
DSSTox_Low

> <Canonical_QSARr>
ClC1(Cl)C2(Cl)C3C=CC(Cl)C3C1(Cl)C(Cl)=C2Cl

> <InChI_Code_QSARr>
InChI=1S/C10H5Cl7/c11-4-2-1-3-5(4)9(15)7(13)6(12)8(3,14)10(9,16)17/h1-5H

> <InChI Key_QSARr>
FRCCEHPWNOQAEU-UHFFFAOYSA-N

> <Salt_Solvent>


> <Salt_Solvent_ID>
0

> <MPID>
101666

> <LogKmHL>
1.45

> <Tr_1_Tst_0>
0

$$$$
100030
  Mrv171c012251910542D          

 20 22  0  0  0  0            999 V2000
    1.6832   -2.5143    0.0000 C   0  0  0  0  0  0  0  0  0  0  0  0
    0.8582   -2.5143    0.0000 Cl  0  0  0  0  0  0  0  0  0  0  0  0
    1.6832   -3.3393    0.0000 C   0  0  0  0  0  0  0  0  0  0  0  0
    0.9688   -3.7518    0.0000 C   0  0  0  0  0  0  0  0  0  0  0  0
    0.9688   -4.5768    0.0000 C   0  0  0  0  0  0  0  0  0  0  0  0
    1.6832   -4.9893    0.0000 C   0  0  0  0  0  0  0  0  0  0  0  0
    2.3977   -4.5768    0.0000 C   0  0  0  0  0  0  0  0  0  0  0  0
    2.3977   -3.7518    0.0000 C   0  0  0  0  0  0  0  0  0  0  0  0
    1.6832   -1.6893    0.0000 C   0  0  0  0  0  0  0  0  0  0  0  0
    2.3977   -1.2768    0.0000 C   0  0  0  0  0  0  0  0  0  0  0  0
    2.3977   -0.4518    0.0000 C   0  0  0  0  0  0  0  0  0  0  0  0
    1.6832   -0.0393    0.0000 C   0  0  0  0  0  0  0  0  0  0  0  0
    0.9688   -0.4518    0.0000 C   0  0  0  0  0  0  0  0  0  0  0  0
    0.9688   -1.2768    0.0000 C   0  0  0  0  0  0  0  0  0  0  0  0
    2.5082   -2.5143    0.0000 C   0  0  0  0  0  0  0  0  0  0  0  0
    2.9207   -3.2287    0.0000 C   0  0  0  0  0  0  0  0  0  0  0  0
    3.7457   -3.2287    0.0000 C   0  0  0  0  0  0  0  0  0  0  0  0
    4.1582   -2.5143    0.0000 C   0  0  0  0  0  0  0  0  0  0  0  0
    3.7457   -1.7998    0.0000 C   0  0  0  0  0  0  0  0  0  0  0  0
    2.9207   -1.7998    0.0000 C   0  0  0  0  0  0  0  0  0  0  0  0
  1  2  1  0  0  0  0
  1  3  1  0  0  0  0
  4  3  2  0  0  0  0
  5  4  1  0  0  0  0
  6  5  2  0  0  0  0
  7  6  1  0  0  0  0
  8  7  2  0  0  0  0
  3  8  1  0  0  0  0
  1  9  1  0  0  0  0
 10  9  2  0  0  0  0
 11 10  1  0  0  0  0
 12 11  2  0  0  0  0
 13 12  1  0  0  0  0
 14 13  2  0  0  0  0
  9 14  1  0  0  0  0
  1 15  1  0  0  0  0
 16 15  2  0  0  0  0
 17 16  1  0  0  0  0
 18 17  2  0  0  0  0
 19 18  1  0  0  0  0
 20 19  2  0  0  0  0
 15 20  1  0  0  0  0
M  END
> <ChemID>
100030

> <CAS>
76-83-5

> <Original_SMILES>
ClC(c1ccccc1)(c1ccccc1)c1ccccc1

> <preferred_name>
Trityl chloride

> <dsstox_substance_id>
DTXSID3052511

> <dsstox_compound_id>
DTXCID7031084

> <qc_level>
DSSTox_Low

> <Canonical_QSARr>
ClC(C1C=CC=CC=1)(C1C=CC=CC=1)C1C=CC=CC=1

> <InChI_Code_QSARr>
InChI=1S/C19H15Cl/c20-19(16-10-4-1-5-11-16,17-12-6-2-7-13-17)18-14-8-3-9-15-18/h1-15H

> <InChI Key_QSARr>
JBWKIWSBJXDJDT-UHFFFAOYSA-N

> <Salt_Solvent>


> <Salt_Solvent_ID>
0

> <MPID>
101667

> <LogKmHL>
-0.15

> <Tr_1_Tst_0>
1

$$$$
100031
  Mrv171c012251910542D          

 26 28  0  0  0  0            999 V2000
    2.4278   -1.8185    0.0000 P   0  0  0  0  0  0  0  0  0  0  0  0
    2.8403   -2.5330    0.0000 O   0  0  0  0  0  0  0  0  0  0  0  0
    3.1423   -1.4060    0.0000 O   0  0  0  0  0  0  0  0  0  0  0  0
    3.8568   -1.8185    0.0000 C   0  0  0  0  0  0  0  0  0  0  0  0
    3.8568   -2.6435    0.0000 C   0  0  0  0  0  0  0  0  0  0  0  0
    4.5713   -3.0560    0.0000 C   0  0  0  0  0  0  0  0  0  0  0  0
    5.2857   -2.6435    0.0000 C   0  0  0  0  0  0  0  0  0  0  0  0
    5.2857   -1.8185    0.0000 C   0  0  0  0  0  0  0  0  0  0  0  0
    4.5713   -1.4060    0.0000 C   0  0  0  0  0  0  0  0  0  0  0  0
    4.5713   -0.5810    0.0000 C   0  0  0  0  0  0  0  0  0  0  0  0
    1.7134   -2.2310    0.0000 O   0  0  0  0  0  0  0  0  0  0  0  0
    1.7134   -3.0560    0.0000 C   0  0  0  0  0  0  0  0  0  0  0  0
    0.9989   -3.4685    0.0000 C   0  0  0  0  0  0  0  0  0  0  0  0
    0.9989   -4.2935    0.0000 C   0  0  0  0  0  0  0  0  0  0  0  0
    1.7134   -4.7060    0.0000 C   0  0  0  0  0  0  0  0  0  0  0  0
    2.4278   -4.2935    0.0000 C   0  0  0  0  0  0  0  0  0  0  0  0
    2.4278   -3.4685    0.0000 C   0  0  0  0  0  0  0  0  0  0  0  0
    3.1423   -3.0560    0.0000 C   0  0  0  0  0  0  0  0  0  0  0  0
    2.0153   -1.1040    0.0000 O   0  0  0  0  0  0  0  0  0  0  0  0
    2.4278   -0.3895    0.0000 C   0  0  0  0  0  0  0  0  0  0  0  0
    3.2528   -0.3895    0.0000 C   0  0  0  0  0  0  0  0  0  0  0  0
    3.6653    0.3249    0.0000 C   0  0  0  0  0  0  0  0  0  0  0  0
    3.2528    1.0394    0.0000 C   0  0  0  0  0  0  0  0  0  0  0  0
    2.4278    1.0394    0.0000 C   0  0  0  0  0  0  0  0  0  0  0  0
    2.0153    0.3249    0.0000 C   0  0  0  0  0  0  0  0  0  0  0  0
    1.1903    0.3249    0.0000 C   0  0  0  0  0  0  0  0  0  0  0  0
  1  2  2  0  0  0  0
  1  3  1  0  0  0  0
  3  4  1  0  0  0  0
  5  4  1  0  0  0  0
  6  5  2  0  0  0  0
  7  6  1  0  0  0  0
  8  7  2  0  0  0  0
  9  8  1  0  0  0  0
  4  9  2  0  0  0  0
  9 10  1  0  0  0  0
  1 11  1  0  0  0  0
 11 12  1  0  0  0  0
 13 12  1  0  0  0  0
 14 13  2  0  0  0  0
 15 14  1  0  0  0  0
 16 15  2  0  0  0  0
 17 16  1  0  0  0  0
 12 17  2  0  0  0  0
 17 18  1  0  0  0  0
  1 19  1  0  0  0  0
 19 20  1  0  0  0  0
 21 20  1  0  0  0  0
 22 21  2  0  0  0  0
 23 22  1  0  0  0  0
 24 23  2  0  0  0  0
 25 24  1  0  0  0  0
 20 25  2  0  0  0  0
 25 26  1  0  0  0  0
M  END
> <ChemID>
100031

> <CAS>
78-30-8

> <Original_SMILES>
Cc1ccccc1OP(=O)(Oc1ccccc1C)Oc1ccccc1C

> <preferred_name>
Tri-o-cresyl phosphate

> <dsstox_substance_id>
DTXSID6032192

> <dsstox_compound_id>
DTXCID4012192

> <qc_level>
DSSTox_Low

> <Canonical_QSARr>
CC1C=CC=CC=1OP(=O)(OC1C=CC=CC=1C)OC1C=CC=CC=1C

> <InChI_Code_QSARr>
InChI=1S/C21H21O4P/c1-16-10-4-7-13-19(16)23-26(22,24-20-14-8-5-11-17(20)2)25-21-15-9-6-12-18(21)3/h4-15H,1-3H3

> <InChI Key_QSARr>
YSMRWXYRXBRSND-UHFFFAOYSA-N

> <Salt_Solvent>


> <Salt_Solvent_ID>
0

> <MPID>
101668

> <LogKmHL>
0.5

> <Tr_1_Tst_0>
1

$$$$
100032
  Mrv171c012251910542D          

 11 10  0  0  0  0            999 V2000
    1.8128   -0.5177    0.0000 O   0  0  0  0  0  0  0  0  0  0  0  0
    2.2253   -1.2322    0.0000 P   0  0  0  0  0  0  0  0  0  0  0  0
    1.5109   -1.6447    0.0000 O   0  0  0  0  0  0  0  0  0  0  0  0
    0.7964   -1.2322    0.0000 C   0  0  0  0  0  0  0  0  0  0  0  0
    0.0819   -1.6447    0.0000 C   0  0  0  0  0  0  0  0  0  0  0  0
    2.9398   -0.8197    0.0000 O   0  0  0  0  0  0  0  0  0  0  0  0
    3.6543   -1.2322    0.0000 C   0  0  0  0  0  0  0  0  0  0  0  0
    4.3688   -0.8197    0.0000 C   0  0  0  0  0  0  0  0  0  0  0  0
    2.6378   -1.9466    0.0000 O   0  0  0  0  0  0  0  0  0  0  0  0
    2.2253   -2.6611    0.0000 C   0  0  0  0  0  0  0  0  0  0  0  0
    1.4003   -2.6611    0.0000 C   0  0  0  0  0  0  0  0  0  0  0  0
  1  2  2  0  0  0  0
  2  3  1  0  0  0  0
  3  4  1  0  0  0  0
  4  5  1  0  0  0  0
  2  6  1  0  0  0  0
  6  7  1  0  0  0  0
  7  8  1  0  0  0  0
  2  9  1  0  0  0  0
  9 10  1  0  0  0  0
 10 11  1  0  0  0  0
M  END
> <ChemID>
100032

> <CAS>
78-40-0

> <Original_SMILES>
CCOP(=O)(OCC)OCC

> <preferred_name>
Triethyl phosphate

> <dsstox_substance_id>
DTXSID8026228

> <dsstox_compound_id>
DTXCID806228

> <qc_level>
DSSTox_Low

> <Canonical_QSARr>
CCOP(=O)(OCC)OCC

> <InChI_Code_QSARr>
InChI=1S/C6H15O4P/c1-4-8-11(7,9-5-2)10-6-3/h4-6H2,1-3H3

> <InChI Key_QSARr>
DQWPFSLDHJDLRL-UHFFFAOYSA-N

> <Salt_Solvent>


> <Salt_Solvent_ID>
0

> <MPID>
101669

> <LogKmHL>
-1.09

> <Tr_1_Tst_0>
1

$$$$
100033
  Mrv171c012251910542D          

 29 28  0  0  0  0            999 V2000
    4.1550   -6.2363    0.0000 O   0  0  0  0  0  0  0  0  0  0  0  0
    4.1550   -5.4113    0.0000 P   0  0  0  0  0  0  0  0  0  0  0  0
    4.9800   -5.4113    0.0000 O   0  0  0  0  0  0  0  0  0  0  0  0
    5.3925   -6.1258    0.0000 C   0  0  0  0  0  0  0  0  0  0  0  0
    6.2175   -6.1258    0.0000 C   0  0  0  0  0  0  0  0  0  0  0  0
    6.6300   -5.4113    0.0000 C   0  0  0  0  0  0  0  0  0  0  0  0
    7.4550   -5.4113    0.0000 C   0  0  0  0  0  0  0  0  0  0  0  0
    6.6300   -6.8402    0.0000 C   0  0  0  0  0  0  0  0  0  0  0  0
    7.4550   -6.8402    0.0000 C   0  0  0  0  0  0  0  0  0  0  0  0
    7.8675   -7.5547    0.0000 C   0  0  0  0  0  0  0  0  0  0  0  0
    8.6925   -7.5547    0.0000 C   0  0  0  0  0  0  0  0  0  0  0  0
    3.3300   -5.4113    0.0000 O   0  0  0  0  0  0  0  0  0  0  0  0
    2.9175   -4.6968    0.0000 C   0  0  0  0  0  0  0  0  0  0  0  0
    2.0925   -4.6968    0.0000 C   0  0  0  0  0  0  0  0  0  0  0  0
    1.6800   -5.4113    0.0000 C   0  0  0  0  0  0  0  0  0  0  0  0
    0.8550   -5.4113    0.0000 C   0  0  0  0  0  0  0  0  0  0  0  0
    1.6800   -3.9824    0.0000 C   0  0  0  0  0  0  0  0  0  0  0  0
    0.8550   -3.9824    0.0000 C   0  0  0  0  0  0  0  0  0  0  0  0
    0.4425   -3.2679    0.0000 C   0  0  0  0  0  0  0  0  0  0  0  0
   -0.3825   -3.2679    0.0000 C   0  0  0  0  0  0  0  0  0  0  0  0
    4.1550   -4.5863    0.0000 O   0  0  0  0  0  0  0  0  0  0  0  0
    3.4405   -4.1738    0.0000 C   0  0  0  0  0  0  0  0  0  0  0  0
    3.4405   -3.3488    0.0000 C   0  0  0  0  0  0  0  0  0  0  0  0
    2.7260   -2.9363    0.0000 C   0  0  0  0  0  0  0  0  0  0  0  0
    2.0115   -3.3488    0.0000 C   0  0  0  0  0  0  0  0  0  0  0  0
    4.1550   -2.9363    0.0000 C   0  0  0  0  0  0  0  0  0  0  0  0
    4.8694   -3.3488    0.0000 C   0  0  0  0  0  0  0  0  0  0  0  0
    5.5839   -2.9363    0.0000 C   0  0  0  0  0  0  0  0  0  0  0  0
    6.2984   -3.3488    0.0000 C   0  0  0  0  0  0  0  0  0  0  0  0
  1  2  2  0  0  0  0
  2  3  1  0  0  0  0
  3  4  1  0  0  0  0
  4  5  1  0  0  0  0
  5  6  1  0  0  0  0
  6  7  1  0  0  0  0
  5  8  1  0  0  0  0
  8  9  1  0  0  0  0
  9 10  1  0  0  0  0
 10 11  1  0  0  0  0
  2 12  1  0  0  0  0
 12 13  1  0  0  0  0
 13 14  1  0  0  0  0
 14 15  1  0  0  0  0
 15 16  1  0  0  0  0
 14 17  1  0  0  0  0
 17 18  1  0  0  0  0
 18 19  1  0  0  0  0
 19 20  1  0  0  0  0
  2 21  1  0  0  0  0
 21 22  1  0  0  0  0
 22 23  1  0  0  0  0
 23 24  1  0  0  0  0
 24 25  1  0  0  0  0
 23 26  1  0  0  0  0
 26 27  1  0  0  0  0
 27 28  1  0  0  0  0
 28 29  1  0  0  0  0
M  END
> <ChemID>
100033

> <CAS>
78-42-2

> <Original_SMILES>
CCCCC(COP(=O)(OCC(CCCC)CC)OCC(CCCC)CC)CC

> <preferred_name>
Tris(2-ethylhexyl) phosphate

> <dsstox_substance_id>
DTXSID0021414

> <dsstox_compound_id>
DTXCID801414

> <qc_level>
DSSTox_Low

> <Canonical_QSARr>
CCCCC(COP(=O)(OCC(CCCC)CC)OCC(CCCC)CC)CC

> <InChI_Code_QSARr>
InChI=1S/C24H51O4P/c1-7-13-16-22(10-4)19-26-29(25,27-20-23(11-5)17-14-8-2)28-21-24(12-6)18-15-9-3/h22-24H,7-21H2,1-6H3

> <InChI Key_QSARr>
GTVWRXDRKAHEAD-UHFFFAOYSA-N

> <Salt_Solvent>


> <Salt_Solvent_ID>
0

> <MPID>
101670

> <LogKmHL>
-0.29

> <Tr_1_Tst_0>
0

$$$$
100034
  Mrv171c012251910542D          

 10 10  0  0  0  0            999 V2000
    0.8878   -0.3833    0.0000 C   0  0  0  0  0  0  0  0  0  0  0  0
    1.4181   -1.0153    0.0000 C   0  0  0  0  0  0  0  0  0  0  0  0
    1.9484   -0.3833    0.0000 C   0  0  0  0  0  0  0  0  0  0  0  0
    0.7037   -1.4278    0.0000 C   0  0  0  0  0  0  0  0  0  0  0  0
    0.7037   -2.2528    0.0000 C   0  0  0  0  0  0  0  0  0  0  0  0
   -0.0108   -2.6653    0.0000 O   0  0  0  0  0  0  0  0  0  0  0  0
    1.4181   -2.6653    0.0000 C   0  0  0  0  0  0  0  0  0  0  0  0
    2.1326   -2.2528    0.0000 C   0  0  0  0  0  0  0  0  0  0  0  0
    2.8471   -2.6653    0.0000 C   0  0  0  0  0  0  0  0  0  0  0  0
    2.1326   -1.4278    0.0000 C   0  0  0  0  0  0  0  0  0  0  0  0
  1  2  1  0  0  0  0
  2  3  1  0  0  0  0
  4  2  1  0  0  0  0
  5  4  1  0  0  0  0
  5  6  2  0  0  0  0
  7  5  1  0  0  0  0
  8  7  2  0  0  0  0
  8  9  1  0  0  0  0
 10  8  1  0  0  0  0
  2 10  1  0  0  0  0
M  END
> <ChemID>
100034

> <CAS>
78-59-1

> <Original_SMILES>
CC1CC(C)(C)CC(=O)C=1

> <preferred_name>
Isophorone

> <dsstox_substance_id>
DTXSID8020759

> <dsstox_compound_id>
DTXCID40759

> <qc_level>
DSSTox_Low

> <Canonical_QSARr>
CC1CC(C)(C)CC(=O)C=1

> <InChI_Code_QSARr>
InChI=1S/C9H14O/c1-7-4-8(10)6-9(2,3)5-7/h4H,5-6H2,1-3H3

> <InChI Key_QSARr>
HJOVHMDZYOCNQW-UHFFFAOYSA-N

> <Salt_Solvent>


> <Salt_Solvent_ID>
0

> <MPID>
101671

> <LogKmHL>
-1.29

> <Tr_1_Tst_0>
1

$$$$
100035
  Mrv171c012251910542D          

 20 19  0  0  0  0            999 V2000
    4.0401   -0.3977    0.0000 C   0  0  0  0  0  0  0  0  0  0  0  0
    4.0401   -1.2227    0.0000 C   0  0  0  0  0  0  0  0  0  0  0  0
    3.3257   -1.6352    0.0000 C   0  0  0  0  0  0  0  0  0  0  0  0
    3.3257   -2.4602    0.0000 C   0  0  0  0  0  0  0  0  0  0  0  0
    3.3257   -3.2852    0.0000 O   0  0  0  0  0  0  0  0  0  0  0  0
    2.6112   -3.6977    0.0000 O   0  0  0  0  0  0  0  0  0  0  0  0
    2.6112   -4.5227    0.0000 C   0  0  0  0  0  0  0  0  0  0  0  0
    2.6112   -5.3477    0.0000 C   0  0  0  0  0  0  0  0  0  0  0  0
    3.4362   -4.5227    0.0000 C   0  0  0  0  0  0  0  0  0  0  0  0
    1.7862   -4.5227    0.0000 C   0  0  0  0  0  0  0  0  0  0  0  0
    4.1507   -2.4602    0.0000 C   0  0  0  0  0  0  0  0  0  0  0  0
    2.5007   -2.4602    0.0000 C   0  0  0  0  0  0  0  0  0  0  0  0
    4.0401    0.4273    0.0000 O   0  0  0  0  0  0  0  0  0  0  0  0
    4.7546    0.8398    0.0000 O   0  0  0  0  0  0  0  0  0  0  0  0
    4.7546    1.6648    0.0000 C   0  0  0  0  0  0  0  0  0  0  0  0
    4.7546    2.4898    0.0000 C   0  0  0  0  0  0  0  0  0  0  0  0
    5.5796    1.6648    0.0000 C   0  0  0  0  0  0  0  0  0  0  0  0
    3.9296    1.6648    0.0000 C   0  0  0  0  0  0  0  0  0  0  0  0
    4.8651   -0.3977    0.0000 C   0  0  0  0  0  0  0  0  0  0  0  0
    3.2151   -0.3977    0.0000 C   0  0  0  0  0  0  0  0  0  0  0  0
  1  2  1  0  0  0  0
  2  3  1  0  0  0  0
  3  4  1  0  0  0  0
  4  5  1  0  0  0  0
  5  6  1  0  0  0  0
  6  7  1  0  0  0  0
  7  8  1  0  0  0  0
  7  9  1  0  0  0  0
  7 10  1  0  0  0  0
  4 11  1  0  0  0  0
  4 12  1  0  0  0  0
  1 13  1  0  0  0  0
 13 14  1  0  0  0  0
 14 15  1  0  0  0  0
 15 16  1  0  0  0  0
 15 17  1  0  0  0  0
 15 18  1  0  0  0  0
  1 19  1  0  0  0  0
  1 20  1  0  0  0  0
M  END
> <ChemID>
100035

> <CAS>
78-63-7

> <Original_SMILES>
CC(C)(C)OOC(C)(C)CCC(C)(C)OOC(C)(C)C

> <preferred_name>
2,5-Dimethyl-2,5-di-(tert-butylperoxy)hexane

> <dsstox_substance_id>
DTXSID9025110

> <dsstox_compound_id>
DTXCID005110

> <qc_level>
DSSTox_Low

> <Canonical_QSARr>
CC(C)(C)OOC(C)(C)CCC(C)(C)OOC(C)(C)C

> <InChI_Code_QSARr>
InChI=1S/C16H34O4/c1-13(2,3)17-19-15(7,8)11-12-16(9,10)20-18-14(4,5)6/h11-12H2,1-10H3

> <InChI Key_QSARr>
DMWVYCCGCQPJEA-UHFFFAOYSA-N

> <Salt_Solvent>


> <Salt_Solvent_ID>
0

> <MPID>
101672

> <LogKmHL>
0.77

> <Tr_1_Tst_0>
1

$$$$
100036
  Mrv171c012251910542D          

  5  4  0  0  0  0            999 V2000
    1.5564   -1.8255    0.0000 C   0  0  0  0  0  0  0  0  0  0  0  0
    1.1439   -1.1110    0.0000 C   0  0  0  0  0  0  0  0  0  0  0  0
    1.5564   -0.3965    0.0000 C   0  0  0  0  0  0  0  0  0  0  0  0
    1.1439    0.3179    0.0000 C   0  0  0  0  0  0  0  0  0  0  0  0
    0.3189   -1.1110    0.0000 C   0  0  0  0  0  0  0  0  0  0  0  0
  1  2  1  0  0  0  0
  2  3  1  0  0  0  0
  3  4  2  0  0  0  0
  2  5  2  0  0  0  0
M  END
> <ChemID>
100036

> <CAS>
78-79-5

> <Original_SMILES>
CC(=C)C=C

> <preferred_name>
Isoprene

> <dsstox_substance_id>
DTXSID2020761

> <dsstox_compound_id>
DTXCID20761

> <qc_level>
DSSTox_Low

> <Canonical_QSARr>
CC(=C)C=C

> <InChI_Code_QSARr>
InChI=1S/C5H8/c1-4-5(2)3/h4H,1-2H2,3H3

> <InChI Key_QSARr>
RRHGJUQNOFWUDK-UHFFFAOYSA-N

> <Salt_Solvent>


> <Salt_Solvent_ID>
0

> <MPID>
101673

> <LogKmHL>
-0.61

> <Tr_1_Tst_0>
1

$$$$
100037
  Mrv171c012251910542D          

  5  4  0  0  0  0            999 V2000
    2.2164   -0.9681    0.0000 C   0  0  0  0  0  0  0  0  0  0  0  0
    1.3914   -0.9681    0.0000 C   0  0  0  0  0  0  0  0  0  0  0  0
    0.9789   -1.6826    0.0000 Cl  0  0  0  0  0  0  0  0  0  0  0  0
    0.9789   -0.2536    0.0000 C   0  0  0  0  0  0  0  0  0  0  0  0
    0.1539   -0.2536    0.0000 Cl  0  0  0  0  0  0  0  0  0  0  0  0
  1  2  1  0  0  0  0
  2  3  1  0  0  0  0
  2  4  1  0  0  0  0
  4  5  1  0  0  0  0
M  END
> <ChemID>
100037

> <CAS>
78-87-5

> <Original_SMILES>
CC(Cl)CCl

> <preferred_name>
1,2-Dichloropropane

> <dsstox_substance_id>
DTXSID0020448

> <dsstox_compound_id>
DTXCID60448

> <qc_level>
DSSTox_Low

> <Canonical_QSARr>
CC(Cl)CCl

> <InChI_Code_QSARr>
InChI=1S/C3H6Cl2/c1-3(5)2-4/h3H,2H2,1H3

> <InChI Key_QSARr>
KNKRKFALVUDBJE-UHFFFAOYSA-N

> <Salt_Solvent>


> <Salt_Solvent_ID>
0

> <MPID>
101674

> <LogKmHL>
-1.06

> <Tr_1_Tst_0>
0

$$$$
100038
  Mrv171c012251910542D          

  5  4  0  0  0  0            999 V2000
    2.2148   -0.9669    0.0000 Cl  0  0  0  0  0  0  0  0  0  0  0  0
    1.3898   -0.9669    0.0000 C   0  0  0  0  0  0  0  0  0  0  0  0
    0.9773   -1.6814    0.0000 Cl  0  0  0  0  0  0  0  0  0  0  0  0
    0.9773   -0.2525    0.0000 C   0  0  0  0  0  0  0  0  0  0  0  0
    0.1523   -0.2525    0.0000 Cl  0  0  0  0  0  0  0  0  0  0  0  0
  1  2  1  0  0  0  0
  2  3  1  0  0  0  0
  2  4  1  0  0  0  0
  4  5  1  0  0  0  0
M  END
> <ChemID>
100038

> <CAS>
79-00-5

> <Original_SMILES>
ClCC(Cl)Cl

> <preferred_name>
1,1,2-Trichloroethane

> <dsstox_substance_id>
DTXSID5021380

> <dsstox_compound_id>
DTXCID101380

> <qc_level>
DSSTox_Low

> <Canonical_QSARr>
ClCC(Cl)Cl

> <InChI_Code_QSARr>
InChI=1S/C2H3Cl3/c3-1-2(4)5/h2H,1H2

> <InChI Key_QSARr>
UBOXGVDOUJQMTN-UHFFFAOYSA-N

> <Salt_Solvent>


> <Salt_Solvent_ID>
0

> <MPID>
101675

> <LogKmHL>
-1.01

> <Tr_1_Tst_0>
1

$$$$
100039
  Mrv171c012251910542D          

  5  4  0  0  0  0            999 V2000
    1.8023    0.0333    0.0000 Cl  0  0  0  0  0  0  0  0  0  0  0  0
    1.3898   -0.6812    0.0000 C   0  0  0  0  0  0  0  0  0  0  0  0
    1.8023   -1.3956    0.0000 Cl  0  0  0  0  0  0  0  0  0  0  0  0
    0.5648   -0.6812    0.0000 C   0  0  0  0  0  0  0  0  0  0  0  0
    0.1523   -1.3956    0.0000 Cl  0  0  0  0  0  0  0  0  0  0  0  0
  1  2  1  0  0  0  0
  2  3  1  0  0  0  0
  2  4  2  0  0  0  0
  4  5  1  0  0  0  0
M  END
> <ChemID>
100039

> <CAS>
79-01-6

> <Original_SMILES>
ClC=C(Cl)Cl

> <preferred_name>
Trichloroethylene

> <dsstox_substance_id>
DTXSID0021383

> <dsstox_compound_id>
DTXCID901382

> <qc_level>
DSSTox_Low

> <Canonical_QSARr>
ClC=C(Cl)Cl

> <InChI_Code_QSARr>
InChI=1S/C2HCl3/c3-1-2(4)5/h1H

> <InChI Key_QSARr>
XSTXAVWGXDQKEL-UHFFFAOYSA-N

> <Salt_Solvent>


> <Salt_Solvent_ID>
0

> <MPID>
101676

> <LogKmHL>
-0.41

> <Tr_1_Tst_0>
1

$$$$
100040
  Mrv171c012251910542D          

  6  5  0  0  0  0            999 V2000
    0.8241    0.0007    0.0000 Cl  0  0  0  0  0  0  0  0  0  0  0  0
    1.2366   -0.7138    0.0000 C   0  0  0  0  0  0  0  0  0  0  0  0
    2.0616   -0.7138    0.0000 Cl  0  0  0  0  0  0  0  0  0  0  0  0
    0.8241   -1.4283    0.0000 C   0  0  0  0  0  0  0  0  0  0  0  0
    1.2366   -2.1427    0.0000 Cl  0  0  0  0  0  0  0  0  0  0  0  0
   -0.0009   -1.4283    0.0000 Cl  0  0  0  0  0  0  0  0  0  0  0  0
  1  2  1  0  0  0  0
  2  3  1  0  0  0  0
  2  4  1  0  0  0  0
  4  5  1  0  0  0  0
  4  6  1  0  0  0  0
M  END
> <ChemID>
100040

> <CAS>
79-34-5

> <Original_SMILES>
ClC(Cl)C(Cl)Cl

> <preferred_name>
1,1,2,2-Tetrachloroethane

> <dsstox_substance_id>
DTXSID7021318

> <dsstox_compound_id>
DTXCID201318

> <qc_level>
DSSTox_Low

> <Canonical_QSARr>
ClC(Cl)C(Cl)Cl

> <InChI_Code_QSARr>
InChI=1S/C2H2Cl4/c3-1(4)2(5)6/h1-2H

> <InChI Key_QSARr>
QPFMBZIOSGYJDE-UHFFFAOYSA-N

> <Salt_Solvent>


> <Salt_Solvent_ID>
0

> <MPID>
101677

> <LogKmHL>
-0.67

> <Tr_1_Tst_0>
1

$$$$
100041
  Mrv171c012251910542D          

  6  5  0  0  0  0            999 V2000
    0.8245    0.0003    0.0000 C   0  0  0  0  0  0  0  0  0  0  0  0
    1.2370   -0.7141    0.0000 C   0  0  0  0  0  0  0  0  0  0  0  0
    2.0620   -0.7141    0.0000 C   0  0  0  0  0  0  0  0  0  0  0  0
    0.8245   -1.4286    0.0000 N   0  3  0  0  0  0  0  0  0  0  0  0
    1.2370   -2.1431    0.0000 O   0  5  0  0  0  0  0  0  0  0  0  0
   -0.0005   -1.4286    0.0000 O   0  0  0  0  0  0  0  0  0  0  0  0
  1  2  1  0  0  0  0
  2  3  1  0  0  0  0
  2  4  1  0  0  0  0
  4  5  1  0  0  0  0
  4  6  2  0  0  0  0
M  CHG  2   4   1   5  -1
M  END
> <ChemID>
100041

> <CAS>
79-46-9

> <Original_SMILES>
CC(C)[N+]([O-])=O

> <preferred_name>
2-Nitropropane

> <dsstox_substance_id>
DTXSID6020981

> <dsstox_compound_id>
DTXCID80981

> <qc_level>
DSSTox_Low

> <Canonical_QSARr>
CC(C)[N+]([O-])=O

> <InChI_Code_QSARr>
InChI=1S/C3H7NO2/c1-3(2)4(5)6/h3H,1-2H3

> <InChI Key_QSARr>
FGLBSLMDCBOPQK-UHFFFAOYSA-N

> <Salt_Solvent>


> <Salt_Solvent_ID>
0

> <MPID>
101678

> <LogKmHL>
-1.2

> <Tr_1_Tst_0>
0

$$$$
100042
  Mrv171c012251910542D          

 10 11  0  0  0  0            999 V2000
    0.1653   -0.8721    0.0000 C   0  0  0  0  0  0  0  0  0  0  0  0
    0.8798   -0.4596    0.0000 C   0  0  0  0  0  0  0  0  0  0  0  0
    1.5943   -0.8721    0.0000 C   0  0  0  0  0  0  0  0  0  0  0  0
    2.3087   -0.4596    0.0000 C   0  0  0  0  0  0  0  0  0  0  0  0
    1.5943   -1.6971    0.0000 C   0  0  0  0  0  0  0  0  0  0  0  0
    2.4067   -1.5538    0.0000 C   0  0  0  0  0  0  0  0  0  0  0  0
    1.8764   -2.4723    0.0000 C   0  0  0  0  0  0  0  0  0  0  0  0
    0.8798   -2.1096    0.0000 C   0  0  0  0  0  0  0  0  0  0  0  0
    0.6736   -1.2846    0.0000 C   0  0  0  0  0  0  0  0  0  0  0  0
    0.1653   -1.6971    0.0000 C   0  0  0  0  0  0  0  0  0  0  0  0
  2  1  1  0  0  0  0
  2  3  1  0  0  0  0
  3  4  2  0  0  0  0
  3  5  1  0  0  0  0
  5  6  1  0  0  0  0
  5  7  1  0  0  0  0
  5  8  1  0  0  0  0
  8  9  1  0  0  0  0
  9  2  1  0  0  0  0
 10  8  1  0  0  0  0
  1 10  1  0  0  0  0
M  END
> <ChemID>
100042

> <CAS>
79-92-5

> <Original_SMILES>
CC1(C)C2CC(CC2)C1=C

> <preferred_name>
Camphene

> <dsstox_substance_id>
DTXSID8026488

> <dsstox_compound_id>
DTXCID006488

> <qc_level>
DSSTox_High

> <Canonical_QSARr>
CC1(C)C2CC(CC2)C1=C

> <InChI_Code_QSARr>
InChI=1S/C10H16/c1-7-8-4-5-9(6-8)10(7,2)3/h8-9H,1,4-6H2,2-3H3

> <InChI Key_QSARr>
CRPUJAZIXJMDBK-UHFFFAOYSA-N

> <Salt_Solvent>


> <Salt_Solvent_ID>
0

> <MPID>
101679

> <LogKmHL>
0.96

> <Tr_1_Tst_0>
1

$$$$
100043
  Mrv171c012251910542D          

 17 18  0  0  0  0            999 V2000
    1.5011   -1.6268    0.0000 C   0  0  0  0  0  0  0  0  0  0  0  0
    2.3261   -1.6268    0.0000 C   0  0  0  0  0  0  0  0  0  0  0  0
    3.1511   -1.6268    0.0000 C   0  0  0  0  0  0  0  0  0  0  0  0
    2.3261   -0.8018    0.0000 C   0  0  0  0  0  0  0  0  0  0  0  0
    3.0405   -0.3893    0.0000 C   0  0  0  0  0  0  0  0  0  0  0  0
    3.0405    0.4357    0.0000 C   0  0  0  0  0  0  0  0  0  0  0  0
    2.3261    0.8482    0.0000 C   0  0  0  0  0  0  0  0  0  0  0  0
    2.3261    1.6732    0.0000 O   0  0  0  0  0  0  0  0  0  0  0  0
    1.6116    0.4357    0.0000 C   0  0  0  0  0  0  0  0  0  0  0  0
    1.6116   -0.3893    0.0000 C   0  0  0  0  0  0  0  0  0  0  0  0
    2.3261   -2.4518    0.0000 C   0  0  0  0  0  0  0  0  0  0  0  0
    1.6116   -2.8643    0.0000 C   0  0  0  0  0  0  0  0  0  0  0  0
    1.6116   -3.6893    0.0000 C   0  0  0  0  0  0  0  0  0  0  0  0
    2.3261   -4.1018    0.0000 C   0  0  0  0  0  0  0  0  0  0  0  0
    2.3261   -4.9268    0.0000 O   0  0  0  0  0  0  0  0  0  0  0  0
    3.0405   -3.6893    0.0000 C   0  0  0  0  0  0  0  0  0  0  0  0
    3.0405   -2.8643    0.0000 C   0  0  0  0  0  0  0  0  0  0  0  0
  1  2  1  0  0  0  0
  2  3  1  0  0  0  0
  2  4  1  0  0  0  0
  5  4  1  0  0  0  0
  6  5  2  0  0  0  0
  7  6  1  0  0  0  0
  7  8  1  0  0  0  0
  9  7  2  0  0  0  0
 10  9  1  0  0  0  0
  4 10  2  0  0  0  0
  2 11  1  0  0  0  0
 12 11  1  0  0  0  0
 13 12  2  0  0  0  0
 14 13  1  0  0  0  0
 14 15  1  0  0  0  0
 16 14  2  0  0  0  0
 17 16  1  0  0  0  0
 11 17  2  0  0  0  0
M  END
> <ChemID>
100043

> <CAS>
80-05-7

> <Original_SMILES>
CC(C)(c1ccc(O)cc1)c1ccc(O)cc1

> <preferred_name>
Bisphenol A

> <dsstox_substance_id>
DTXSID7020182

> <dsstox_compound_id>
DTXCID30182

> <qc_level>
DSSTox_High

> <Canonical_QSARr>
CC(C)(C1C=CC(O)=CC=1)C1C=CC(O)=CC=1

> <InChI_Code_QSARr>
InChI=1S/C15H16O2/c1-15(2,11-3-7-13(16)8-4-11)12-5-9-14(17)10-6-12/h3-10,16-17H,1-2H3

> <InChI Key_QSARr>
IISBACLAFKSPIT-UHFFFAOYSA-N

> <Salt_Solvent>


> <Salt_Solvent_ID>
0

> <MPID>
101680

> <LogKmHL>
0.27

> <Tr_1_Tst_0>
1

$$$$
100044
  Mrv171c012251910542D          

 20 21  0  0  0  0            999 V2000
    1.9690   -2.0898    0.0000 O   0  0  0  0  0  0  0  0  0  0  0  0
    1.9690   -2.9148    0.0000 C   0  0  0  0  0  0  0  0  0  0  0  0
    2.7940   -2.9148    0.0000 C   0  0  0  0  0  0  0  0  0  0  0  0
    1.1440   -2.9148    0.0000 C   0  0  0  0  0  0  0  0  0  0  0  0
    1.9690   -3.7398    0.0000 C   0  0  0  0  0  0  0  0  0  0  0  0
    1.2545   -4.1523    0.0000 C   0  0  0  0  0  0  0  0  0  0  0  0
    1.2545   -4.9773    0.0000 C   0  0  0  0  0  0  0  0  0  0  0  0
    1.9690   -5.3898    0.0000 C   0  0  0  0  0  0  0  0  0  0  0  0
    2.6835   -4.9773    0.0000 C   0  0  0  0  0  0  0  0  0  0  0  0
    2.6835   -4.1523    0.0000 C   0  0  0  0  0  0  0  0  0  0  0  0
    2.6835   -1.6773    0.0000 O   0  0  0  0  0  0  0  0  0  0  0  0
    2.6835   -0.8523    0.0000 C   0  0  0  0  0  0  0  0  0  0  0  0
    3.5085   -0.8523    0.0000 C   0  0  0  0  0  0  0  0  0  0  0  0
    1.8585   -0.8523    0.0000 C   0  0  0  0  0  0  0  0  0  0  0  0
    2.6835   -0.0273    0.0000 C   0  0  0  0  0  0  0  0  0  0  0  0
    3.3979    0.3852    0.0000 C   0  0  0  0  0  0  0  0  0  0  0  0
    3.3979    1.2102    0.0000 C   0  0  0  0  0  0  0  0  0  0  0  0
    2.6835    1.6227    0.0000 C   0  0  0  0  0  0  0  0  0  0  0  0
    1.9690    1.2102    0.0000 C   0  0  0  0  0  0  0  0  0  0  0  0
    1.9690    0.3852    0.0000 C   0  0  0  0  0  0  0  0  0  0  0  0
  1  2  1  0  0  0  0
  2  3  1  0  0  0  0
  2  4  1  0  0  0  0
  2  5  1  0  0  0  0
  6  5  1  0  0  0  0
  7  6  2  0  0  0  0
  8  7  1  0  0  0  0
  9  8  2  0  0  0  0
 10  9  1  0  0  0  0
  5 10  2  0  0  0  0
  1 11  1  0  0  0  0
 11 12  1  0  0  0  0
 12 13  1  0  0  0  0
 12 14  1  0  0  0  0
 12 15  1  0  0  0  0
 16 15  1  0  0  0  0
 17 16  2  0  0  0  0
 18 17  1  0  0  0  0
 19 18  2  0  0  0  0
 20 19  1  0  0  0  0
 15 20  2  0  0  0  0
M  END
> <ChemID>
100044

> <CAS>
80-43-3

> <Original_SMILES>
CC(C)(OOC(C)(C)c1ccccc1)c1ccccc1

> <preferred_name>
Dicumyl peroxide

> <dsstox_substance_id>
DTXSID1025017

> <dsstox_compound_id>
DTXCID605017

> <qc_level>
DSSTox_Low

> <Canonical_QSARr>
CC(C)(OOC(C)(C)C1C=CC=CC=1)C1C=CC=CC=1

> <InChI_Code_QSARr>
InChI=1S/C18H22O2/c1-17(2,15-11-7-5-8-12-15)19-20-18(3,4)16-13-9-6-10-14-16/h5-14H,1-4H3

> <InChI Key_QSARr>
XMNIXWIUMCBBBL-UHFFFAOYSA-N

> <Salt_Solvent>


> <Salt_Solvent_ID>
0

> <MPID>
101681

> <LogKmHL>
-0.01

> <Tr_1_Tst_0>
1

$$$$
100046
  Mrv171c012251910542D          

 18 21  0  0  0  0            999 V2000
    3.1020   -2.0668    0.0000 C   0  0  0  0  0  0  0  0  0  0  0  0
    2.3875   -2.4793    0.0000 C   0  0  0  0  0  0  0  0  0  0  0  0
    1.6730   -2.0668    0.0000 C   0  0  0  0  0  0  0  0  0  0  0  0
    0.9585   -2.4793    0.0000 C   0  0  0  0  0  0  0  0  0  0  0  0
    0.2441   -2.0668    0.0000 C   0  0  0  0  0  0  0  0  0  0  0  0
    0.2441   -1.2418    0.0000 C   0  0  0  0  0  0  0  0  0  0  0  0
    0.9585   -0.8293    0.0000 C   0  0  0  0  0  0  0  0  0  0  0  0
    1.6730   -1.2418    0.0000 C   0  0  0  0  0  0  0  0  0  0  0  0
    2.3875   -0.8293    0.0000 C   0  0  0  0  0  0  0  0  0  0  0  0
    2.3875   -0.0043    0.0000 O   0  0  0  0  0  0  0  0  0  0  0  0
    3.1020   -1.2418    0.0000 C   0  0  0  0  0  0  0  0  0  0  0  0
    3.8164   -0.8293    0.0000 C   0  0  0  0  0  0  0  0  0  0  0  0
    4.5309   -1.2418    0.0000 C   0  0  0  0  0  0  0  0  0  0  0  0
    4.5309   -2.0668    0.0000 C   0  0  0  0  0  0  0  0  0  0  0  0
    3.8164   -2.4793    0.0000 C   0  0  0  0  0  0  0  0  0  0  0  0
    0.9585   -3.3043    0.0000 C   0  0  0  0  0  0  0  0  0  0  0  0
    1.6730   -3.7168    0.0000 C   0  0  0  0  0  0  0  0  0  0  0  0
    2.3875   -3.3043    0.0000 C   0  0  0  0  0  0  0  0  0  0  0  0
  2  1  1  0  0  0  0
  2  3  2  0  0  0  0
  3  4  1  0  0  0  0
  4  5  1  0  0  0  0
  5  6  2  0  0  0  0
  6  7  1  0  0  0  0
  7  8  2  0  0  0  0
  8  3  1  0  0  0  0
  9  8  1  0  0  0  0
  9 10  2  0  0  0  0
 11  9  1  0  0  0  0
 11  1  1  0  0  0  0
 12 11  2  0  0  0  0
 13 12  1  0  0  0  0
 14 13  2  0  0  0  0
 15 14  1  0  0  0  0
  1 15  2  0  0  0  0
  4 16  2  0  0  0  0
 16 17  1  0  0  0  0
 17 18  2  0  0  0  0
 18  2  1  0  0  0  0
M  END
> <ChemID>
100046

> <CAS>
82-05-3

> <Original_SMILES>
O=C1c2cccc3cccc(c32)-c2ccccc21

> <preferred_name>
Benz[de]anthracen-7-one

> <dsstox_substance_id>
DTXSID8052566

> <dsstox_compound_id>
DTXCID5031139

> <qc_level>
DSSTox_Low

> <Canonical_QSARr>
O=C1C2=CC=CC3=CC=CC(=C32)C2=CC=CC=C21

> <InChI_Code_QSARr>
InChI=1S/C17H10O/c18-17-14-8-2-1-7-12(14)13-9-3-5-11-6-4-10-15(17)16(11)13/h1-10H

> <InChI Key_QSARr>
HUKPVYBUJRAUAG-UHFFFAOYSA-N

> <Salt_Solvent>


> <Salt_Solvent_ID>
0

> <MPID>
101682

> <LogKmHL>
-0.69

> <Tr_1_Tst_0>
0

$$$$
100047
  Mrv171c012251910542D          

 17 19  0  0  0  0            999 V2000
    1.5916   -1.8606    0.0000 C   0  0  0  0  0  0  0  0  0  0  0  0
    2.3061   -2.2731    0.0000 C   0  0  0  0  0  0  0  0  0  0  0  0
    2.3061   -3.0981    0.0000 O   0  0  0  0  0  0  0  0  0  0  0  0
    3.0206   -1.8606    0.0000 C   0  0  0  0  0  0  0  0  0  0  0  0
    3.7351   -2.2731    0.0000 C   0  0  0  0  0  0  0  0  0  0  0  0
    4.4495   -1.8606    0.0000 C   0  0  0  0  0  0  0  0  0  0  0  0
    4.4495   -1.0356    0.0000 C   0  0  0  0  0  0  0  0  0  0  0  0
    3.7351   -0.6231    0.0000 C   0  0  0  0  0  0  0  0  0  0  0  0
    3.0206   -1.0356    0.0000 C   0  0  0  0  0  0  0  0  0  0  0  0
    2.3061   -0.6231    0.0000 C   0  0  0  0  0  0  0  0  0  0  0  0
    2.3061    0.2019    0.0000 O   0  0  0  0  0  0  0  0  0  0  0  0
    1.5916   -1.0356    0.0000 C   0  0  0  0  0  0  0  0  0  0  0  0
    0.8772   -0.6231    0.0000 C   0  0  0  0  0  0  0  0  0  0  0  0
    0.1627   -1.0356    0.0000 C   0  0  0  0  0  0  0  0  0  0  0  0
    0.1627   -1.8606    0.0000 C   0  0  0  0  0  0  0  0  0  0  0  0
    0.8772   -2.2731    0.0000 C   0  0  0  0  0  0  0  0  0  0  0  0
    0.8772   -3.0981    0.0000 Cl  0  0  0  0  0  0  0  0  0  0  0  0
  2  1  1  0  0  0  0
  2  3  2  0  0  0  0
  4  2  1  0  0  0  0
  4  5  1  0  0  0  0
  5  6  2  0  0  0  0
  6  7  1  0  0  0  0
  7  8  2  0  0  0  0
  8  9  1  0  0  0  0
  9  4  2  0  0  0  0
 10  9  1  0  0  0  0
 10 11  2  0  0  0  0
 12 10  1  0  0  0  0
 12  1  1  0  0  0  0
 13 12  2  0  0  0  0
 14 13  1  0  0  0  0
 15 14  2  0  0  0  0
 16 15  1  0  0  0  0
  1 16  2  0  0  0  0
 16 17  1  0  0  0  0
M  END
> <ChemID>
100047

> <CAS>
82-44-0

> <Original_SMILES>
O=C1c2cccc(Cl)c2C(=O)c2ccccc12

> <preferred_name>
1-Chloroanthraquinone

> <dsstox_substance_id>
DTXSID7052571

> <dsstox_compound_id>
DTXCID4031144

> <qc_level>
DSSTox_Low

> <Canonical_QSARr>
O=C1C2=CC=CC(Cl)=C2C(=O)C2C=CC=CC1=2

> <InChI_Code_QSARr>
InChI=1S/C14H7ClO2/c15-11-7-3-6-10-12(11)14(17)9-5-2-1-4-8(9)13(10)16/h1-7H

> <InChI Key_QSARr>
BOCJQSFSGAZAPQ-UHFFFAOYSA-N

> <Salt_Solvent>


> <Salt_Solvent_ID>
0

> <MPID>
101683

> <LogKmHL>
-0.23

> <Tr_1_Tst_0>
1

$$$$
100048
  Mrv171c012251910542D          

 17 19  0  0  0  0            999 V2000
    1.5916   -1.8606    0.0000 C   0  0  0  0  0  0  0  0  0  0  0  0
    2.3061   -2.2731    0.0000 C   0  0  0  0  0  0  0  0  0  0  0  0
    2.3061   -3.0981    0.0000 O   0  0  0  0  0  0  0  0  0  0  0  0
    3.0206   -1.8606    0.0000 C   0  0  0  0  0  0  0  0  0  0  0  0
    3.7351   -2.2731    0.0000 C   0  0  0  0  0  0  0  0  0  0  0  0
    4.4495   -1.8606    0.0000 C   0  0  0  0  0  0  0  0  0  0  0  0
    4.4495   -1.0356    0.0000 C   0  0  0  0  0  0  0  0  0  0  0  0
    3.7351   -0.6231    0.0000 C   0  0  0  0  0  0  0  0  0  0  0  0
    3.0206   -1.0356    0.0000 C   0  0  0  0  0  0  0  0  0  0  0  0
    2.3061   -0.6231    0.0000 C   0  0  0  0  0  0  0  0  0  0  0  0
    2.3061    0.2019    0.0000 O   0  0  0  0  0  0  0  0  0  0  0  0
    1.5916   -1.0356    0.0000 C   0  0  0  0  0  0  0  0  0  0  0  0
    0.8772   -0.6231    0.0000 C   0  0  0  0  0  0  0  0  0  0  0  0
    0.1627   -1.0356    0.0000 C   0  0  0  0  0  0  0  0  0  0  0  0
    0.1627   -1.8606    0.0000 C   0  0  0  0  0  0  0  0  0  0  0  0
    0.8772   -2.2731    0.0000 C   0  0  0  0  0  0  0  0  0  0  0  0
    0.8772   -3.0981    0.0000 N   0  0  0  0  0  0  0  0  0  0  0  0
  2  1  1  0  0  0  0
  2  3  2  0  0  0  0
  4  2  1  0  0  0  0
  4  5  1  0  0  0  0
  5  6  2  0  0  0  0
  6  7  1  0  0  0  0
  7  8  2  0  0  0  0
  8  9  1  0  0  0  0
  9  4  2  0  0  0  0
 10  9  1  0  0  0  0
 10 11  2  0  0  0  0
 12 10  1  0  0  0  0
 12  1  1  0  0  0  0
 13 12  2  0  0  0  0
 14 13  1  0  0  0  0
 15 14  2  0  0  0  0
 16 15  1  0  0  0  0
  1 16  2  0  0  0  0
 16 17  1  0  0  0  0
M  END
> <ChemID>
100048

> <CAS>
82-45-1

> <Original_SMILES>
Nc1cccc2c1C(=O)c1ccccc1C2=O

> <preferred_name>
1-Aminoanthraquinone

> <dsstox_substance_id>
DTXSID2052572

> <dsstox_compound_id>
DTXCID9031145

> <qc_level>
DSSTox_Low

> <Canonical_QSARr>
NC1C=CC=C2C=1C(=O)C1C=CC=CC=1C2=O

> <InChI_Code_QSARr>
InChI=1S/C14H9NO2/c15-11-7-3-6-10-12(11)14(17)9-5-2-1-4-8(9)13(10)16/h1-7H,15H2

> <InChI Key_QSARr>
KHUFHLFHOQVFGB-UHFFFAOYSA-N

> <Salt_Solvent>


> <Salt_Solvent_ID>
0

> <MPID>
101684

> <LogKmHL>
-0.59

> <Tr_1_Tst_0>
1

$$$$
100049
  Mrv171c012251910542D          

 14 14  0  0  0  0            999 V2000
    2.9381   -0.4551    0.0000 Cl  0  0  0  0  0  0  0  0  0  0  0  0
    2.2237   -0.8676    0.0000 C   0  0  0  0  0  0  0  0  0  0  0  0
    1.5092   -0.4551    0.0000 C   0  0  0  0  0  0  0  0  0  0  0  0
    1.5092    0.3699    0.0000 Cl  0  0  0  0  0  0  0  0  0  0  0  0
    0.7947   -0.8676    0.0000 C   0  0  0  0  0  0  0  0  0  0  0  0
    0.0802   -0.4551    0.0000 Cl  0  0  0  0  0  0  0  0  0  0  0  0
    0.7947   -1.6926    0.0000 C   0  0  0  0  0  0  0  0  0  0  0  0
    0.0802   -2.1051    0.0000 Cl  0  0  0  0  0  0  0  0  0  0  0  0
    1.5092   -2.1051    0.0000 C   0  0  0  0  0  0  0  0  0  0  0  0
    1.5092   -2.9301    0.0000 Cl  0  0  0  0  0  0  0  0  0  0  0  0
    2.2237   -1.6926    0.0000 C   0  0  0  0  0  0  0  0  0  0  0  0
    2.9381   -2.1051    0.0000 N   0  3  0  0  0  0  0  0  0  0  0  0
    3.6526   -1.6926    0.0000 O   0  5  0  0  0  0  0  0  0  0  0  0
    2.9381   -2.9301    0.0000 O   0  0  0  0  0  0  0  0  0  0  0  0
  1  2  1  0  0  0  0
  3  2  1  0  0  0  0
  3  4  1  0  0  0  0
  5  3  2  0  0  0  0
  5  6  1  0  0  0  0
  7  5  1  0  0  0  0
  7  8  1  0  0  0  0
  9  7  2  0  0  0  0
  9 10  1  0  0  0  0
 11  9  1  0  0  0  0
  2 11  2  0  0  0  0
 11 12  1  0  0  0  0
 12 13  1  0  0  0  0
 12 14  2  0  0  0  0
M  CHG  2  12   1  13  -1
M  END
> <ChemID>
100049

> <CAS>
82-68-8

> <Original_SMILES>
[O-][N+](=O)c1c(Cl)c(Cl)c(Cl)c(Cl)c1Cl

> <preferred_name>
Pentachloronitrobenzene

> <dsstox_substance_id>
DTXSID2021105

> <dsstox_compound_id>
DTXCID301105

> <qc_level>
DSSTox_Low

> <Canonical_QSARr>
[O-][N+](=O)C1C(Cl)=C(Cl)C(Cl)=C(Cl)C=1Cl

> <InChI_Code_QSARr>
InChI=1S/C6Cl5NO2/c7-1-2(8)4(10)6(12(13)14)5(11)3(1)9

> <InChI Key_QSARr>
LKPLKUMXSAEKID-UHFFFAOYSA-N

> <Salt_Solvent>


> <Salt_Solvent_ID>
0

> <MPID>
101685

> <LogKmHL>
-0.17

> <Tr_1_Tst_0>
1

$$$$
100050
  Mrv171c012251910542D          

 29 33  0  0  0  0            999 V2000
    2.9717   -3.4404    0.0000 C   0  0  0  0  0  0  0  0  0  0  0  0
    3.3950   -4.1485    0.0000 O   0  0  0  0  0  0  0  0  0  0  0  0
    4.2199   -4.1360    0.0000 C   0  0  0  0  0  0  0  0  0  0  0  0
    4.6432   -4.8441    0.0000 C   0  0  0  0  0  0  0  0  0  0  0  0
    5.4681   -4.8316    0.0000 O   0  0  0  0  0  0  0  0  0  0  0  0
    5.8697   -4.1109    0.0000 C   0  0  0  0  0  0  0  0  0  0  0  0
    6.6946   -4.0983    0.0000 C   0  0  0  0  0  0  0  0  0  0  0  0
    7.0962   -3.3777    0.0000 C   0  0  0  0  0  0  0  0  0  0  0  0
    7.9211   -3.3651    0.0000 O   0  0  0  0  0  0  0  0  0  0  0  0
    8.3227   -2.6445    0.0000 C   0  0  0  0  0  0  0  0  0  0  0  0
    6.6729   -2.6696    0.0000 C   0  0  0  0  0  0  0  0  0  0  0  0
    7.0745   -1.9489    0.0000 O   0  0  0  0  0  0  0  0  0  0  0  0
    6.6512   -1.2408    0.0000 C   0  0  0  0  0  0  0  0  0  0  0  0
    5.8480   -2.6821    0.0000 C   0  0  0  0  0  0  0  0  0  0  0  0
    5.4464   -3.4028    0.0000 C   0  0  0  0  0  0  0  0  0  0  0  0
    4.6215   -3.4153    0.0000 C   0  0  0  0  0  0  0  0  0  0  0  0
    4.1982   -2.7072    0.0000 C   0  0  0  0  0  0  0  0  0  0  0  0
    4.5998   -1.9865    0.0000 O   0  0  0  0  0  0  0  0  0  0  0  0
    3.3733   -2.7198    0.0000 C   0  0  0  0  0  0  0  0  0  0  0  0
    2.9500   -2.0116    0.0000 C   0  0  0  0  0  0  0  0  0  0  0  0
    2.1251   -2.0242    0.0000 C   0  0  0  0  0  0  0  0  0  0  0  0
    1.7235   -2.7448    0.0000 C   0  0  0  0  0  0  0  0  0  0  0  0
    0.9192   -2.9286    0.0000 O   0  0  0  0  0  0  0  0  0  0  0  0
    0.8455   -3.7503    0.0000 C   0  0  0  0  0  0  0  0  0  0  0  0
    0.1373   -4.1736    0.0000 C   0  0  0  0  0  0  0  0  0  0  0  0
    0.1499   -4.9985    0.0000 C   0  0  0  0  0  0  0  0  0  0  0  0
   -0.5833   -3.7721    0.0000 C   0  0  0  0  0  0  0  0  0  0  0  0
    1.6041   -4.0744    0.0000 C   0  0  0  0  0  0  0  0  0  0  0  0
    2.1468   -3.4530    0.0000 C   0  0  0  0  0  0  0  0  0  0  0  0
  2  1  1  0  0  0  0
  3  2  1  0  0  0  0
  3  4  1  0  0  0  0
  4  5  1  0  0  0  0
  5  6  1  0  0  0  0
  7  6  1  0  0  0  0
  8  7  2  0  0  0  0
  8  9  1  0  0  0  0
  9 10  1  0  0  0  0
 11  8  1  0  0  0  0
 11 12  1  0  0  0  0
 12 13  1  0  0  0  0
 14 11  2  0  0  0  0
 15 14  1  0  0  0  0
  6 15  2  0  0  0  0
 15 16  1  0  0  0  0
 16  3  1  0  0  0  0
 17 16  1  0  0  0  0
 17 18  2  0  0  0  0
 19 17  1  0  0  0  0
 19  1  2  0  0  0  0
 20 19  1  0  0  0  0
 21 20  2  0  0  0  0
 22 21  1  0  0  0  0
 22 23  1  0  0  0  0
 23 24  1  0  0  0  0
 24 25  1  0  0  0  0
 25 26  1  0  0  0  0
 25 27  2  0  0  0  0
 24 28  1  0  0  0  0
 28 29  1  0  0  0  0
  1 29  1  0  0  0  0
 29 22  2  0  0  0  0
M  END
> <ChemID>
100050

> <CAS>
83-79-4

> <Original_SMILES>
CC(=C)[C@H]1Cc2c3O[C@@H]4COc5cc(OC)c(cc5[C@@H]4C(=O)c3ccc2O1)OC

> <preferred_name>
Rotenone

> <dsstox_substance_id>
DTXSID6021248

> <dsstox_compound_id>
DTXCID901248

> <qc_level>
DSSTox_Low

> <Canonical_QSARr>
CC(=C)C1CC2C3OC4COC5C=C(OC)C(=CC=5C4C(=O)C=3C=CC=2O1)OC

> <InChI_Code_QSARr>
InChI=1S/C23H22O6/c1-11(2)16-8-14-15(28-16)6-5-12-22(24)21-13-7-18(25-3)19(26-4)9-17(13)27-10-20(21)29-23(12)14/h5-7,9,16,20-21H,1,8,10H2,2-4H3

> <InChI Key_QSARr>
JUVIOZPCNVVQFO-UHFFFAOYSA-N

> <Salt_Solvent>


> <Salt_Solvent_ID>
0

> <MPID>
101686

> <LogKmHL>
-0.59

> <Tr_1_Tst_0>
0

$$$$
100051
  Mrv171c012251910542D          

 18 20  0  0  0  0            999 V2000
    2.8624   -1.6577    0.0000 C   0  0  0  0  0  0  0  0  0  0  0  0
    2.8624   -2.4827    0.0000 C   0  0  0  0  0  0  0  0  0  0  0  0
    2.1479   -2.8952    0.0000 C   0  0  0  0  0  0  0  0  0  0  0  0
    2.1479   -3.7202    0.0000 C   0  0  0  0  0  0  0  0  0  0  0  0
    2.8624   -4.1327    0.0000 C   0  0  0  0  0  0  0  0  0  0  0  0
    3.5769   -3.7202    0.0000 C   0  0  0  0  0  0  0  0  0  0  0  0
    3.5769   -2.8952    0.0000 C   0  0  0  0  0  0  0  0  0  0  0  0
    3.5769   -1.2452    0.0000 C   0  0  0  0  0  0  0  0  0  0  0  0
    3.5769   -0.4202    0.0000 C   0  0  0  0  0  0  0  0  0  0  0  0
    2.8624   -0.0077    0.0000 C   0  0  0  0  0  0  0  0  0  0  0  0
    2.1479   -0.4202    0.0000 C   0  0  0  0  0  0  0  0  0  0  0  0
    2.1479   -1.2452    0.0000 C   0  0  0  0  0  0  0  0  0  0  0  0
    1.4335   -1.6577    0.0000 C   0  0  0  0  0  0  0  0  0  0  0  0
    0.7190   -1.2452    0.0000 C   0  0  0  0  0  0  0  0  0  0  0  0
    0.0045   -1.6577    0.0000 C   0  0  0  0  0  0  0  0  0  0  0  0
    0.0045   -2.4827    0.0000 C   0  0  0  0  0  0  0  0  0  0  0  0
    0.7190   -2.8952    0.0000 C   0  0  0  0  0  0  0  0  0  0  0  0
    1.4335   -2.4827    0.0000 C   0  0  0  0  0  0  0  0  0  0  0  0
  1  2  1  0  0  0  0
  3  2  2  0  0  0  0
  4  3  1  0  0  0  0
  5  4  2  0  0  0  0
  6  5  1  0  0  0  0
  7  6  2  0  0  0  0
  2  7  1  0  0  0  0
  8  1  2  0  0  0  0
  9  8  1  0  0  0  0
 10  9  2  0  0  0  0
 11 10  1  0  0  0  0
 12 11  2  0  0  0  0
  1 12  1  0  0  0  0
 12 13  1  0  0  0  0
 14 13  2  0  0  0  0
 15 14  1  0  0  0  0
 16 15  2  0  0  0  0
 17 16  1  0  0  0  0
 18 17  2  0  0  0  0
 13 18  1  0  0  0  0
M  END
> <ChemID>
100051

> <CAS>
84-15-1

> <Original_SMILES>
c1ccccc1-c1ccccc1-c1ccccc1

> <preferred_name>
o-Terphenyl

> <dsstox_substance_id>
DTXSID1049697

> <dsstox_compound_id>
DTXCID8029656

> <qc_level>
DSSTox_Low

> <Canonical_QSARr>
C1=CC=CC=C1C1=CC=CC=C1C1C=CC=CC=1

> <InChI_Code_QSARr>
InChI=1S/C18H14/c1-3-9-15(10-4-1)17-13-7-8-14-18(17)16-11-5-2-6-12-16/h1-14H

> <InChI Key_QSARr>
OIAQMFOKAXHPNH-UHFFFAOYSA-N

> <Salt_Solvent>


> <Salt_Solvent_ID>
0

> <MPID>
101687

> <LogKmHL>
0.86

> <Tr_1_Tst_0>
1

$$$$
100052
  Mrv171c012251910542D          

 20 20  0  0  0  0            999 V2000
    1.5288   -1.6880    0.0000 C   0  0  0  0  0  0  0  0  0  0  0  0
    1.5288   -2.5130    0.0000 C   0  0  0  0  0  0  0  0  0  0  0  0
    2.2433   -2.9255    0.0000 C   0  0  0  0  0  0  0  0  0  0  0  0
    2.2433   -3.7505    0.0000 C   0  0  0  0  0  0  0  0  0  0  0  0
    1.5288   -4.1630    0.0000 O   0  0  0  0  0  0  0  0  0  0  0  0
    1.5288   -4.9880    0.0000 C   0  0  0  0  0  0  0  0  0  0  0  0
    0.8144   -5.4005    0.0000 C   0  0  0  0  0  0  0  0  0  0  0  0
    0.8144   -6.2255    0.0000 C   0  0  0  0  0  0  0  0  0  0  0  0
    0.0999   -6.6380    0.0000 C   0  0  0  0  0  0  0  0  0  0  0  0
    2.9578   -4.1630    0.0000 O   0  0  0  0  0  0  0  0  0  0  0  0
    2.9578   -2.5130    0.0000 C   0  0  0  0  0  0  0  0  0  0  0  0
    3.6723   -2.9255    0.0000 C   0  0  0  0  0  0  0  0  0  0  0  0
    4.3867   -2.5130    0.0000 O   0  0  0  0  0  0  0  0  0  0  0  0
    5.1012   -2.9255    0.0000 C   0  0  0  0  0  0  0  0  0  0  0  0
    5.8157   -2.5130    0.0000 C   0  0  0  0  0  0  0  0  0  0  0  0
    6.5301   -2.9255    0.0000 C   0  0  0  0  0  0  0  0  0  0  0  0
    7.2446   -2.5130    0.0000 C   0  0  0  0  0  0  0  0  0  0  0  0
    3.6723   -3.7505    0.0000 O   0  0  0  0  0  0  0  0  0  0  0  0
    2.9578   -1.6880    0.0000 C   0  0  0  0  0  0  0  0  0  0  0  0
    2.2433   -1.2755    0.0000 C   0  0  0  0  0  0  0  0  0  0  0  0
  2  1  1  0  0  0  0
  3  2  2  0  0  0  0
  3  4  1  0  0  0  0
  4  5  1  0  0  0  0
  5  6  1  0  0  0  0
  6  7  1  0  0  0  0
  7  8  1  0  0  0  0
  8  9  1  0  0  0  0
  4 10  2  0  0  0  0
 11  3  1  0  0  0  0
 11 12  1  0  0  0  0
 12 13  1  0  0  0  0
 13 14  1  0  0  0  0
 14 15  1  0  0  0  0
 15 16  1  0  0  0  0
 16 17  1  0  0  0  0
 12 18  2  0  0  0  0
 19 11  2  0  0  0  0
 20 19  1  0  0  0  0
  1 20  2  0  0  0  0
M  END
> <ChemID>
100052

> <CAS>
84-74-2

> <Original_SMILES>
CCCCOC(=O)c1ccccc1C(=O)OCCCC

> <preferred_name>
Dibutyl phthalate

> <dsstox_substance_id>
DTXSID2021781

> <dsstox_compound_id>
DTXCID301781

> <qc_level>
DSSTox_High

> <Canonical_QSARr>
CCCCOC(=O)C1=CC=CC=C1C(=O)OCCCC

> <InChI_Code_QSARr>
InChI=1S/C16H22O4/c1-3-5-11-19-15(17)13-9-7-8-10-14(13)16(18)20-12-6-4-2/h7-10H,3-6,11-12H2,1-2H3

> <InChI Key_QSARr>
DOIRQSBPFJWKBE-UHFFFAOYSA-N

> <Salt_Solvent>


> <Salt_Solvent_ID>
0

> <MPID>
101688

> <LogKmHL>
-0.4

> <Tr_1_Tst_0>
1

$$$$
100053
  Mrv171c012251910542D          

 14 16  0  0  0  0            999 V2000
    2.2977   -1.4199    0.0000 C   0  0  0  0  0  0  0  0  0  0  0  0
    2.7102   -0.7054    0.0000 C   0  0  0  0  0  0  0  0  0  0  0  0
    3.5352   -0.7054    0.0000 C   0  0  0  0  0  0  0  0  0  0  0  0
    3.9477   -1.4199    0.0000 C   0  0  0  0  0  0  0  0  0  0  0  0
    3.5352   -2.1344    0.0000 C   0  0  0  0  0  0  0  0  0  0  0  0
    2.7102   -2.1344    0.0000 C   0  0  0  0  0  0  0  0  0  0  0  0
    2.2977   -2.8488    0.0000 C   0  0  0  0  0  0  0  0  0  0  0  0
    1.4727   -2.8488    0.0000 C   0  0  0  0  0  0  0  0  0  0  0  0
    1.0602   -2.1344    0.0000 C   0  0  0  0  0  0  0  0  0  0  0  0
    0.2352   -2.1344    0.0000 C   0  0  0  0  0  0  0  0  0  0  0  0
   -0.1773   -1.4199    0.0000 C   0  0  0  0  0  0  0  0  0  0  0  0
    0.2352   -0.7054    0.0000 C   0  0  0  0  0  0  0  0  0  0  0  0
    1.0602   -0.7054    0.0000 C   0  0  0  0  0  0  0  0  0  0  0  0
    1.4727   -1.4199    0.0000 C   0  0  0  0  0  0  0  0  0  0  0  0
  2  1  1  0  0  0  0
  3  2  2  0  0  0  0
  4  3  1  0  0  0  0
  5  4  2  0  0  0  0
  6  5  1  0  0  0  0
  6  1  2  0  0  0  0
  7  6  1  0  0  0  0
  8  7  2  0  0  0  0
  9  8  1  0  0  0  0
  9 10  1  0  0  0  0
 10 11  2  0  0  0  0
 11 12  1  0  0  0  0
 12 13  2  0  0  0  0
 13 14  1  0  0  0  0
  1 14  1  0  0  0  0
 14  9  2  0  0  0  0
M  END
> <ChemID>
100053

> <CAS>
85-01-8

> <Original_SMILES>
c1cc2ccccc2c2ccccc21

> <preferred_name>
Phenanthrene

> <dsstox_substance_id>
DTXSID6024254

> <dsstox_compound_id>
DTXCID904254

> <qc_level>
DSSTox_Low

> <Canonical_QSARr>
C1=CC2C=CC=CC=2C2C=CC=CC=21

> <InChI_Code_QSARr>
InChI=1S/C14H10/c1-3-7-13-11(5-1)9-10-12-6-2-4-8-14(12)13/h1-10H

> <InChI Key_QSARr>
YNPNZTXNASCQKK-UHFFFAOYSA-N

> <Salt_Solvent>


> <Salt_Solvent_ID>
0

> <MPID>
101689

> <LogKmHL>
0.7

> <Tr_1_Tst_0>
1

$$$$
100054
  Mrv171c012251910542D          

 13 13  0  0  0  0            999 V2000
    3.8841   -0.9957    0.0000 C   0  0  0  0  0  0  0  0  0  0  0  0
    3.1696   -0.5832    0.0000 C   0  0  0  0  0  0  0  0  0  0  0  0
    2.4552   -0.9957    0.0000 C   0  0  0  0  0  0  0  0  0  0  0  0
    1.7407   -0.5832    0.0000 C   0  0  0  0  0  0  0  0  0  0  0  0
    1.7407    0.2418    0.0000 Br  0  0  0  0  0  0  0  0  0  0  0  0
    1.0262   -0.9957    0.0000 C   0  0  0  0  0  0  0  0  0  0  0  0
    0.3118   -0.5832    0.0000 Br  0  0  0  0  0  0  0  0  0  0  0  0
    1.0262   -1.8207    0.0000 C   0  0  0  0  0  0  0  0  0  0  0  0
    0.3118   -2.2332    0.0000 Br  0  0  0  0  0  0  0  0  0  0  0  0
    1.7407   -2.2332    0.0000 C   0  0  0  0  0  0  0  0  0  0  0  0
    1.7407   -3.0582    0.0000 Br  0  0  0  0  0  0  0  0  0  0  0  0
    2.4552   -1.8207    0.0000 C   0  0  0  0  0  0  0  0  0  0  0  0
    3.1696   -2.2332    0.0000 Br  0  0  0  0  0  0  0  0  0  0  0  0
  1  2  1  0  0  0  0
  2  3  1  0  0  0  0
  4  3  1  0  0  0  0
  4  5  1  0  0  0  0
  6  4  2  0  0  0  0
  6  7  1  0  0  0  0
  8  6  1  0  0  0  0
  8  9  1  0  0  0  0
 10  8  2  0  0  0  0
 10 11  1  0  0  0  0
 12 10  1  0  0  0  0
  3 12  2  0  0  0  0
 12 13  1  0  0  0  0
M  END
> <ChemID>
100054

> <CAS>
85-22-3

> <Original_SMILES>
CCc1c(Br)c(Br)c(Br)c(Br)c1Br

> <preferred_name>
2,3,4,5,6-Pentabromoethylbenzene

> <dsstox_substance_id>
DTXSID7021782

> <dsstox_compound_id>
DTXCID701782

> <qc_level>
DSSTox_Low

> <Canonical_QSARr>
CCC1C(Br)=C(Br)C(Br)=C(Br)C=1Br

> <InChI_Code_QSARr>
InChI=1S/C8H5Br5/c1-2-3-4(9)6(11)8(13)7(12)5(3)10/h2H2,1H3

> <InChI Key_QSARr>
FIAXCDIQXHJNIX-UHFFFAOYSA-N

> <Salt_Solvent>


> <Salt_Solvent_ID>
0

> <MPID>
101690

> <LogKmHL>
0.02

> <Tr_1_Tst_0>
0

$$$$
100055
  Mrv171c012251910542D          

 23 24  0  0  0  0            999 V2000
    3.1013   -1.5538    0.0000 C   0  0  0  0  0  0  0  0  0  0  0  0
    3.1013   -0.7288    0.0000 C   0  0  0  0  0  0  0  0  0  0  0  0
    2.3868   -0.3163    0.0000 C   0  0  0  0  0  0  0  0  0  0  0  0
    1.6723   -0.7288    0.0000 C   0  0  0  0  0  0  0  0  0  0  0  0
    1.6723   -1.5538    0.0000 C   0  0  0  0  0  0  0  0  0  0  0  0
    2.3868   -1.9663    0.0000 C   0  0  0  0  0  0  0  0  0  0  0  0
    2.3868   -2.7913    0.0000 C   0  0  0  0  0  0  0  0  0  0  0  0
    3.1013   -3.2038    0.0000 O   0  0  0  0  0  0  0  0  0  0  0  0
    1.6723   -3.2038    0.0000 O   0  0  0  0  0  0  0  0  0  0  0  0
    1.6723   -4.0288    0.0000 C   0  0  0  0  0  0  0  0  0  0  0  0
    0.9579   -4.4413    0.0000 C   0  0  0  0  0  0  0  0  0  0  0  0
    0.2434   -4.0288    0.0000 C   0  0  0  0  0  0  0  0  0  0  0  0
   -0.4711   -4.4413    0.0000 C   0  0  0  0  0  0  0  0  0  0  0  0
   -0.4711   -5.2663    0.0000 C   0  0  0  0  0  0  0  0  0  0  0  0
    0.2434   -5.6788    0.0000 C   0  0  0  0  0  0  0  0  0  0  0  0
    0.9579   -5.2663    0.0000 C   0  0  0  0  0  0  0  0  0  0  0  0
    3.8158   -1.9663    0.0000 C   0  0  0  0  0  0  0  0  0  0  0  0
    3.8158   -2.7913    0.0000 O   0  0  0  0  0  0  0  0  0  0  0  0
    4.5302   -1.5538    0.0000 O   0  0  0  0  0  0  0  0  0  0  0  0
    5.2447   -1.9663    0.0000 C   0  0  0  0  0  0  0  0  0  0  0  0
    5.9592   -1.5538    0.0000 C   0  0  0  0  0  0  0  0  0  0  0  0
    6.6736   -1.9663    0.0000 C   0  0  0  0  0  0  0  0  0  0  0  0
    7.3881   -1.5538    0.0000 C   0  0  0  0  0  0  0  0  0  0  0  0
  2  1  1  0  0  0  0
  3  2  2  0  0  0  0
  4  3  1  0  0  0  0
  5  4  2  0  0  0  0
  6  5  1  0  0  0  0
  1  6  2  0  0  0  0
  6  7  1  0  0  0  0
  7  8  2  0  0  0  0
  7  9  1  0  0  0  0
  9 10  1  0  0  0  0
 10 11  1  0  0  0  0
 12 11  2  0  0  0  0
 13 12  1  0  0  0  0
 14 13  2  0  0  0  0
 15 14  1  0  0  0  0
 16 15  2  0  0  0  0
 11 16  1  0  0  0  0
  1 17  1  0  0  0  0
 17 18  2  0  0  0  0
 17 19  1  0  0  0  0
 19 20  1  0  0  0  0
 20 21  1  0  0  0  0
 21 22  1  0  0  0  0
 22 23  1  0  0  0  0
M  END
> <ChemID>
100055

> <CAS>
85-68-7

> <Original_SMILES>
CCCCOC(=O)c1ccccc1C(=O)OCc1ccccc1

> <preferred_name>
Butyl benzyl phthalate

> <dsstox_substance_id>
DTXSID3020205

> <dsstox_compound_id>
DTXCID70205

> <qc_level>
DSSTox_Low

> <Canonical_QSARr>
CCCCOC(=O)C1C=CC=CC=1C(=O)OCC1C=CC=CC=1

> <InChI_Code_QSARr>
InChI=1S/C19H20O4/c1-2-3-13-22-18(20)16-11-7-8-12-17(16)19(21)23-14-15-9-5-4-6-10-15/h4-12H,2-3,13-14H2,1H3

> <InChI Key_QSARr>
IRIAEXORFWYRCZ-UHFFFAOYSA-N

> <Salt_Solvent>


> <Salt_Solvent_ID>
0

> <MPID>
101691

> <LogKmHL>
-1.03

> <Tr_1_Tst_0>
1

$$$$
100056
  Mrv171c012251910542D          

 15 16  0  0  0  0            999 V2000
    0.6753   -0.2112    0.0000 O   0  0  0  0  0  0  0  0  0  0  0  0
    0.6753   -1.0362    0.0000 N   0  0  0  0  0  0  0  0  0  0  0  0
    1.3898   -1.4487    0.0000 N   0  0  0  0  0  0  0  0  0  0  0  0
    1.3898   -2.2737    0.0000 C   0  0  0  0  0  0  0  0  0  0  0  0
    0.6753   -2.6862    0.0000 C   0  0  0  0  0  0  0  0  0  0  0  0
    0.6753   -3.5112    0.0000 C   0  0  0  0  0  0  0  0  0  0  0  0
    1.3898   -3.9237    0.0000 C   0  0  0  0  0  0  0  0  0  0  0  0
    2.1043   -3.5112    0.0000 C   0  0  0  0  0  0  0  0  0  0  0  0
    2.1043   -2.6862    0.0000 C   0  0  0  0  0  0  0  0  0  0  0  0
    2.1043   -1.0362    0.0000 C   0  0  0  0  0  0  0  0  0  0  0  0
    2.8188   -1.4487    0.0000 C   0  0  0  0  0  0  0  0  0  0  0  0
    3.5332   -1.0362    0.0000 C   0  0  0  0  0  0  0  0  0  0  0  0
    3.5332   -0.2112    0.0000 C   0  0  0  0  0  0  0  0  0  0  0  0
    2.8188    0.2013    0.0000 C   0  0  0  0  0  0  0  0  0  0  0  0
    2.1043   -0.2112    0.0000 C   0  0  0  0  0  0  0  0  0  0  0  0
  1  2  2  0  0  0  0
  2  3  1  0  0  0  0
  3  4  1  0  0  0  0
  5  4  1  0  0  0  0
  6  5  2  0  0  0  0
  7  6  1  0  0  0  0
  8  7  2  0  0  0  0
  9  8  1  0  0  0  0
  4  9  2  0  0  0  0
  3 10  1  0  0  0  0
 11 10  1  0  0  0  0
 12 11  2  0  0  0  0
 13 12  1  0  0  0  0
 14 13  2  0  0  0  0
 15 14  1  0  0  0  0
 10 15  2  0  0  0  0
M  END
> <ChemID>
100056

> <CAS>
86-30-6

> <Original_SMILES>
O=NN(c1ccccc1)c1ccccc1

> <preferred_name>
N-Nitrosodiphenylamine

> <dsstox_substance_id>
DTXSID6021030

> <dsstox_compound_id>
DTXCID001030

> <qc_level>
DSSTox_Low

> <Canonical_QSARr>
O=NN(C1C=CC=CC=1)C1C=CC=CC=1

> <InChI_Code_QSARr>
InChI=1S/C12H10N2O/c15-13-14(11-7-3-1-4-8-11)12-9-5-2-6-10-12/h1-10H

> <InChI Key_QSARr>
UBUCNCOMADRQHX-UHFFFAOYSA-N

> <Salt_Solvent>


> <Salt_Solvent_ID>
0

> <MPID>
101692

> <LogKmHL>
-0.91

> <Tr_1_Tst_0>
1

$$$$
100057
  Mrv171c012251910542D          

 13 15  0  0  0  0            999 V2000
    2.5498   -0.5036    0.0000 C   0  0  0  0  0  0  0  0  0  0  0  0
    3.1018    0.1095    0.0000 C   0  0  0  0  0  0  0  0  0  0  0  0
    3.9088   -0.0620    0.0000 C   0  0  0  0  0  0  0  0  0  0  0  0
    4.1637   -0.8466    0.0000 C   0  0  0  0  0  0  0  0  0  0  0  0
    3.6117   -1.4597    0.0000 C   0  0  0  0  0  0  0  0  0  0  0  0
    2.8047   -1.2882    0.0000 C   0  0  0  0  0  0  0  0  0  0  0  0
    2.1373   -1.7731    0.0000 C   0  0  0  0  0  0  0  0  0  0  0  0
    1.4699   -1.2882    0.0000 C   0  0  0  0  0  0  0  0  0  0  0  0
    0.6629   -1.4597    0.0000 C   0  0  0  0  0  0  0  0  0  0  0  0
    0.1109   -0.8466    0.0000 C   0  0  0  0  0  0  0  0  0  0  0  0
    0.3658   -0.0620    0.0000 C   0  0  0  0  0  0  0  0  0  0  0  0
    1.1728    0.1095    0.0000 C   0  0  0  0  0  0  0  0  0  0  0  0
    1.7248   -0.5036    0.0000 C   0  0  0  0  0  0  0  0  0  0  0  0
  2  1  1  0  0  0  0
  3  2  2  0  0  0  0
  4  3  1  0  0  0  0
  5  4  2  0  0  0  0
  6  5  1  0  0  0  0
  6  1  2  0  0  0  0
  7  6  1  0  0  0  0
  8  7  1  0  0  0  0
  8  9  1  0  0  0  0
  9 10  2  0  0  0  0
 10 11  1  0  0  0  0
 11 12  2  0  0  0  0
 12 13  1  0  0  0  0
  1 13  1  0  0  0  0
 13  8  2  0  0  0  0
M  END
> <ChemID>
100057

> <CAS>
86-73-7

> <Original_SMILES>
C1c2ccccc2-c2ccccc21

> <preferred_name>
Fluorene

> <dsstox_substance_id>
DTXSID8024105

> <dsstox_compound_id>
DTXCID604105

> <qc_level>
DSSTox_Low

> <Canonical_QSARr>
C1C2C=CC=CC=2C2C=CC=CC=21

> <InChI_Code_QSARr>
InChI=1S/C13H10/c1-3-7-12-10(5-1)9-11-6-2-4-8-13(11)12/h1-8H,9H2

> <InChI Key_QSARr>
NIHNNTQXNPWCJQ-UHFFFAOYSA-N

> <Salt_Solvent>


> <Salt_Solvent_ID>
0

> <MPID>
101693

> <LogKmHL>
0.7

> <Tr_1_Tst_0>
1

$$$$
100058
  Mrv171c012251910542D          

 13 15  0  0  0  0            999 V2000
    2.3777   -0.7362    0.0000 C   0  0  0  0  0  0  0  0  0  0  0  0
    2.9297   -0.1231    0.0000 C   0  0  0  0  0  0  0  0  0  0  0  0
    3.7367   -0.2946    0.0000 C   0  0  0  0  0  0  0  0  0  0  0  0
    3.9916   -1.0793    0.0000 C   0  0  0  0  0  0  0  0  0  0  0  0
    3.4396   -1.6924    0.0000 C   0  0  0  0  0  0  0  0  0  0  0  0
    2.6326   -1.5208    0.0000 C   0  0  0  0  0  0  0  0  0  0  0  0
    1.9652   -2.0058    0.0000 N   0  0  0  0  0  0  0  0  0  0  0  0
    1.2977   -1.5208    0.0000 C   0  0  0  0  0  0  0  0  0  0  0  0
    0.4908   -1.6924    0.0000 C   0  0  0  0  0  0  0  0  0  0  0  0
   -0.0613   -1.0793    0.0000 C   0  0  0  0  0  0  0  0  0  0  0  0
    0.1937   -0.2946    0.0000 C   0  0  0  0  0  0  0  0  0  0  0  0
    1.0007   -0.1231    0.0000 C   0  0  0  0  0  0  0  0  0  0  0  0
    1.5527   -0.7362    0.0000 C   0  0  0  0  0  0  0  0  0  0  0  0
  2  1  2  0  0  0  0
  3  2  1  0  0  0  0
  4  3  2  0  0  0  0
  5  4  1  0  0  0  0
  6  5  2  0  0  0  0
  6  1  1  0  0  0  0
  7  6  1  0  0  0  0
  8  7  1  0  0  0  0
  8  9  1  0  0  0  0
  9 10  2  0  0  0  0
 10 11  1  0  0  0  0
 11 12  2  0  0  0  0
 12 13  1  0  0  0  0
  1 13  1  0  0  0  0
 13  8  2  0  0  0  0
M  END
> <ChemID>
100058

> <CAS>
86-74-8

> <Original_SMILES>
c1cccc2[nH]c3ccccc3c21

> <preferred_name>
Carbazole

> <dsstox_substance_id>
DTXSID4020248

> <dsstox_compound_id>
DTXCID40248

> <qc_level>
DSSTox_High

> <Canonical_QSARr>
C1=CC=CC2NC3=CC=CC=C3C=21

> <InChI_Code_QSARr>
InChI=1S/C12H9N/c1-3-7-11-9(5-1)10-6-2-4-8-12(10)13-11/h1-8,13H

> <InChI Key_QSARr>
UJOBWOGCFQCDNV-UHFFFAOYSA-N

> <Salt_Solvent>


> <Salt_Solvent_ID>
0

> <MPID>
101694

> <LogKmHL>
0.06

> <Tr_1_Tst_0>
0

$$$$
100059
  Mrv171c012251910542D          

  9  9  0  0  0  0            999 V2000
    2.3959   -0.7881    0.0000 Cl  0  0  0  0  0  0  0  0  0  0  0  0
    1.6815   -1.2006    0.0000 C   0  0  0  0  0  0  0  0  0  0  0  0
    0.9670   -0.7881    0.0000 C   0  0  0  0  0  0  0  0  0  0  0  0
    0.9670    0.0369    0.0000 Cl  0  0  0  0  0  0  0  0  0  0  0  0
    0.2525   -1.2006    0.0000 C   0  0  0  0  0  0  0  0  0  0  0  0
    0.2525   -2.0256    0.0000 C   0  0  0  0  0  0  0  0  0  0  0  0
    0.9670   -2.4381    0.0000 C   0  0  0  0  0  0  0  0  0  0  0  0
    1.6815   -2.0256    0.0000 C   0  0  0  0  0  0  0  0  0  0  0  0
    2.3959   -2.4381    0.0000 Cl  0  0  0  0  0  0  0  0  0  0  0  0
  1  2  1  0  0  0  0
  3  2  1  0  0  0  0
  3  4  1  0  0  0  0
  5  3  2  0  0  0  0
  6  5  1  0  0  0  0
  7  6  2  0  0  0  0
  8  7  1  0  0  0  0
  2  8  2  0  0  0  0
  8  9  1  0  0  0  0
M  END
> <ChemID>
100059

> <CAS>
87-61-6

> <Original_SMILES>
Clc1c(Cl)cccc1Cl

> <preferred_name>
1,2,3-Trichlorobenzene

> <dsstox_substance_id>
DTXSID8026193

> <dsstox_compound_id>
DTXCID706193

> <qc_level>
DSSTox_High

> <Canonical_QSARr>
ClC1C=CC=C(Cl)C=1Cl

> <InChI_Code_QSARr>
InChI=1S/C6H3Cl3/c7-4-2-1-3-5(8)6(4)9/h1-3H

> <InChI Key_QSARr>
RELMFMZEBKVZJC-UHFFFAOYSA-N

> <Salt_Solvent>


> <Salt_Solvent_ID>
0

> <MPID>
101695

> <LogKmHL>
0.92

> <Tr_1_Tst_0>
1

$$$$
100060
  Mrv171c012251910542D          

 10  9  0  0  0  0            999 V2000
    3.1905   -1.1745    0.0000 Cl  0  0  0  0  0  0  0  0  0  0  0  0
    2.3655   -1.1745    0.0000 C   0  0  0  0  0  0  0  0  0  0  0  0
    1.9530   -0.4601    0.0000 C   0  0  0  0  0  0  0  0  0  0  0  0
    2.3655    0.2544    0.0000 Cl  0  0  0  0  0  0  0  0  0  0  0  0
    1.1280   -0.4601    0.0000 C   0  0  0  0  0  0  0  0  0  0  0  0
    0.7155   -1.1745    0.0000 Cl  0  0  0  0  0  0  0  0  0  0  0  0
    0.7155    0.2544    0.0000 Cl  0  0  0  0  0  0  0  0  0  0  0  0
    1.9530   -1.8890    0.0000 C   0  0  0  0  0  0  0  0  0  0  0  0
    2.3655   -2.6035    0.0000 Cl  0  0  0  0  0  0  0  0  0  0  0  0
    1.1280   -1.8890    0.0000 Cl  0  0  0  0  0  0  0  0  0  0  0  0
  1  2  1  0  0  0  0
  2  3  1  0  0  0  0
  3  4  1  0  0  0  0
  3  5  2  0  0  0  0
  5  6  1  0  0  0  0
  5  7  1  0  0  0  0
  2  8  2  0  0  0  0
  8  9  1  0  0  0  0
  8 10  1  0  0  0  0
M  END
> <ChemID>
100060

> <CAS>
87-68-3

> <Original_SMILES>
ClC(Cl)=C(Cl)C(Cl)=C(Cl)Cl

> <preferred_name>
Hexachloro-1,3-butadiene

> <dsstox_substance_id>
DTXSID7020683

> <dsstox_compound_id>
DTXCID10683

> <qc_level>
DSSTox_Low

> <Canonical_QSARr>
ClC(Cl)=C(Cl)C(Cl)=C(Cl)Cl

> <InChI_Code_QSARr>
InChI=1S/C4Cl6/c5-1(3(7)8)2(6)4(9)10

> <InChI Key_QSARr>
RWNKSTSCBHKHTB-UHFFFAOYSA-N

> <Salt_Solvent>


> <Salt_Solvent_ID>
0

> <MPID>
101696

> <LogKmHL>
2.07

> <Tr_1_Tst_0>
1

$$$$
100061
  Mrv171c012251910542D          

 12 12  0  0  0  0            999 V2000
    2.8589   -0.8238    0.0000 Br  0  0  0  0  0  0  0  0  0  0  0  0
    2.1444   -1.2363    0.0000 C   0  0  0  0  0  0  0  0  0  0  0  0
    1.4300   -0.8238    0.0000 C   0  0  0  0  0  0  0  0  0  0  0  0
    1.4300    0.0012    0.0000 Br  0  0  0  0  0  0  0  0  0  0  0  0
    0.7155   -1.2363    0.0000 C   0  0  0  0  0  0  0  0  0  0  0  0
    0.0010   -0.8238    0.0000 Br  0  0  0  0  0  0  0  0  0  0  0  0
    0.7155   -2.0613    0.0000 C   0  0  0  0  0  0  0  0  0  0  0  0
    0.0010   -2.4738    0.0000 Br  0  0  0  0  0  0  0  0  0  0  0  0
    1.4300   -2.4738    0.0000 C   0  0  0  0  0  0  0  0  0  0  0  0
    1.4300   -3.2988    0.0000 Br  0  0  0  0  0  0  0  0  0  0  0  0
    2.1444   -2.0613    0.0000 C   0  0  0  0  0  0  0  0  0  0  0  0
    2.8589   -2.4738    0.0000 Br  0  0  0  0  0  0  0  0  0  0  0  0
  1  2  1  0  0  0  0
  3  2  2  0  0  0  0
  3  4  1  0  0  0  0
  5  3  1  0  0  0  0
  5  6  1  0  0  0  0
  7  5  2  0  0  0  0
  7  8  1  0  0  0  0
  9  7  1  0  0  0  0
  9 10  1  0  0  0  0
 11  9  2  0  0  0  0
  2 11  1  0  0  0  0
 11 12  1  0  0  0  0
M  END
> <ChemID>
100061

> <CAS>
87-82-1

> <Original_SMILES>
Brc1c(Br)c(Br)c(Br)c(Br)c1Br

> <preferred_name>
Hexabromobenzene

> <dsstox_substance_id>
DTXSID1024128

> <dsstox_compound_id>
DTXCID404128

> <qc_level>
DSSTox_Low

> <Canonical_QSARr>
BrC1C(Br)=C(Br)C(Br)=C(Br)C=1Br

> <InChI_Code_QSARr>
InChI=1S/C6Br6/c7-1-2(8)4(10)6(12)5(11)3(1)9

> <InChI Key_QSARr>
CAYGQBVSOZLICD-UHFFFAOYSA-N

> <Salt_Solvent>


> <Salt_Solvent_ID>
0

> <MPID>
101697

> <LogKmHL>
0.43

> <Tr_1_Tst_0>
1

$$$$
100062
  Mrv171c012251910542D          

 12 12  0  0  0  0            999 V2000
    2.3645   -1.0164    0.0000 C   0  0  0  0  0  0  0  0  0  0  0  0
    3.0790   -0.6039    0.0000 C   0  0  0  0  0  0  0  0  0  0  0  0
    1.6500   -0.6039    0.0000 C   0  0  0  0  0  0  0  0  0  0  0  0
    1.6500    0.2211    0.0000 Br  0  0  0  0  0  0  0  0  0  0  0  0
    0.9355   -1.0164    0.0000 C   0  0  0  0  0  0  0  0  0  0  0  0
    0.2211   -0.6039    0.0000 Br  0  0  0  0  0  0  0  0  0  0  0  0
    0.9355   -1.8414    0.0000 C   0  0  0  0  0  0  0  0  0  0  0  0
    0.2211   -2.2539    0.0000 Br  0  0  0  0  0  0  0  0  0  0  0  0
    1.6500   -2.2539    0.0000 C   0  0  0  0  0  0  0  0  0  0  0  0
    1.6500   -3.0789    0.0000 Br  0  0  0  0  0  0  0  0  0  0  0  0
    2.3645   -1.8414    0.0000 C   0  0  0  0  0  0  0  0  0  0  0  0
    3.0790   -2.2539    0.0000 Br  0  0  0  0  0  0  0  0  0  0  0  0
  1  2  1  0  0  0  0
  3  1  1  0  0  0  0
  3  4  1  0  0  0  0
  5  3  2  0  0  0  0
  5  6  1  0  0  0  0
  7  5  1  0  0  0  0
  7  8  1  0  0  0  0
  9  7  2  0  0  0  0
  9 10  1  0  0  0  0
 11  9  1  0  0  0  0
  1 11  2  0  0  0  0
 11 12  1  0  0  0  0
M  END
> <ChemID>
100062

> <CAS>
87-83-2

> <Original_SMILES>
Cc1c(Br)c(Br)c(Br)c(Br)c1Br

> <preferred_name>
Pentabromotoluene

> <dsstox_substance_id>
DTXSID3025833

> <dsstox_compound_id>
DTXCID205833

> <qc_level>
DSSTox_Low

> <Canonical_QSARr>
CC1C(Br)=C(Br)C(Br)=C(Br)C=1Br

> <InChI_Code_QSARr>
InChI=1S/C7H3Br5/c1-2-3(8)5(10)7(12)6(11)4(2)9/h1H3

> <InChI Key_QSARr>
OZHJEQVYCBTHJT-UHFFFAOYSA-N

> <Salt_Solvent>


> <Salt_Solvent_ID>
0

> <MPID>
101698

> <LogKmHL>
-0.13

> <Tr_1_Tst_0>
0

$$$$
100063
  Mrv171c012251910542D          

 12 12  0  0  0  0            999 V2000
    3.0761   -0.6015    0.0000 Br  0  0  0  0  0  0  0  0  0  0  0  0
    2.3616   -1.0140    0.0000 C   0  0  0  0  0  0  0  0  0  0  0  0
    1.6472   -0.6015    0.0000 C   0  0  0  0  0  0  0  0  0  0  0  0
    1.6472    0.2235    0.0000 Br  0  0  0  0  0  0  0  0  0  0  0  0
    0.9327   -1.0140    0.0000 C   0  0  0  0  0  0  0  0  0  0  0  0
    0.2182   -0.6015    0.0000 Br  0  0  0  0  0  0  0  0  0  0  0  0
    0.9327   -1.8390    0.0000 C   0  0  0  0  0  0  0  0  0  0  0  0
    0.2182   -2.2515    0.0000 Cl  0  0  0  0  0  0  0  0  0  0  0  0
    1.6472   -2.2515    0.0000 C   0  0  0  0  0  0  0  0  0  0  0  0
    1.6472   -3.0765    0.0000 Br  0  0  0  0  0  0  0  0  0  0  0  0
    2.3616   -1.8390    0.0000 C   0  0  0  0  0  0  0  0  0  0  0  0
    3.0761   -2.2515    0.0000 Br  0  0  0  0  0  0  0  0  0  0  0  0
  1  2  1  0  0  0  0
  3  2  1  0  0  0  0
  3  4  1  0  0  0  0
  5  3  1  0  0  0  0
  5  6  1  0  0  0  0
  7  5  1  0  0  0  0
  7  8  1  0  0  0  0
  9  7  1  0  0  0  0
  9 10  1  0  0  0  0
 11  9  1  0  0  0  0
  2 11  1  0  0  0  0
 11 12  1  0  0  0  0
M  END
> <ChemID>
100063

> <CAS>
87-84-3

> <Original_SMILES>
ClC1C(Br)C(Br)C(Br)C(Br)C1Br

> <preferred_name>
Pentabromochlorocyclohexane

> <dsstox_substance_id>
DTXSID4025828

> <dsstox_compound_id>
DTXCID905828

> <qc_level>
DSSTox_Low

> <Canonical_QSARr>
ClC1C(Br)C(Br)C(Br)C(Br)C1Br

> <InChI_Code_QSARr>
InChI=1S/C6H6Br5Cl/c7-1-2(8)4(10)6(12)5(11)3(1)9/h1-6H

> <InChI Key_QSARr>
UZOSVZSBPTTWIG-UHFFFAOYSA-N

> <Salt_Solvent>


> <Salt_Solvent_ID>
0

> <MPID>
101699

> <LogKmHL>
-0.31

> <Tr_1_Tst_0>
1

$$$$
100064
  Mrv171c012251910542D          

 12 12  0  0  0  0            999 V2000
    3.0761   -0.6015    0.0000 O   0  0  0  0  0  0  0  0  0  0  0  0
    2.3616   -1.0140    0.0000 C   0  0  0  0  0  0  0  0  0  0  0  0
    1.6472   -0.6015    0.0000 C   0  0  0  0  0  0  0  0  0  0  0  0
    1.6472    0.2235    0.0000 Cl  0  0  0  0  0  0  0  0  0  0  0  0
    0.9327   -1.0140    0.0000 C   0  0  0  0  0  0  0  0  0  0  0  0
    0.2182   -0.6015    0.0000 Cl  0  0  0  0  0  0  0  0  0  0  0  0
    0.9327   -1.8390    0.0000 C   0  0  0  0  0  0  0  0  0  0  0  0
    0.2182   -2.2515    0.0000 Cl  0  0  0  0  0  0  0  0  0  0  0  0
    1.6472   -2.2515    0.0000 C   0  0  0  0  0  0  0  0  0  0  0  0
    1.6472   -3.0765    0.0000 Cl  0  0  0  0  0  0  0  0  0  0  0  0
    2.3616   -1.8390    0.0000 C   0  0  0  0  0  0  0  0  0  0  0  0
    3.0761   -2.2515    0.0000 Cl  0  0  0  0  0  0  0  0  0  0  0  0
  1  2  1  0  0  0  0
  3  2  1  0  0  0  0
  3  4  1  0  0  0  0
  5  3  2  0  0  0  0
  5  6  1  0  0  0  0
  7  5  1  0  0  0  0
  7  8  1  0  0  0  0
  9  7  2  0  0  0  0
  9 10  1  0  0  0  0
 11  9  1  0  0  0  0
  2 11  2  0  0  0  0
 11 12  1  0  0  0  0
M  END
> <ChemID>
100064

> <CAS>
87-86-5

> <Original_SMILES>
Oc1c(Cl)c(Cl)c(Cl)c(Cl)c1Cl

> <preferred_name>
Pentachlorophenol

> <dsstox_substance_id>
DTXSID7021106

> <dsstox_compound_id>
DTXCID701106

> <qc_level>
DSSTox_Low

> <Canonical_QSARr>
OC1C(Cl)=C(Cl)C(Cl)=C(Cl)C=1Cl

> <InChI_Code_QSARr>
InChI=1S/C6HCl5O/c7-1-2(8)4(10)6(12)5(11)3(1)9/h12H

> <InChI Key_QSARr>
IZUPBVBPLAPZRR-UHFFFAOYSA-N

> <Salt_Solvent>


> <Salt_Solvent_ID>
0

> <MPID>
101700

> <LogKmHL>
-0.2

> <Tr_1_Tst_0>
1

$$$$
100065
  Mrv171c012251910542D          

 10 10  0  0  0  0            999 V2000
    3.0980   -0.6840    0.0000 O   0  0  0  0  0  0  0  0  0  0  0  0
    2.3835   -1.0965    0.0000 C   0  0  0  0  0  0  0  0  0  0  0  0
    1.6691   -0.6840    0.0000 C   0  0  0  0  0  0  0  0  0  0  0  0
    1.6691    0.1410    0.0000 Cl  0  0  0  0  0  0  0  0  0  0  0  0
    0.9546   -1.0965    0.0000 C   0  0  0  0  0  0  0  0  0  0  0  0
    0.9546   -1.9215    0.0000 C   0  0  0  0  0  0  0  0  0  0  0  0
    0.2401   -2.3340    0.0000 Cl  0  0  0  0  0  0  0  0  0  0  0  0
    1.6691   -2.3340    0.0000 C   0  0  0  0  0  0  0  0  0  0  0  0
    2.3835   -1.9215    0.0000 C   0  0  0  0  0  0  0  0  0  0  0  0
    3.0980   -2.3340    0.0000 Cl  0  0  0  0  0  0  0  0  0  0  0  0
  1  2  1  0  0  0  0
  3  2  1  0  0  0  0
  3  4  1  0  0  0  0
  5  3  2  0  0  0  0
  6  5  1  0  0  0  0
  6  7  1  0  0  0  0
  8  6  2  0  0  0  0
  9  8  1  0  0  0  0
  2  9  2  0  0  0  0
  9 10  1  0  0  0  0
M  END
> <ChemID>
100065

> <CAS>
88-06-2

> <Original_SMILES>
Oc1c(Cl)cc(Cl)cc1Cl

> <preferred_name>
2,4,6-Trichlorophenol

> <dsstox_substance_id>
DTXSID5021386

> <dsstox_compound_id>
DTXCID501386

> <qc_level>
DSSTox_High

> <Canonical_QSARr>
OC1C(Cl)=CC(Cl)=CC=1Cl

> <InChI_Code_QSARr>
InChI=1S/C6H3Cl3O/c7-3-1-4(8)6(10)5(9)2-3/h1-2,10H

> <InChI Key_QSARr>
LINPIYWFGCPVIE-UHFFFAOYSA-N

> <Salt_Solvent>


> <Salt_Solvent_ID>
0

> <MPID>
101701

> <LogKmHL>
-0.57

> <Tr_1_Tst_0>
1

$$$$
100066
  Mrv171c012251910542D          

 11 11  0  0  0  0            999 V2000
    0.2746   -1.2229    0.0000 C   0  0  0  0  0  0  0  0  0  0  0  0
    0.9891   -1.6354    0.0000 C   0  0  0  0  0  0  0  0  0  0  0  0
    0.9891   -2.4604    0.0000 C   0  0  0  0  0  0  0  0  0  0  0  0
    1.7036   -2.8729    0.0000 C   0  0  0  0  0  0  0  0  0  0  0  0
    2.4180   -2.4604    0.0000 C   0  0  0  0  0  0  0  0  0  0  0  0
    2.4180   -1.6354    0.0000 C   0  0  0  0  0  0  0  0  0  0  0  0
    1.7036   -1.2229    0.0000 C   0  0  0  0  0  0  0  0  0  0  0  0
    1.7036   -0.3979    0.0000 S   0  0  0  0  0  0  0  0  0  0  0  0
    1.7036    0.4271    0.0000 N   0  0  0  0  0  0  0  0  0  0  0  0
    2.5286   -0.3979    0.0000 O   0  0  0  0  0  0  0  0  0  0  0  0
    0.8786   -0.3979    0.0000 O   0  0  0  0  0  0  0  0  0  0  0  0
  1  2  1  0  0  0  0
  3  2  1  0  0  0  0
  4  3  2  0  0  0  0
  5  4  1  0  0  0  0
  6  5  2  0  0  0  0
  7  6  1  0  0  0  0
  2  7  2  0  0  0  0
  7  8  1  0  0  0  0
  8  9  1  0  0  0  0
  8 10  2  0  0  0  0
  8 11  2  0  0  0  0
M  END
> <ChemID>
100066

> <CAS>
88-19-7

> <Original_SMILES>
Cc1ccccc1S(N)(=O)=O

> <preferred_name>
o-Toluenesulfonamide

> <dsstox_substance_id>
DTXSID7021362

> <dsstox_compound_id>
DTXCID301362

> <qc_level>
DSSTox_Low

> <Canonical_QSARr>
CC1C=CC=CC=1S(N)(=O)=O

> <InChI_Code_QSARr>
InChI=1S/C7H9NO2S/c1-6-4-2-3-5-7(6)11(8,9)10/h2-5H,1H3,(H2,8,9,10)

> <InChI Key_QSARr>
YCMLQMDWSXFTIF-UHFFFAOYSA-N

> <Salt_Solvent>


> <Salt_Solvent_ID>
0

> <MPID>
101702

> <LogKmHL>
-0.89

> <Tr_1_Tst_0>
0

$$$$
100067
  Mrv171c012251910542D          

 10 10  0  0  0  0            999 V2000
    2.4136   -0.9140    0.0000 N   0  3  0  0  0  0  0  0  0  0  0  0
    1.6991   -1.3265    0.0000 C   0  0  0  0  0  0  0  0  0  0  0  0
    0.9846   -0.9140    0.0000 C   0  0  0  0  0  0  0  0  0  0  0  0
    0.9846   -0.0890    0.0000 C   0  0  0  0  0  0  0  0  0  0  0  0
    0.2701   -1.3265    0.0000 C   0  0  0  0  0  0  0  0  0  0  0  0
    0.2701   -2.1515    0.0000 C   0  0  0  0  0  0  0  0  0  0  0  0
    0.9846   -2.5640    0.0000 C   0  0  0  0  0  0  0  0  0  0  0  0
    1.6991   -2.1515    0.0000 C   0  0  0  0  0  0  0  0  0  0  0  0
    2.4136   -0.0890    0.0000 O   0  5  0  0  0  0  0  0  0  0  0  0
    3.1280   -1.3265    0.0000 O   0  0  0  0  0  0  0  0  0  0  0  0
  1  2  1  0  0  0  0
  3  2  1  0  0  0  0
  3  4  1  0  0  0  0
  5  3  2  0  0  0  0
  6  5  1  0  0  0  0
  7  6  2  0  0  0  0
  8  7  1  0  0  0  0
  2  8  2  0  0  0  0
  1  9  1  0  0  0  0
  1 10  2  0  0  0  0
M  CHG  2   1   1   9  -1
M  END
> <ChemID>
100067

> <CAS>
88-72-2

> <Original_SMILES>
Cc1ccccc1[N+]([O-])=O

> <preferred_name>
2-Nitrotoluene

> <dsstox_substance_id>
DTXSID4025791

> <dsstox_compound_id>
DTXCID005791

> <qc_level>
DSSTox_Low

> <Canonical_QSARr>
CC1=CC=CC=C1[N+]([O-])=O

> <InChI_Code_QSARr>
InChI=1S/C7H7NO2/c1-6-4-2-3-5-7(6)8(9)10/h2-5H,1H3

> <InChI Key_QSARr>
PLAZTCDQAHEYBI-UHFFFAOYSA-N

> <Salt_Solvent>


> <Salt_Solvent_ID>
0

> <MPID>
101703

> <LogKmHL>
-0.48

> <Tr_1_Tst_0>
1

$$$$
100068
  Mrv171c012251910542D          

 10 10  0  0  0  0            999 V2000
    0.1981   -1.1198    0.0000 Cl  0  0  0  0  0  0  0  0  0  0  0  0
    0.9126   -1.5323    0.0000 C   0  0  0  0  0  0  0  0  0  0  0  0
    0.9126   -2.3573    0.0000 C   0  0  0  0  0  0  0  0  0  0  0  0
    1.6271   -2.7698    0.0000 C   0  0  0  0  0  0  0  0  0  0  0  0
    2.3415   -2.3573    0.0000 C   0  0  0  0  0  0  0  0  0  0  0  0
    2.3415   -1.5323    0.0000 C   0  0  0  0  0  0  0  0  0  0  0  0
    1.6271   -1.1198    0.0000 C   0  0  0  0  0  0  0  0  0  0  0  0
    1.6271   -0.2948    0.0000 N   0  3  0  0  0  0  0  0  0  0  0  0
    0.9126    0.1177    0.0000 O   0  5  0  0  0  0  0  0  0  0  0  0
    2.3415    0.1177    0.0000 O   0  0  0  0  0  0  0  0  0  0  0  0
  1  2  1  0  0  0  0
  3  2  1  0  0  0  0
  4  3  2  0  0  0  0
  5  4  1  0  0  0  0
  6  5  2  0  0  0  0
  7  6  1  0  0  0  0
  2  7  2  0  0  0  0
  7  8  1  0  0  0  0
  8  9  1  0  0  0  0
  8 10  2  0  0  0  0
M  CHG  2   8   1   9  -1
M  END
> <ChemID>
100068

> <CAS>
88-73-3

> <Original_SMILES>
[O-][N+](=O)c1ccccc1Cl

> <preferred_name>
1-Chloro-2-nitrobenzene

> <dsstox_substance_id>
DTXSID0020280

> <dsstox_compound_id>
DTXCID80280

> <qc_level>
DSSTox_Low

> <Canonical_QSARr>
[O-][N+](=O)C1C=CC=CC=1Cl

> <InChI_Code_QSARr>
InChI=1S/C6H4ClNO2/c7-5-3-1-2-4-6(5)8(9)10/h1-4H

> <InChI Key_QSARr>
BFCFYVKQTRLZHA-UHFFFAOYSA-N

> <Salt_Solvent>


> <Salt_Solvent_ID>
0

> <MPID>
101704

> <LogKmHL>
-0.58

> <Tr_1_Tst_0>
1

$$$$
100069
  Mrv171c012251910542D          

 10 10  0  0  0  0            999 V2000
    2.4130   -0.9135    0.0000 N   0  3  0  0  0  0  0  0  0  0  0  0
    1.6985   -1.3260    0.0000 C   0  0  0  0  0  0  0  0  0  0  0  0
    0.9840   -0.9135    0.0000 C   0  0  0  0  0  0  0  0  0  0  0  0
    0.9840   -0.0885    0.0000 N   0  0  0  0  0  0  0  0  0  0  0  0
    0.2696   -1.3260    0.0000 C   0  0  0  0  0  0  0  0  0  0  0  0
    0.2696   -2.1510    0.0000 C   0  0  0  0  0  0  0  0  0  0  0  0
    0.9840   -2.5635    0.0000 C   0  0  0  0  0  0  0  0  0  0  0  0
    1.6985   -2.1510    0.0000 C   0  0  0  0  0  0  0  0  0  0  0  0
    2.4130   -0.0885    0.0000 O   0  5  0  0  0  0  0  0  0  0  0  0
    3.1275   -1.3260    0.0000 O   0  0  0  0  0  0  0  0  0  0  0  0
  1  2  1  0  0  0  0
  3  2  1  0  0  0  0
  3  4  1  0  0  0  0
  5  3  2  0  0  0  0
  6  5  1  0  0  0  0
  7  6  2  0  0  0  0
  8  7  1  0  0  0  0
  2  8  2  0  0  0  0
  1  9  1  0  0  0  0
  1 10  2  0  0  0  0
M  CHG  2   1   1   9  -1
M  END
> <ChemID>
100069

> <CAS>
88-74-4

> <Original_SMILES>
Nc1ccccc1[N+]([O-])=O

> <preferred_name>
2-Nitroaniline

> <dsstox_substance_id>
DTXSID1025726

> <dsstox_compound_id>
DTXCID905726

> <qc_level>
DSSTox_Low

> <Canonical_QSARr>
NC1=CC=CC=C1[N+]([O-])=O

> <InChI_Code_QSARr>
InChI=1S/C6H6N2O2/c7-5-3-1-2-4-6(5)8(9)10/h1-4H,7H2

> <InChI Key_QSARr>
DPJCXCZTLWNFOH-UHFFFAOYSA-N

> <Salt_Solvent>


> <Salt_Solvent_ID>
0

> <MPID>
101705

> <LogKmHL>
-0.46

> <Tr_1_Tst_0>
1

$$$$
100070
  Mrv171c012251910542D          

 12 12  0  0  0  0            999 V2000
    1.2682   -2.0282    0.0000 C   0  0  0  0  0  0  0  0  0  0  0  0
    0.5537   -1.6157    0.0000 C   0  0  0  0  0  0  0  0  0  0  0  0
    0.5537   -0.7907    0.0000 O   0  0  0  0  0  0  0  0  0  0  0  0
   -0.1608   -2.0282    0.0000 O   0  0  0  0  0  0  0  0  0  0  0  0
    1.2682   -2.8532    0.0000 C   0  0  0  0  0  0  0  0  0  0  0  0
    1.9827   -3.2657    0.0000 C   0  0  0  0  0  0  0  0  0  0  0  0
    2.6971   -2.8532    0.0000 C   0  0  0  0  0  0  0  0  0  0  0  0
    2.6971   -2.0282    0.0000 C   0  0  0  0  0  0  0  0  0  0  0  0
    1.9827   -1.6157    0.0000 C   0  0  0  0  0  0  0  0  0  0  0  0
    1.9827   -0.7907    0.0000 C   0  0  0  0  0  0  0  0  0  0  0  0
    1.2682   -0.3782    0.0000 O   0  0  0  0  0  0  0  0  0  0  0  0
    2.6971   -0.3782    0.0000 O   0  0  0  0  0  0  0  0  0  0  0  0
  1  2  1  0  0  0  0
  2  3  1  0  0  0  0
  2  4  2  0  0  0  0
  5  1  1  0  0  0  0
  6  5  1  0  0  0  0
  7  6  2  0  0  0  0
  8  7  1  0  0  0  0
  9  8  1  0  0  0  0
  1  9  1  0  0  0  0
  9 10  1  0  0  0  0
 10 11  1  0  0  0  0
 10 12  2  0  0  0  0
M  END
> <ChemID>
100070

> <CAS>
88-98-2

> <Original_SMILES>
OC(=O)C1CC=CCC1C(O)=O

> <preferred_name>


> <dsstox_substance_id>
DTXSID80861676

> <dsstox_compound_id>
DTXCID80810563

> <qc_level>


> <Canonical_QSARr>
OC(=O)C1CC=CCC1C(O)=O

> <InChI_Code_QSARr>
InChI=1S/C8H10O4/c9-7(10)5-3-1-2-4-6(5)8(11)12/h1-2,5-6H,3-4H2,(H,9,10)(H,11,12)

> <InChI Key_QSARr>
ILUAAIDVFMVTAU-UHFFFAOYSA-N

> <Salt_Solvent>


> <Salt_Solvent_ID>
0

> <MPID>
101706

> <LogKmHL>
-0.57

> <Tr_1_Tst_0>
0

$$$$
100071
  Mrv171c012251910542D          

 11 11  0  0  0  0            999 V2000
    2.1452   -1.6565    0.0000 C   0  0  0  0  0  0  0  0  0  0  0  0
    2.8596   -1.2440    0.0000 Cl  0  0  0  0  0  0  0  0  0  0  0  0
    1.4307   -1.2440    0.0000 C   0  0  0  0  0  0  0  0  0  0  0  0
    1.4307   -0.4190    0.0000 N   0  3  0  0  0  0  0  0  0  0  0  0
    0.7162   -0.0065    0.0000 O   0  0  0  0  0  0  0  0  0  0  0  0
    2.1452   -0.0065    0.0000 O   0  5  0  0  0  0  0  0  0  0  0  0
    0.7162   -1.6565    0.0000 C   0  0  0  0  0  0  0  0  0  0  0  0
    0.7162   -2.4815    0.0000 C   0  0  0  0  0  0  0  0  0  0  0  0
    0.0018   -2.8940    0.0000 Cl  0  0  0  0  0  0  0  0  0  0  0  0
    1.4307   -2.8940    0.0000 C   0  0  0  0  0  0  0  0  0  0  0  0
    2.1452   -2.4815    0.0000 C   0  0  0  0  0  0  0  0  0  0  0  0
  1  2  1  0  0  0  0
  3  1  2  0  0  0  0
  3  4  1  0  0  0  0
  4  5  2  0  0  0  0
  4  6  1  0  0  0  0
  7  3  1  0  0  0  0
  8  7  2  0  0  0  0
  8  9  1  0  0  0  0
 10  8  1  0  0  0  0
 11 10  2  0  0  0  0
  1 11  1  0  0  0  0
M  CHG  2   4   1   6  -1
M  END
> <ChemID>
100071

> <CAS>
89-61-2

> <Original_SMILES>
[O-][N+](=O)c1cc(Cl)ccc1Cl

> <preferred_name>
1,4-Dichloro-2-nitrobenzene

> <dsstox_substance_id>
DTXSID7052602

> <dsstox_compound_id>
DTXCID1031175

> <qc_level>
DSSTox_Low

> <Canonical_QSARr>
[O-][N+](=O)C1C=C(Cl)C=CC=1Cl

> <InChI_Code_QSARr>
InChI=1S/C6H3Cl2NO2/c7-4-1-2-5(8)6(3-4)9(10)11/h1-3H

> <InChI Key_QSARr>
RZKKOBGFCAHLCZ-UHFFFAOYSA-N

> <Salt_Solvent>


> <Salt_Solvent_ID>
0

> <MPID>
101707

> <LogKmHL>
0.56

> <Tr_1_Tst_0>
1

$$$$
100072
  Mrv171c012251910542D          

 11 11  0  0  0  0            999 V2000
    2.1433   -2.7804    0.0000 N   0  0  0  0  0  0  0  0  0  0  0  0
    2.1433   -1.9554    0.0000 C   0  0  0  0  0  0  0  0  0  0  0  0
    2.8578   -1.5429    0.0000 C   0  0  0  0  0  0  0  0  0  0  0  0
    2.8578   -0.7179    0.0000 C   0  0  0  0  0  0  0  0  0  0  0  0
    2.1433   -0.3054    0.0000 C   0  0  0  0  0  0  0  0  0  0  0  0
    2.1433    0.5196    0.0000 Cl  0  0  0  0  0  0  0  0  0  0  0  0
    1.4289   -0.7179    0.0000 C   0  0  0  0  0  0  0  0  0  0  0  0
    1.4289   -1.5429    0.0000 C   0  0  0  0  0  0  0  0  0  0  0  0
    0.7144   -1.9554    0.0000 N   0  3  0  0  0  0  0  0  0  0  0  0
    0.7144   -2.7804    0.0000 O   0  0  0  0  0  0  0  0  0  0  0  0
   -0.0001   -1.5429    0.0000 O   0  5  0  0  0  0  0  0  0  0  0  0
  1  2  1  0  0  0  0
  3  2  1  0  0  0  0
  4  3  2  0  0  0  0
  5  4  1  0  0  0  0
  5  6  1  0  0  0  0
  7  5  2  0  0  0  0
  8  7  1  0  0  0  0
  2  8  2  0  0  0  0
  8  9  1  0  0  0  0
  9 10  2  0  0  0  0
  9 11  1  0  0  0  0
M  CHG  2   9   1  11  -1
M  END
> <ChemID>
100072

> <CAS>
89-63-4

> <Original_SMILES>
Nc1ccc(Cl)cc1[N+]([O-])=O

> <preferred_name>
4-Chloro-2-nitroaniline

> <dsstox_substance_id>
DTXSID4030384

> <dsstox_compound_id>
DTXCID2010384

> <qc_level>
DSSTox_Low

> <Canonical_QSARr>
NC1C=CC(Cl)=CC=1[N+]([O-])=O

> <InChI_Code_QSARr>
InChI=1S/C6H5ClN2O2/c7-4-1-2-5(8)6(3-4)9(10)11/h1-3H,8H2

> <InChI Key_QSARr>
PBGKNXWGYQPUJK-UHFFFAOYSA-N

> <Salt_Solvent>


> <Salt_Solvent_ID>
0

> <MPID>
101708

> <LogKmHL>
-0.96

> <Tr_1_Tst_0>
1

$$$$
100073
  Mrv171c012251910542D          

 12 12  0  0  0  0            999 V2000
    2.8466   -0.7745    0.0000 N   0  3  0  0  0  0  0  0  0  0  0  0
    2.1322   -1.1870    0.0000 C   0  0  0  0  0  0  0  0  0  0  0  0
    1.4177   -0.7745    0.0000 C   0  0  0  0  0  0  0  0  0  0  0  0
    1.4177    0.0505    0.0000 Cl  0  0  0  0  0  0  0  0  0  0  0  0
    0.7032   -1.1870    0.0000 C   0  0  0  0  0  0  0  0  0  0  0  0
    0.7032   -2.0120    0.0000 C   0  0  0  0  0  0  0  0  0  0  0  0
   -0.0113   -2.4245    0.0000 Cl  0  0  0  0  0  0  0  0  0  0  0  0
    1.4177   -2.4245    0.0000 C   0  0  0  0  0  0  0  0  0  0  0  0
    1.4177   -3.2495    0.0000 Cl  0  0  0  0  0  0  0  0  0  0  0  0
    2.1322   -2.0120    0.0000 C   0  0  0  0  0  0  0  0  0  0  0  0
    2.8466    0.0505    0.0000 O   0  5  0  0  0  0  0  0  0  0  0  0
    3.5611   -1.1870    0.0000 O   0  0  0  0  0  0  0  0  0  0  0  0
  1  2  1  0  0  0  0
  3  2  1  0  0  0  0
  3  4  1  0  0  0  0
  5  3  2  0  0  0  0
  6  5  1  0  0  0  0
  6  7  1  0  0  0  0
  8  6  2  0  0  0  0
  8  9  1  0  0  0  0
 10  8  1  0  0  0  0
  2 10  2  0  0  0  0
  1 11  1  0  0  0  0
  1 12  2  0  0  0  0
M  CHG  2   1   1  11  -1
M  END
> <ChemID>
100073

> <CAS>
89-69-0

> <Original_SMILES>
[O-][N+](=O)c1cc(Cl)c(Cl)cc1Cl

> <preferred_name>
2,4,5-Trichloronitrobenzene

> <dsstox_substance_id>
DTXSID5026203

> <dsstox_compound_id>
DTXCID206203

> <qc_level>
DSSTox_Low

> <Canonical_QSARr>
[O-][N+](=O)C1=CC(Cl)=C(Cl)C=C1Cl

> <InChI_Code_QSARr>
InChI=1S/C6H2Cl3NO2/c7-3-1-5(9)6(10(11)12)2-4(3)8/h1-2H

> <InChI Key_QSARr>
IBRBMZRLVYKVRF-UHFFFAOYSA-N

> <Salt_Solvent>


> <Salt_Solvent_ID>
0

> <MPID>
101709

> <LogKmHL>
-0.64

> <Tr_1_Tst_0>
1

$$$$
100074
  Mrv171c012251910542D          

 13 14  0  0  0  0            999 V2000
    2.3045   -1.1129    0.0000 C   0  0  0  0  0  0  0  0  0  0  0  0
    2.3045   -1.9379    0.0000 C   0  0  0  0  0  0  0  0  0  0  0  0
    3.0190   -2.3504    0.0000 C   0  0  0  0  0  0  0  0  0  0  0  0
    3.7334   -1.9379    0.0000 C   0  0  0  0  0  0  0  0  0  0  0  0
    3.7334   -1.1129    0.0000 C   0  0  0  0  0  0  0  0  0  0  0  0
    3.0190   -0.7004    0.0000 C   0  0  0  0  0  0  0  0  0  0  0  0
    3.0190    0.1246    0.0000 N   0  0  0  0  0  0  0  0  0  0  0  0
    1.5900   -0.7004    0.0000 C   0  0  0  0  0  0  0  0  0  0  0  0
    1.5900    0.1246    0.0000 C   0  0  0  0  0  0  0  0  0  0  0  0
    0.8756    0.5371    0.0000 C   0  0  0  0  0  0  0  0  0  0  0  0
    0.1611    0.1246    0.0000 C   0  0  0  0  0  0  0  0  0  0  0  0
    0.1611   -0.7004    0.0000 C   0  0  0  0  0  0  0  0  0  0  0  0
    0.8756   -1.1129    0.0000 C   0  0  0  0  0  0  0  0  0  0  0  0
  2  1  1  0  0  0  0
  3  2  2  0  0  0  0
  4  3  1  0  0  0  0
  5  4  2  0  0  0  0
  6  5  1  0  0  0  0
  1  6  2  0  0  0  0
  6  7  1  0  0  0  0
  1  8  1  0  0  0  0
  9  8  1  0  0  0  0
 10  9  2  0  0  0  0
 11 10  1  0  0  0  0
 12 11  2  0  0  0  0
 13 12  1  0  0  0  0
  8 13  2  0  0  0  0
M  END
> <ChemID>
100074

> <CAS>
90-41-5

> <Original_SMILES>
Nc1ccccc1-c1ccccc1

> <preferred_name>
2-Biphenylamine

> <dsstox_substance_id>
DTXSID3030189

> <dsstox_compound_id>
DTXCID1010189

> <qc_level>
DSSTox_Low

> <Canonical_QSARr>
NC1C=CC=CC=1C1C=CC=CC=1

> <InChI_Code_QSARr>
InChI=1S/C12H11N/c13-12-9-5-4-8-11(12)10-6-2-1-3-7-10/h1-9H,13H2

> <InChI Key_QSARr>
TWBPWBPGNQWFSJ-UHFFFAOYSA-N

> <Salt_Solvent>


> <Salt_Solvent_ID>
0

> <MPID>
101710

> <LogKmHL>
-1.06

> <Tr_1_Tst_0>
0

$$$$
100075
  Mrv171c012251910542D          

 20 21  0  0  0  0            999 V2000
    1.9968   -2.7225    0.0000 O   0  0  0  0  0  0  0  0  0  0  0  0
    2.7112   -2.3100    0.0000 C   0  0  0  0  0  0  0  0  0  0  0  0
    2.7112   -1.4850    0.0000 C   0  0  0  0  0  0  0  0  0  0  0  0
    3.4257   -1.0725    0.0000 C   0  0  0  0  0  0  0  0  0  0  0  0
    3.4257   -0.2475    0.0000 C   0  0  0  0  0  0  0  0  0  0  0  0
    2.7112    0.1650    0.0000 C   0  0  0  0  0  0  0  0  0  0  0  0
    2.7112    0.9900    0.0000 N   0  0  0  0  0  0  0  0  0  0  0  0
    1.9968    1.4025    0.0000 C   0  0  0  0  0  0  0  0  0  0  0  0
    3.4257    1.4025    0.0000 C   0  0  0  0  0  0  0  0  0  0  0  0
    1.9968   -0.2475    0.0000 C   0  0  0  0  0  0  0  0  0  0  0  0
    1.9968   -1.0725    0.0000 C   0  0  0  0  0  0  0  0  0  0  0  0
    3.4257   -2.7225    0.0000 C   0  0  0  0  0  0  0  0  0  0  0  0
    3.4257   -3.5475    0.0000 C   0  0  0  0  0  0  0  0  0  0  0  0
    4.1402   -3.9600    0.0000 C   0  0  0  0  0  0  0  0  0  0  0  0
    4.8547   -3.5475    0.0000 C   0  0  0  0  0  0  0  0  0  0  0  0
    5.5691   -3.9600    0.0000 N   0  0  0  0  0  0  0  0  0  0  0  0
    6.2836   -3.5475    0.0000 C   0  0  0  0  0  0  0  0  0  0  0  0
    5.5691   -4.7850    0.0000 C   0  0  0  0  0  0  0  0  0  0  0  0
    4.8547   -2.7225    0.0000 C   0  0  0  0  0  0  0  0  0  0  0  0
    4.1402   -2.3100    0.0000 C   0  0  0  0  0  0  0  0  0  0  0  0
  1  2  2  0  0  0  0
  2  3  1  0  0  0  0
  4  3  1  0  0  0  0
  5  4  2  0  0  0  0
  6  5  1  0  0  0  0
  6  7  1  0  0  0  0
  7  8  1  0  0  0  0
  7  9  1  0  0  0  0
 10  6  2  0  0  0  0
 11 10  1  0  0  0  0
  3 11  2  0  0  0  0
  2 12  1  0  0  0  0
 13 12  1  0  0  0  0
 14 13  2  0  0  0  0
 15 14  1  0  0  0  0
 15 16  1  0  0  0  0
 16 17  1  0  0  0  0
 16 18  1  0  0  0  0
 19 15  2  0  0  0  0
 20 19  1  0  0  0  0
 12 20  2  0  0  0  0
M  END
> <ChemID>
100075

> <CAS>
90-94-8

> <Original_SMILES>
CN(C)c1ccc(cc1)C(=O)c1ccc(cc1)N(C)C

> <preferred_name>
Michler's ketone

> <dsstox_substance_id>
DTXSID2020894

> <dsstox_compound_id>
DTXCID80894

> <qc_level>
DSSTox_Low

> <Canonical_QSARr>
CN(C)C1C=CC(=CC=1)C(=O)C1C=CC(=CC=1)N(C)C

> <InChI_Code_QSARr>
InChI=1S/C17H20N2O/c1-18(2)15-9-5-13(6-10-15)17(20)14-7-11-16(12-8-14)19(3)4/h5-12H,1-4H3

> <InChI Key_QSARr>
VVBLNCFGVYUYGU-UHFFFAOYSA-N

> <Salt_Solvent>


> <Salt_Solvent_ID>
0

> <MPID>
101711

> <LogKmHL>
-0.77

> <Tr_1_Tst_0>
1

$$$$
100076
  Mrv171c012251910542D          

 10 10  0  0  0  0            999 V2000
    1.7100   -1.1716    0.0000 C   0  0  0  0  0  0  0  0  0  0  0  0
    2.4245   -0.7591    0.0000 C   0  0  0  0  0  0  0  0  0  0  0  0
    3.1389   -0.3466    0.0000 N   0  0  0  0  0  0  0  0  0  0  0  0
    0.9955   -0.7591    0.0000 C   0  0  0  0  0  0  0  0  0  0  0  0
    0.9955    0.0659    0.0000 C   0  0  0  0  0  0  0  0  0  0  0  0
    0.9955    0.8909    0.0000 N   0  0  0  0  0  0  0  0  0  0  0  0
    0.2811   -1.1716    0.0000 C   0  0  0  0  0  0  0  0  0  0  0  0
    0.2811   -1.9966    0.0000 C   0  0  0  0  0  0  0  0  0  0  0  0
    0.9955   -2.4091    0.0000 C   0  0  0  0  0  0  0  0  0  0  0  0
    1.7100   -1.9966    0.0000 C   0  0  0  0  0  0  0  0  0  0  0  0
  1  2  1  0  0  0  0
  2  3  3  0  0  0  0
  4  1  1  0  0  0  0
  4  5  1  0  0  0  0
  5  6  3  0  0  0  0
  7  4  2  0  0  0  0
  8  7  1  0  0  0  0
  9  8  2  0  0  0  0
 10  9  1  0  0  0  0
  1 10  2  0  0  0  0
M  END
> <ChemID>
100076

> <CAS>
91-15-6

> <Original_SMILES>
N#Cc1ccccc1C#N

> <preferred_name>
1,2-Benzenedicarbonitrile

> <dsstox_substance_id>
DTXSID8029604

> <dsstox_compound_id>
DTXCID709604

> <qc_level>
DSSTox_Low

> <Canonical_QSARr>
N#CC1=CC=CC=C1C#N

> <InChI_Code_QSARr>
InChI=1S/C8H4N2/c9-5-7-3-1-2-4-8(7)6-10/h1-4H

> <InChI Key_QSARr>
XQZYPMVTSDWCCE-UHFFFAOYSA-N

> <Salt_Solvent>


> <Salt_Solvent_ID>
0

> <MPID>
101712

> <LogKmHL>
-0.67

> <Tr_1_Tst_0>
1

$$$$
100077
  Mrv171c012251910542D          

 10 11  0  0  0  0            999 V2000
    0.7153   -1.6500    0.0000 C   0  0  0  0  0  0  0  0  0  0  0  0
    0.0008   -1.2375    0.0000 C   0  0  0  0  0  0  0  0  0  0  0  0
    0.0008   -0.4125    0.0000 C   0  0  0  0  0  0  0  0  0  0  0  0
    0.7153    0.0000    0.0000 C   0  0  0  0  0  0  0  0  0  0  0  0
    1.4297   -0.4125    0.0000 C   0  0  0  0  0  0  0  0  0  0  0  0
    2.1442    0.0000    0.0000 C   0  0  0  0  0  0  0  0  0  0  0  0
    2.8587   -0.4125    0.0000 C   0  0  0  0  0  0  0  0  0  0  0  0
    2.8587   -1.2375    0.0000 C   0  0  0  0  0  0  0  0  0  0  0  0
    2.1442   -1.6500    0.0000 C   0  0  0  0  0  0  0  0  0  0  0  0
    1.4297   -1.2375    0.0000 C   0  0  0  0  0  0  0  0  0  0  0  0
  2  1  1  0  0  0  0
  3  2  2  0  0  0  0
  4  3  1  0  0  0  0
  5  4  2  0  0  0  0
  5  6  1  0  0  0  0
  6  7  2  0  0  0  0
  7  8  1  0  0  0  0
  8  9  2  0  0  0  0
  9 10  1  0  0  0  0
  1 10  2  0  0  0  0
 10  5  1  0  0  0  0
M  END
> <ChemID>
100077

> <CAS>
91-20-3

> <Original_SMILES>
c1cccc2ccccc21

> <preferred_name>
Naphthalene

> <dsstox_substance_id>
DTXSID8020913

> <dsstox_compound_id>
DTXCID00913

> <qc_level>
DSSTox_Low

> <Canonical_QSARr>
C1=CC=CC2=CC=CC=C21

> <InChI_Code_QSARr>
InChI=1S/C10H8/c1-2-6-10-8-4-3-7-9(10)5-1/h1-8H

> <InChI Key_QSARr>
UFWIBTONFRDIAS-UHFFFAOYSA-N

> <Salt_Solvent>


> <Salt_Solvent_ID>
0

> <MPID>
101713

> <LogKmHL>
0.41

> <Tr_1_Tst_0>
1

$$$$
100078
  Mrv171c012251910542D          

 10 11  0  0  0  0            999 V2000
    0.7153    0.0000    0.0000 N   0  0  0  0  0  0  0  0  0  0  0  0
    1.4297   -0.4125    0.0000 C   0  0  0  0  0  0  0  0  0  0  0  0
    2.1442    0.0000    0.0000 C   0  0  0  0  0  0  0  0  0  0  0  0
    2.8587   -0.4125    0.0000 C   0  0  0  0  0  0  0  0  0  0  0  0
    2.8587   -1.2375    0.0000 C   0  0  0  0  0  0  0  0  0  0  0  0
    2.1442   -1.6500    0.0000 C   0  0  0  0  0  0  0  0  0  0  0  0
    1.4297   -1.2375    0.0000 C   0  0  0  0  0  0  0  0  0  0  0  0
    0.7153   -1.6500    0.0000 C   0  0  0  0  0  0  0  0  0  0  0  0
    0.0008   -1.2375    0.0000 C   0  0  0  0  0  0  0  0  0  0  0  0
    0.0008   -0.4125    0.0000 C   0  0  0  0  0  0  0  0  0  0  0  0
  2  1  1  0  0  0  0
  2  3  1  0  0  0  0
  3  4  2  0  0  0  0
  4  5  1  0  0  0  0
  5  6  2  0  0  0  0
  6  7  1  0  0  0  0
  7  2  2  0  0  0  0
  8  7  1  0  0  0  0
  9  8  2  0  0  0  0
 10  9  1  0  0  0  0
  1 10  2  0  0  0  0
M  END
> <ChemID>
100078

> <CAS>
91-22-5

> <Original_SMILES>
c1cccc2[n]cccc21

> <preferred_name>
Quinoline

> <dsstox_substance_id>
DTXSID1021798

> <dsstox_compound_id>
DTXCID401798

> <qc_level>
DSSTox_Low

> <Canonical_QSARr>
C1=CC=NC2C=CC=CC=21

> <InChI_Code_QSARr>
InChI=1S/C9H7N/c1-2-6-9-8(4-1)5-3-7-10-9/h1-7H

> <InChI Key_QSARr>
SMWDFEZZVXVKRB-UHFFFAOYSA-N

> <Salt_Solvent>


> <Salt_Solvent_ID>
0

> <MPID>
101714

> <LogKmHL>
-1.33

> <Tr_1_Tst_0>
0

$$$$
100079
  Mrv171c012251910542D          

 11 11  0  0  0  0            999 V2000
    0.2932   -0.9192    0.0000 C   0  0  0  0  0  0  0  0  0  0  0  0
    0.2932   -1.7442    0.0000 O   0  0  0  0  0  0  0  0  0  0  0  0
    1.0076   -2.1567    0.0000 C   0  0  0  0  0  0  0  0  0  0  0  0
    1.0076   -2.9817    0.0000 C   0  0  0  0  0  0  0  0  0  0  0  0
    1.7221   -3.3942    0.0000 C   0  0  0  0  0  0  0  0  0  0  0  0
    2.4366   -2.9817    0.0000 C   0  0  0  0  0  0  0  0  0  0  0  0
    2.4366   -2.1567    0.0000 C   0  0  0  0  0  0  0  0  0  0  0  0
    1.7221   -1.7442    0.0000 C   0  0  0  0  0  0  0  0  0  0  0  0
    1.7221   -0.9192    0.0000 N   0  3  0  0  0  0  0  0  0  0  0  0
    1.0076   -0.5067    0.0000 O   0  5  0  0  0  0  0  0  0  0  0  0
    2.4366   -0.5067    0.0000 O   0  0  0  0  0  0  0  0  0  0  0  0
  1  2  1  0  0  0  0
  2  3  1  0  0  0  0
  4  3  1  0  0  0  0
  5  4  2  0  0  0  0
  6  5  1  0  0  0  0
  7  6  2  0  0  0  0
  8  7  1  0  0  0  0
  3  8  2  0  0  0  0
  8  9  1  0  0  0  0
  9 10  1  0  0  0  0
  9 11  2  0  0  0  0
M  CHG  2   9   1  10  -1
M  END
> <ChemID>
100079

> <CAS>
91-23-6

> <Original_SMILES>
COc1ccccc1[N+]([O-])=O

> <preferred_name>
1-Methoxy-2-nitrobenzene

> <dsstox_substance_id>
DTXSID3020962

> <dsstox_compound_id>
DTXCID70962

> <qc_level>
DSSTox_Low

> <Canonical_QSARr>
COC1C=CC=CC=1[N+]([O-])=O

> <InChI_Code_QSARr>
InChI=1S/C7H7NO3/c1-11-7-5-3-2-4-6(7)8(9)10/h2-5H,1H3

> <InChI Key_QSARr>
CFBYEGUGFPZCNF-UHFFFAOYSA-N

> <Salt_Solvent>


> <Salt_Solvent_ID>
0

> <MPID>
101715

> <LogKmHL>
-1.04

> <Tr_1_Tst_0>
1

$$$$
100080
  Mrv171c012251910542D          

 11 12  0  0  0  0            999 V2000
    1.8110   -0.4138    0.0000 C   0  0  0  0  0  0  0  0  0  0  0  0
    1.0965   -0.0013    0.0000 C   0  0  0  0  0  0  0  0  0  0  0  0
    0.3820   -0.4138    0.0000 C   0  0  0  0  0  0  0  0  0  0  0  0
   -0.3325   -0.0013    0.0000 C   0  0  0  0  0  0  0  0  0  0  0  0
    0.3820   -1.2388    0.0000 C   0  0  0  0  0  0  0  0  0  0  0  0
    1.0965   -1.6513    0.0000 C   0  0  0  0  0  0  0  0  0  0  0  0
    1.8110   -1.2388    0.0000 C   0  0  0  0  0  0  0  0  0  0  0  0
    2.5254   -1.6513    0.0000 C   0  0  0  0  0  0  0  0  0  0  0  0
    3.2399   -1.2388    0.0000 C   0  0  0  0  0  0  0  0  0  0  0  0
    3.2399   -0.4138    0.0000 C   0  0  0  0  0  0  0  0  0  0  0  0
    2.5254   -0.0013    0.0000 C   0  0  0  0  0  0  0  0  0  0  0  0
  2  1  1  0  0  0  0
  3  2  2  0  0  0  0
  3  4  1  0  0  0  0
  5  3  1  0  0  0  0
  6  5  2  0  0  0  0
  7  6  1  0  0  0  0
  7  1  1  0  0  0  0
  8  7  2  0  0  0  0
  9  8  1  0  0  0  0
 10  9  2  0  0  0  0
 11 10  1  0  0  0  0
  1 11  2  0  0  0  0
M  END
> <ChemID>
100080

> <CAS>
91-57-6

> <Original_SMILES>
Cc1cc2ccccc2cc1

> <preferred_name>
2-Methylnaphthalene

> <dsstox_substance_id>
DTXSID4020878

> <dsstox_compound_id>
DTXCID60878

> <qc_level>
DSSTox_Low

> <Canonical_QSARr>
CC1=CC2=CC=CC=C2C=C1

> <InChI_Code_QSARr>
InChI=1S/C11H10/c1-9-6-7-10-4-2-3-5-11(10)8-9/h2-8H,1H3

> <InChI Key_QSARr>
QIMMUPPBPVKWKM-UHFFFAOYSA-N

> <Salt_Solvent>


> <Salt_Solvent_ID>
0

> <MPID>
101716

> <LogKmHL>
0.88

> <Tr_1_Tst_0>
1

$$$$
100081
  Mrv171c012251910542D          

 16 17  0  0  0  0            999 V2000
    4.3157   -3.4925    0.0000 Cl  0  0  0  0  0  0  0  0  0  0  0  0
    3.6012   -3.0800    0.0000 C   0  0  0  0  0  0  0  0  0  0  0  0
    3.6012   -2.2550    0.0000 C   0  0  0  0  0  0  0  0  0  0  0  0
    2.8868   -1.8425    0.0000 C   0  0  0  0  0  0  0  0  0  0  0  0
    2.8868   -1.0175    0.0000 C   0  0  0  0  0  0  0  0  0  0  0  0
    3.6012   -0.6050    0.0000 C   0  0  0  0  0  0  0  0  0  0  0  0
    3.6012    0.2200    0.0000 C   0  0  0  0  0  0  0  0  0  0  0  0
    2.8868    0.6325    0.0000 C   0  0  0  0  0  0  0  0  0  0  0  0
    2.8868    1.4575    0.0000 N   0  0  0  0  0  0  0  0  0  0  0  0
    2.1723    0.2200    0.0000 C   0  0  0  0  0  0  0  0  0  0  0  0
    1.4578    0.6325    0.0000 Cl  0  0  0  0  0  0  0  0  0  0  0  0
    2.1723   -0.6050    0.0000 C   0  0  0  0  0  0  0  0  0  0  0  0
    2.1723   -2.2550    0.0000 C   0  0  0  0  0  0  0  0  0  0  0  0
    2.1723   -3.0800    0.0000 C   0  0  0  0  0  0  0  0  0  0  0  0
    2.8868   -3.4925    0.0000 C   0  0  0  0  0  0  0  0  0  0  0  0
    2.8868   -4.3175    0.0000 N   0  0  0  0  0  0  0  0  0  0  0  0
  1  2  1  0  0  0  0
  3  2  1  0  0  0  0
  4  3  2  0  0  0  0
  4  5  1  0  0  0  0
  6  5  1  0  0  0  0
  7  6  2  0  0  0  0
  8  7  1  0  0  0  0
  8  9  1  0  0  0  0
 10  8  2  0  0  0  0
 10 11  1  0  0  0  0
 12 10  1  0  0  0  0
  5 12  2  0  0  0  0
 13  4  1  0  0  0  0
 14 13  2  0  0  0  0
 15 14  1  0  0  0  0
  2 15  2  0  0  0  0
 15 16  1  0  0  0  0
M  END
> <ChemID>
100081

> <CAS>
91-94-1

> <Original_SMILES>
Nc1ccc(cc1Cl)-c1cc(Cl)c(N)cc1

> <preferred_name>
3,3'-Dichlorobenzidine

> <dsstox_substance_id>
DTXSID6020432

> <dsstox_compound_id>
DTXCID60432

> <qc_level>
DSSTox_High

> <Canonical_QSARr>
NC1C=CC(=CC=1Cl)C1=CC(Cl)=C(N)C=C1

> <InChI_Code_QSARr>
InChI=1S/C12H10Cl2N2/c13-9-5-7(1-3-11(9)15)8-2-4-12(16)10(14)6-8/h1-6H,15-16H2

> <InChI Key_QSARr>
HUWXDEQWWKGHRV-UHFFFAOYSA-N

> <Salt_Solvent>


> <Salt_Solvent_ID>
0

> <MPID>
101717

> <LogKmHL>
-0.13

> <Tr_1_Tst_0>
1

$$$$
100082
  Mrv171c012251910542D          

 28 29  0  0  0  0            999 V2000
   -6.4302   -5.3624    0.0000 O   0  0  0  0  0  0  0  0  0  0  0  0
   -6.4302   -6.1874    0.0000 C   0  0  0  0  0  0  0  0  0  0  0  0
   -7.1447   -6.5999    0.0000 C   0  0  0  0  0  0  0  0  0  0  0  0
   -7.8592   -6.1874    0.0000 C   0  0  0  0  0  0  0  0  0  0  0  0
   -8.5736   -6.5999    0.0000 C   0  0  0  0  0  0  0  0  0  0  0  0
   -7.8592   -5.3624    0.0000 O   0  0  0  0  0  0  0  0  0  0  0  0
   -5.7157   -6.5999    0.0000 N   0  0  0  0  0  0  0  0  0  0  0  0
   -5.0013   -6.1874    0.0000 C   0  0  0  0  0  0  0  0  0  0  0  0
   -4.2868   -6.5999    0.0000 C   0  0  0  0  0  0  0  0  0  0  0  0
   -3.5723   -6.1874    0.0000 C   0  0  0  0  0  0  0  0  0  0  0  0
   -3.5723   -5.3624    0.0000 C   0  0  0  0  0  0  0  0  0  0  0  0
   -2.8579   -4.9499    0.0000 C   0  0  0  0  0  0  0  0  0  0  0  0
   -2.1434   -5.3624    0.0000 C   0  0  0  0  0  0  0  0  0  0  0  0
   -1.4289   -4.9499    0.0000 C   0  0  0  0  0  0  0  0  0  0  0  0
   -0.7144   -5.3624    0.0000 C   0  0  0  0  0  0  0  0  0  0  0  0
   -1.4289   -4.1249    0.0000 C   0  0  0  0  0  0  0  0  0  0  0  0
   -0.7144   -3.7124    0.0000 N   0  0  0  0  0  0  0  0  0  0  0  0
    0.0000   -4.1249    0.0000 C   0  0  0  0  0  0  0  0  0  0  0  0
    0.7145   -3.7124    0.0000 C   0  0  0  0  0  0  0  0  0  0  0  0
    1.4290   -4.1249    0.0000 C   0  0  0  0  0  0  0  0  0  0  0  0
    2.1434   -3.7124    0.0000 C   0  0  0  0  0  0  0  0  0  0  0  0
    1.4290   -4.9499    0.0000 O   0  0  0  0  0  0  0  0  0  0  0  0
    0.0000   -4.9499    0.0000 O   0  0  0  0  0  0  0  0  0  0  0  0
   -2.1434   -3.7124    0.0000 C   0  0  0  0  0  0  0  0  0  0  0  0
   -2.8579   -4.1249    0.0000 C   0  0  0  0  0  0  0  0  0  0  0  0
   -4.2868   -4.9499    0.0000 C   0  0  0  0  0  0  0  0  0  0  0  0
   -5.0013   -5.3624    0.0000 C   0  0  0  0  0  0  0  0  0  0  0  0
   -5.7157   -4.9499    0.0000 C   0  0  0  0  0  0  0  0  0  0  0  0
  1  2  2  0  0  0  0
  2  3  1  0  0  0  0
  3  4  1  0  0  0  0
  4  5  1  0  0  0  0
  4  6  2  0  0  0  0
  2  7  1  0  0  0  0
  7  8  1  0  0  0  0
  9  8  1  0  0  0  0
 10  9  2  0  0  0  0
 11 10  1  0  0  0  0
 11 12  1  0  0  0  0
 13 12  1  0  0  0  0
 14 13  2  0  0  0  0
 14 15  1  0  0  0  0
 16 14  1  0  0  0  0
 16 17  1  0  0  0  0
 17 18  1  0  0  0  0
 18 19  1  0  0  0  0
 19 20  1  0  0  0  0
 20 21  1  0  0  0  0
 20 22  2  0  0  0  0
 18 23  2  0  0  0  0
 24 16  2  0  0  0  0
 25 24  1  0  0  0  0
 12 25  2  0  0  0  0
 26 11  2  0  0  0  0
 27 26  1  0  0  0  0
  8 27  2  0  0  0  0
 27 28  1  0  0  0  0
M  END
> <ChemID>
100082

> <CAS>
91-96-3

> <Original_SMILES>
CC(=O)CC(=O)Nc1ccc(cc1C)-c1cc(C)c(cc1)NC(=O)CC(C)=O

> <preferred_name>
Butanamide, N,N'-(3,3'-dimethyl[1,1'-biphenyl]-4,4'-diyl)bis[3-oxo-

> <dsstox_substance_id>
DTXSID5059034

> <dsstox_compound_id>
DTXCID9048726

> <qc_level>
Public_High

> <Canonical_QSARr>
CC1C=C(C=CC=1NC(=O)CC(C)=O)C1C=C(C)C(=CC=1)NC(=O)CC(C)=O

> <InChI_Code_QSARr>
InChI=1S/C22H24N2O4/c1-13-9-17(5-7-19(13)23-21(27)11-15(3)25)18-6-8-20(14(2)10-18)24-22(28)12-16(4)26/h5-10H,11-12H2,1-4H3,(H,23,27)(H,24,28)

> <InChI Key_QSARr>
CRRLDLPBQWRVGN-UHFFFAOYSA-N

> <Salt_Solvent>


> <Salt_Solvent_ID>
0

> <MPID>
101718

> <LogKmHL>
-1.5

> <Tr_1_Tst_0>
0

$$$$
100083
  Mrv171c012251910542D          

 12 13  0  0  0  0            999 V2000
    2.7787   -1.5392    0.0000 C   0  0  0  0  0  0  0  0  0  0  0  0
    2.0643   -1.1267    0.0000 C   0  0  0  0  0  0  0  0  0  0  0  0
    2.0643   -0.3017    0.0000 C   0  0  0  0  0  0  0  0  0  0  0  0
    2.7787    0.1108    0.0000 C   0  0  0  0  0  0  0  0  0  0  0  0
    2.7787    0.9358    0.0000 C   0  0  0  0  0  0  0  0  0  0  0  0
    2.0643    1.3483    0.0000 C   0  0  0  0  0  0  0  0  0  0  0  0
    1.3498    0.9358    0.0000 C   0  0  0  0  0  0  0  0  0  0  0  0
    1.3498    0.1108    0.0000 C   0  0  0  0  0  0  0  0  0  0  0  0
    1.3498   -1.5392    0.0000 C   0  0  0  0  0  0  0  0  0  0  0  0
    1.3498   -2.3642    0.0000 C   0  0  0  0  0  0  0  0  0  0  0  0
    2.0643   -2.7767    0.0000 C   0  0  0  0  0  0  0  0  0  0  0  0
    2.7787   -2.3642    0.0000 C   0  0  0  0  0  0  0  0  0  0  0  0
  2  1  1  0  0  0  0
  2  3  1  0  0  0  0
  4  3  1  0  0  0  0
  5  4  1  0  0  0  0
  6  5  1  0  0  0  0
  7  6  1  0  0  0  0
  8  7  1  0  0  0  0
  3  8  1  0  0  0  0
  9  2  1  0  0  0  0
 10  9  1  0  0  0  0
 11 10  1  0  0  0  0
 12 11  1  0  0  0  0
  1 12  1  0  0  0  0
M  END
> <ChemID>
100083

> <CAS>
92-51-3

> <Original_SMILES>
C1CCCCC1C1CCCCC1

> <preferred_name>
Dicyclohexyl

> <dsstox_substance_id>
DTXSID8021802

> <dsstox_compound_id>
DTXCID501802

> <qc_level>
DSSTox_Low

> <Canonical_QSARr>
C1CCCCC1C1CCCCC1

> <InChI_Code_QSARr>
InChI=1S/C12H22/c1-3-7-11(8-4-1)12-9-5-2-6-10-12/h11-12H,1-10H2

> <InChI Key_QSARr>
WVIIMZNLDWSIRH-UHFFFAOYSA-N

> <Salt_Solvent>


> <Salt_Solvent_ID>
0

> <MPID>
101719

> <LogKmHL>
0.38

> <Tr_1_Tst_0>
1

$$$$
100084
  Mrv171c012251910542D          

 13 14  0  0  0  0            999 V2000
    2.6609   -3.3802    0.0000 O   0  0  0  0  0  0  0  0  0  0  0  0
    2.6609   -2.5552    0.0000 C   0  0  0  0  0  0  0  0  0  0  0  0
    3.3754   -2.1427    0.0000 C   0  0  0  0  0  0  0  0  0  0  0  0
    3.3754   -1.3177    0.0000 C   0  0  0  0  0  0  0  0  0  0  0  0
    2.6609   -0.9052    0.0000 C   0  0  0  0  0  0  0  0  0  0  0  0
    2.6609   -0.0802    0.0000 C   0  0  0  0  0  0  0  0  0  0  0  0
    3.3754    0.3323    0.0000 C   0  0  0  0  0  0  0  0  0  0  0  0
    3.3754    1.1573    0.0000 C   0  0  0  0  0  0  0  0  0  0  0  0
    2.6609    1.5698    0.0000 C   0  0  0  0  0  0  0  0  0  0  0  0
    1.9464    1.1573    0.0000 C   0  0  0  0  0  0  0  0  0  0  0  0
    1.9464    0.3323    0.0000 C   0  0  0  0  0  0  0  0  0  0  0  0
    1.9464   -1.3177    0.0000 C   0  0  0  0  0  0  0  0  0  0  0  0
    1.9464   -2.1427    0.0000 C   0  0  0  0  0  0  0  0  0  0  0  0
  1  2  1  0  0  0  0
  3  2  1  0  0  0  0
  4  3  2  0  0  0  0
  5  4  1  0  0  0  0
  5  6  1  0  0  0  0
  7  6  1  0  0  0  0
  8  7  2  0  0  0  0
  9  8  1  0  0  0  0
 10  9  2  0  0  0  0
 11 10  1  0  0  0  0
  6 11  2  0  0  0  0
 12  5  2  0  0  0  0
 13 12  1  0  0  0  0
  2 13  2  0  0  0  0
M  END
> <ChemID>
100084

> <CAS>
92-69-3

> <Original_SMILES>
Oc1ccc(cc1)-c1ccccc1

> <preferred_name>
4-Phenylphenol

> <dsstox_substance_id>
DTXSID7021152

> <dsstox_compound_id>
DTXCID601152

> <qc_level>
DSSTox_High

> <Canonical_QSARr>
OC1C=CC(=CC=1)C1C=CC=CC=1

> <InChI_Code_QSARr>
InChI=1S/C12H10O/c13-12-8-6-11(7-9-12)10-4-2-1-3-5-10/h1-9,13H

> <InChI Key_QSARr>
YXVFYQXJAXKLAK-UHFFFAOYSA-N

> <Salt_Solvent>


> <Salt_Solvent_ID>
0

> <MPID>
101720

> <LogKmHL>
-0.81

> <Tr_1_Tst_0>
1

$$$$
100085
  Mrv171c012251910542D          

 14 16  0  0  0  0            999 V2000
    2.1414    0.0005    0.0000 N   0  0  0  0  0  0  0  0  0  0  0  0
    2.8559   -0.4120    0.0000 C   0  0  0  0  0  0  0  0  0  0  0  0
    3.5704    0.0005    0.0000 C   0  0  0  0  0  0  0  0  0  0  0  0
    4.2849   -0.4120    0.0000 C   0  0  0  0  0  0  0  0  0  0  0  0
    4.2849   -1.2370    0.0000 C   0  0  0  0  0  0  0  0  0  0  0  0
    3.5704   -1.6495    0.0000 C   0  0  0  0  0  0  0  0  0  0  0  0
    2.8559   -1.2370    0.0000 C   0  0  0  0  0  0  0  0  0  0  0  0
    2.1414   -1.6495    0.0000 S   0  0  0  0  0  0  0  0  0  0  0  0
    1.4270   -1.2370    0.0000 C   0  0  0  0  0  0  0  0  0  0  0  0
    0.7125   -1.6495    0.0000 C   0  0  0  0  0  0  0  0  0  0  0  0
   -0.0020   -1.2370    0.0000 C   0  0  0  0  0  0  0  0  0  0  0  0
   -0.0020   -0.4120    0.0000 C   0  0  0  0  0  0  0  0  0  0  0  0
    0.7125    0.0005    0.0000 C   0  0  0  0  0  0  0  0  0  0  0  0
    1.4270   -0.4120    0.0000 C   0  0  0  0  0  0  0  0  0  0  0  0
  2  1  1  0  0  0  0
  2  3  2  0  0  0  0
  3  4  1  0  0  0  0
  4  5  2  0  0  0  0
  5  6  1  0  0  0  0
  6  7  2  0  0  0  0
  7  2  1  0  0  0  0
  8  7  1  0  0  0  0
  9  8  1  0  0  0  0
  9 10  1  0  0  0  0
 10 11  2  0  0  0  0
 11 12  1  0  0  0  0
 12 13  2  0  0  0  0
 13 14  1  0  0  0  0
  1 14  1  0  0  0  0
 14  9  2  0  0  0  0
M  END
> <ChemID>
100085

> <CAS>
92-84-2

> <Original_SMILES>
c1cccc2Nc3ccccc3Sc21

> <preferred_name>
Phenothiazine

> <dsstox_substance_id>
DTXSID5021126

> <dsstox_compound_id>
DTXCID301126

> <qc_level>
DSSTox_Low

> <Canonical_QSARr>
C1=CC=CC2NC3=CC=CC=C3SC=21

> <InChI_Code_QSARr>
InChI=1S/C12H9NS/c1-3-7-11-9(5-1)13-10-6-2-4-8-12(10)14-11/h1-8,13H

> <InChI Key_QSARr>
WJFKNYWRSNBZNX-UHFFFAOYSA-N

> <Salt_Solvent>


> <Salt_Solvent_ID>
0

> <MPID>
101721

> <LogKmHL>
0.04

> <Tr_1_Tst_0>
1

$$$$
100086
  Mrv171c012251910542D          

 14 15  0  0  0  0            999 V2000
    0.7145    2.0626    0.0000 C   0  0  0  0  0  0  0  0  0  0  0  0
    1.4290    2.4751    0.0000 C   0  0  0  0  0  0  0  0  0  0  0  0
    1.4290    3.3001    0.0000 C   0  0  0  0  0  0  0  0  0  0  0  0
    0.7145    3.7126    0.0000 C   0  0  0  0  0  0  0  0  0  0  0  0
    0.7145    4.5376    0.0000 Br  0  0  0  0  0  0  0  0  0  0  0  0
    0.0000    3.3001    0.0000 C   0  0  0  0  0  0  0  0  0  0  0  0
    0.0000    2.4751    0.0000 C   0  0  0  0  0  0  0  0  0  0  0  0
    0.7145    1.2376    0.0000 C   0  0  0  0  0  0  0  0  0  0  0  0
    0.0000    0.8251    0.0000 C   0  0  0  0  0  0  0  0  0  0  0  0
    0.0000    0.0001    0.0000 C   0  0  0  0  0  0  0  0  0  0  0  0
    0.7145   -0.4124    0.0000 C   0  0  0  0  0  0  0  0  0  0  0  0
    0.7145   -1.2374    0.0000 Br  0  0  0  0  0  0  0  0  0  0  0  0
    1.4290    0.0001    0.0000 C   0  0  0  0  0  0  0  0  0  0  0  0
    1.4290    0.8251    0.0000 C   0  0  0  0  0  0  0  0  0  0  0  0
  2  1  1  0  0  0  0
  3  2  2  0  0  0  0
  4  3  1  0  0  0  0
  4  5  1  0  0  0  0
  6  4  2  0  0  0  0
  7  6  1  0  0  0  0
  1  7  2  0  0  0  0
  1  8  1  0  0  0  0
  9  8  1  0  0  0  0
 10  9  2  0  0  0  0
 11 10  1  0  0  0  0
 11 12  1  0  0  0  0
 13 11  2  0  0  0  0
 14 13  1  0  0  0  0
  8 14  2  0  0  0  0
M  END
> <ChemID>
100086

> <CAS>
92-86-4

> <Original_SMILES>
Brc1ccc(cc1)-c1ccc(Br)cc1

> <preferred_name>
1,1'-Biphenyl, 4,4'-dibromo-

> <dsstox_substance_id>
DTXSID1059072

> <dsstox_compound_id>
DTXCID3048780

> <qc_level>
Public_High

> <Canonical_QSARr>
BrC1C=CC(=CC=1)C1C=CC(Br)=CC=1

> <InChI_Code_QSARr>
InChI=1S/C12H8Br2/c13-11-5-1-9(2-6-11)10-3-7-12(14)8-4-10/h1-8H

> <InChI Key_QSARr>
HQJQYILBCQPYBI-UHFFFAOYSA-N

> <Salt_Solvent>


> <Salt_Solvent_ID>
0

> <MPID>
101722

> <LogKmHL>
1.57

> <Tr_1_Tst_0>
0

$$$$
100087
  Mrv171c012251910542D          

 12 13  0  0  0  0            999 V2000
    3.3684   -2.5292    0.0000 O   0  0  0  0  0  0  0  0  0  0  0  0
    3.3684   -1.7042    0.0000 N   0  3  0  0  0  0  0  0  0  0  0  0
    4.0828   -1.2917    0.0000 O   0  5  0  0  0  0  0  0  0  0  0  0
    2.6539   -1.2917    0.0000 C   0  0  0  0  0  0  0  0  0  0  0  0
    2.6539   -0.4667    0.0000 C   0  0  0  0  0  0  0  0  0  0  0  0
    1.9394   -0.0542    0.0000 C   0  0  0  0  0  0  0  0  0  0  0  0
    1.2249   -0.4667    0.0000 C   0  0  0  0  0  0  0  0  0  0  0  0
    0.4403   -0.2118    0.0000 N   0  0  0  0  0  0  0  0  0  0  0  0
   -0.0446   -0.8792    0.0000 C   0  0  0  0  0  0  0  0  0  0  0  0
    0.4403   -1.5467    0.0000 N   0  0  0  0  0  0  0  0  0  0  0  0
    1.2249   -1.2917    0.0000 C   0  0  0  0  0  0  0  0  0  0  0  0
    1.9394   -1.7042    0.0000 C   0  0  0  0  0  0  0  0  0  0  0  0
  1  2  2  0  0  0  0
  2  3  1  0  0  0  0
  2  4  1  0  0  0  0
  5  4  1  0  0  0  0
  6  5  2  0  0  0  0
  7  6  1  0  0  0  0
  7  8  1  0  0  0  0
  8  9  1  0  0  0  0
  9 10  2  0  0  0  0
 10 11  1  0  0  0  0
 11  7  2  0  0  0  0
 12 11  1  0  0  0  0
  4 12  2  0  0  0  0
M  CHG  2   2   1   3  -1
M  END
> <ChemID>
100087

> <CAS>
94-52-0

> <Original_SMILES>
[O-][N+](=O)c1cc2[n]c[nH]c2cc1

> <preferred_name>
6-Nitrobenzimidazole

> <dsstox_substance_id>
DTXSID8020965

> <dsstox_compound_id>
DTXCID60965

> <qc_level>
DSSTox_Low

> <Canonical_QSARr>
[O-][N+](=O)C1=CC2N=CNC=2C=C1

> <InChI_Code_QSARr>
InChI=1S/C7H5N3O2/c11-10(12)5-1-2-6-7(3-5)9-4-8-6/h1-4H,(H,8,9)

> <InChI Key_QSARr>
XPAZGLFMMUODDK-UHFFFAOYSA-N

> <Salt_Solvent>


> <Salt_Solvent_ID>
0

> <MPID>
101723

> <LogKmHL>
-1.15

> <Tr_1_Tst_0>
1

$$$$
100088
  Mrv171c012251910542D          

  9 10  0  0  0  0            999 V2000
    2.6971   -0.4105    0.0000 C   0  0  0  0  0  0  0  0  0  0  0  0
    1.9827    0.0020    0.0000 C   0  0  0  0  0  0  0  0  0  0  0  0
    1.2682   -0.4105    0.0000 C   0  0  0  0  0  0  0  0  0  0  0  0
    0.4836   -0.1556    0.0000 S   0  0  0  0  0  0  0  0  0  0  0  0
   -0.0014   -0.8230    0.0000 C   0  0  0  0  0  0  0  0  0  0  0  0
    0.4836   -1.4904    0.0000 N   0  0  0  0  0  0  0  0  0  0  0  0
    1.2682   -1.2355    0.0000 C   0  0  0  0  0  0  0  0  0  0  0  0
    1.9827   -1.6480    0.0000 C   0  0  0  0  0  0  0  0  0  0  0  0
    2.6971   -1.2355    0.0000 C   0  0  0  0  0  0  0  0  0  0  0  0
  2  1  1  0  0  0  0
  3  2  2  0  0  0  0
  3  4  1  0  0  0  0
  4  5  1  0  0  0  0
  5  6  2  0  0  0  0
  6  7  1  0  0  0  0
  7  3  1  0  0  0  0
  8  7  2  0  0  0  0
  9  8  1  0  0  0  0
  1  9  2  0  0  0  0
M  END
> <ChemID>
100088

> <CAS>
95-16-9

> <Original_SMILES>
c1[n]c2ccccc2[s]1

> <preferred_name>
Benzothiazole

> <dsstox_substance_id>
DTXSID7024586

> <dsstox_compound_id>
DTXCID204586

> <qc_level>
DSSTox_Low

> <Canonical_QSARr>
C1=NC2=CC=CC=C2S1

> <InChI_Code_QSARr>
InChI=1S/C7H5NS/c1-2-4-7-6(3-1)8-5-9-7/h1-5H

> <InChI Key_QSARr>
IOJUPLGTWVMSFF-UHFFFAOYSA-N

> <Salt_Solvent>


> <Salt_Solvent_ID>
0

> <MPID>
101724

> <LogKmHL>
-0.86

> <Tr_1_Tst_0>
1

$$$$
100089
  Mrv171c012251910542D          

  8  8  0  0  0  0            999 V2000
    0.0913   -0.7358    0.0000 O   0  0  0  0  0  0  0  0  0  0  0  0
    0.8057   -1.1483    0.0000 C   0  0  0  0  0  0  0  0  0  0  0  0
    0.8057   -1.9733    0.0000 C   0  0  0  0  0  0  0  0  0  0  0  0
    1.5202   -2.3858    0.0000 C   0  0  0  0  0  0  0  0  0  0  0  0
    2.2347   -1.9733    0.0000 C   0  0  0  0  0  0  0  0  0  0  0  0
    2.2347   -1.1483    0.0000 C   0  0  0  0  0  0  0  0  0  0  0  0
    1.5202   -0.7358    0.0000 C   0  0  0  0  0  0  0  0  0  0  0  0
    1.5202    0.0892    0.0000 C   0  0  0  0  0  0  0  0  0  0  0  0
  1  2  1  0  0  0  0
  3  2  1  0  0  0  0
  4  3  2  0  0  0  0
  5  4  1  0  0  0  0
  6  5  2  0  0  0  0
  7  6  1  0  0  0  0
  2  7  2  0  0  0  0
  7  8  1  0  0  0  0
M  END
> <ChemID>
100089

> <CAS>
95-48-7

> <Original_SMILES>
Cc1ccccc1O

> <preferred_name>
o-Cresol

> <dsstox_substance_id>
DTXSID8021808

> <dsstox_compound_id>
DTXCID901808

> <qc_level>
DSSTox_Low

> <Canonical_QSARr>
CC1C=CC=CC=1O

> <InChI_Code_QSARr>
InChI=1S/C7H8O/c1-6-4-2-3-5-7(6)8/h2-5,8H,1H3

> <InChI Key_QSARr>
QWVGKYWNOKOFNN-UHFFFAOYSA-N

> <Salt_Solvent>


> <Salt_Solvent_ID>
0

> <MPID>
101725

> <LogKmHL>
-0.52

> <Tr_1_Tst_0>
1

$$$$
100090
  Mrv171c012251910542D          

  8  8  0  0  0  0            999 V2000
    1.7860   -1.2382    0.0000 C   0  0  0  0  0  0  0  0  0  0  0  0
    2.5005   -0.8257    0.0000 C   0  0  0  0  0  0  0  0  0  0  0  0
    1.0716   -0.8257    0.0000 C   0  0  0  0  0  0  0  0  0  0  0  0
    1.0716   -0.0007    0.0000 Cl  0  0  0  0  0  0  0  0  0  0  0  0
    0.3571   -1.2382    0.0000 C   0  0  0  0  0  0  0  0  0  0  0  0
    0.3571   -2.0632    0.0000 C   0  0  0  0  0  0  0  0  0  0  0  0
    1.0716   -2.4757    0.0000 C   0  0  0  0  0  0  0  0  0  0  0  0
    1.7860   -2.0632    0.0000 C   0  0  0  0  0  0  0  0  0  0  0  0
  1  2  1  0  0  0  0
  3  1  2  0  0  0  0
  3  4  1  0  0  0  0
  5  3  1  0  0  0  0
  6  5  2  0  0  0  0
  7  6  1  0  0  0  0
  8  7  2  0  0  0  0
  1  8  1  0  0  0  0
M  END
> <ChemID>
100090

> <CAS>
95-49-8

> <Original_SMILES>
Cc1ccccc1Cl

> <preferred_name>
2-Chlorotoluene

> <dsstox_substance_id>
DTXSID8023977

> <dsstox_compound_id>
DTXCID003977

> <qc_level>
DSSTox_Low

> <Canonical_QSARr>
CC1C=CC=CC=1Cl

> <InChI_Code_QSARr>
InChI=1S/C7H7Cl/c1-6-4-2-3-5-7(6)8/h2-5H,1H3

> <InChI Key_QSARr>
IBSQPLPBRSHTTG-UHFFFAOYSA-N

> <Salt_Solvent>


> <Salt_Solvent_ID>
0

> <MPID>
101726

> <LogKmHL>
-0.72

> <Tr_1_Tst_0>
0

$$$$
100091
  Mrv171c012251910542D          

  8  8  0  0  0  0            999 V2000
    0.0913   -0.7358    0.0000 Cl  0  0  0  0  0  0  0  0  0  0  0  0
    0.8057   -1.1483    0.0000 C   0  0  0  0  0  0  0  0  0  0  0  0
    0.8057   -1.9733    0.0000 C   0  0  0  0  0  0  0  0  0  0  0  0
    1.5202   -2.3858    0.0000 C   0  0  0  0  0  0  0  0  0  0  0  0
    2.2347   -1.9733    0.0000 C   0  0  0  0  0  0  0  0  0  0  0  0
    2.2347   -1.1483    0.0000 C   0  0  0  0  0  0  0  0  0  0  0  0
    1.5202   -0.7358    0.0000 C   0  0  0  0  0  0  0  0  0  0  0  0
    1.5202    0.0892    0.0000 Cl  0  0  0  0  0  0  0  0  0  0  0  0
  1  2  1  0  0  0  0
  3  2  1  0  0  0  0
  4  3  2  0  0  0  0
  5  4  1  0  0  0  0
  6  5  2  0  0  0  0
  7  6  1  0  0  0  0
  2  7  2  0  0  0  0
  7  8  1  0  0  0  0
M  END
> <ChemID>
100091

> <CAS>
95-50-1

> <Original_SMILES>
Clc1ccccc1Cl

> <preferred_name>
1,2-Dichlorobenzene

> <dsstox_substance_id>
DTXSID6020430

> <dsstox_compound_id>
DTXCID00430

> <qc_level>
DSSTox_Low

> <Canonical_QSARr>
ClC1C=CC=CC=1Cl

> <InChI_Code_QSARr>
InChI=1S/C6H4Cl2/c7-5-3-1-2-4-6(5)8/h1-4H

> <InChI Key_QSARr>
RFFLAFLAYFXFSW-UHFFFAOYSA-N

> <Salt_Solvent>


> <Salt_Solvent_ID>
0

> <MPID>
101727

> <LogKmHL>
0.5

> <Tr_1_Tst_0>
1

$$$$
100092
  Mrv171c012251910542D          

  8  8  0  0  0  0            999 V2000
    0.0913   -0.7358    0.0000 N   0  0  0  0  0  0  0  0  0  0  0  0
    0.8057   -1.1483    0.0000 C   0  0  0  0  0  0  0  0  0  0  0  0
    0.8057   -1.9733    0.0000 C   0  0  0  0  0  0  0  0  0  0  0  0
    1.5202   -2.3858    0.0000 C   0  0  0  0  0  0  0  0  0  0  0  0
    2.2347   -1.9733    0.0000 C   0  0  0  0  0  0  0  0  0  0  0  0
    2.2347   -1.1483    0.0000 C   0  0  0  0  0  0  0  0  0  0  0  0
    1.5202   -0.7358    0.0000 C   0  0  0  0  0  0  0  0  0  0  0  0
    1.5202    0.0892    0.0000 Cl  0  0  0  0  0  0  0  0  0  0  0  0
  1  2  1  0  0  0  0
  3  2  1  0  0  0  0
  4  3  2  0  0  0  0
  5  4  1  0  0  0  0
  6  5  2  0  0  0  0
  7  6  1  0  0  0  0
  2  7  2  0  0  0  0
  7  8  1  0  0  0  0
M  END
> <ChemID>
100092

> <CAS>
95-51-2

> <Original_SMILES>
Nc1ccccc1Cl

> <preferred_name>
2-Chloroaniline

> <dsstox_substance_id>
DTXSID2021810

> <dsstox_compound_id>
DTXCID001810

> <qc_level>
DSSTox_Low

> <Canonical_QSARr>
NC1C=CC=CC=1Cl

> <InChI_Code_QSARr>
InChI=1S/C6H6ClN/c7-5-3-1-2-4-6(5)8/h1-4H,8H2

> <InChI Key_QSARr>
AKCRQHGQIJBRMN-UHFFFAOYSA-N

> <Salt_Solvent>


> <Salt_Solvent_ID>
0

> <MPID>
101728

> <LogKmHL>
-0.61

> <Tr_1_Tst_0>
1

$$$$
100093
  Mrv171c012251910542D          

  8  8  0  0  0  0            999 V2000
    1.4296   -1.2347    0.0000 C   0  0  0  0  0  0  0  0  0  0  0  0
    2.1440   -0.8222    0.0000 Br  0  0  0  0  0  0  0  0  0  0  0  0
    0.7151   -0.8222    0.0000 C   0  0  0  0  0  0  0  0  0  0  0  0
    0.7151    0.0028    0.0000 O   0  0  0  0  0  0  0  0  0  0  0  0
    0.0006   -1.2347    0.0000 C   0  0  0  0  0  0  0  0  0  0  0  0
    0.0006   -2.0597    0.0000 C   0  0  0  0  0  0  0  0  0  0  0  0
    0.7151   -2.4722    0.0000 C   0  0  0  0  0  0  0  0  0  0  0  0
    1.4296   -2.0597    0.0000 C   0  0  0  0  0  0  0  0  0  0  0  0
  1  2  1  0  0  0  0
  3  1  2  0  0  0  0
  3  4  1  0  0  0  0
  5  3  1  0  0  0  0
  6  5  2  0  0  0  0
  7  6  1  0  0  0  0
  8  7  2  0  0  0  0
  1  8  1  0  0  0  0
M  END
> <ChemID>
100093

> <CAS>
95-56-7

> <Original_SMILES>
Oc1ccccc1Br

> <preferred_name>
2-Bromophenol

> <dsstox_substance_id>
DTXSID8052641

> <dsstox_compound_id>
DTXCID5031214

> <qc_level>
DSSTox_Low

> <Canonical_QSARr>
OC1C=CC=CC=1Br

> <InChI_Code_QSARr>
InChI=1S/C6H5BrO/c7-5-3-1-2-4-6(5)8/h1-4,8H

> <InChI Key_QSARr>
VADKRMSMGWJZCF-UHFFFAOYSA-N

> <Salt_Solvent>


> <Salt_Solvent_ID>
0

> <MPID>
101729

> <LogKmHL>
-0.24

> <Tr_1_Tst_0>
1

$$$$
100094
  Mrv171c012251910542D          

  8  8  0  0  0  0            999 V2000
    2.3863   -0.7358    0.0000 O   0  0  0  0  0  0  0  0  0  0  0  0
    1.6718   -1.1483    0.0000 C   0  0  0  0  0  0  0  0  0  0  0  0
    0.9573   -0.7358    0.0000 C   0  0  0  0  0  0  0  0  0  0  0  0
    0.9573    0.0892    0.0000 Cl  0  0  0  0  0  0  0  0  0  0  0  0
    0.2429   -1.1483    0.0000 C   0  0  0  0  0  0  0  0  0  0  0  0
    0.2429   -1.9733    0.0000 C   0  0  0  0  0  0  0  0  0  0  0  0
    0.9573   -2.3858    0.0000 C   0  0  0  0  0  0  0  0  0  0  0  0
    1.6718   -1.9733    0.0000 C   0  0  0  0  0  0  0  0  0  0  0  0
  1  2  1  0  0  0  0
  3  2  1  0  0  0  0
  3  4  1  0  0  0  0
  5  3  2  0  0  0  0
  6  5  1  0  0  0  0
  7  6  2  0  0  0  0
  8  7  1  0  0  0  0
  2  8  2  0  0  0  0
M  END
> <ChemID>
100094

> <CAS>
95-57-8

> <Original_SMILES>
Oc1ccccc1Cl

> <preferred_name>
2-Chlorophenol

> <dsstox_substance_id>
DTXSID5021544

> <dsstox_compound_id>
DTXCID901544

> <qc_level>
DSSTox_Low

> <Canonical_QSARr>
OC1=CC=CC=C1Cl

> <InChI_Code_QSARr>
InChI=1S/C6H5ClO/c7-5-3-1-2-4-6(5)8/h1-4,8H

> <InChI Key_QSARr>
ISPYQTSUDJAMAB-UHFFFAOYSA-N

> <Salt_Solvent>


> <Salt_Solvent_ID>
0

> <MPID>
101730

> <LogKmHL>
-0.38

> <Tr_1_Tst_0>
0

$$$$
100095
  Mrv171c012251910542D          

  9  9  0  0  0  0            999 V2000
    2.5410   -1.6499    0.0000 C   0  0  0  0  0  0  0  0  0  0  0  0
    1.8266   -1.2374    0.0000 C   0  0  0  0  0  0  0  0  0  0  0  0
    1.8266   -0.4124    0.0000 C   0  0  0  0  0  0  0  0  0  0  0  0
    1.1121    0.0001    0.0000 C   0  0  0  0  0  0  0  0  0  0  0  0
    1.1121    0.8251    0.0000 C   0  0  0  0  0  0  0  0  0  0  0  0
    0.3976   -0.4124    0.0000 C   0  0  0  0  0  0  0  0  0  0  0  0
    0.3976   -1.2374    0.0000 C   0  0  0  0  0  0  0  0  0  0  0  0
    1.1121   -1.6499    0.0000 C   0  0  0  0  0  0  0  0  0  0  0  0
    1.1121   -2.4749    0.0000 C   0  0  0  0  0  0  0  0  0  0  0  0
  1  2  1  0  0  0  0
  3  2  1  0  0  0  0
  4  3  2  0  0  0  0
  4  5  1  0  0  0  0
  6  4  1  0  0  0  0
  7  6  2  0  0  0  0
  8  7  1  0  0  0  0
  2  8  2  0  0  0  0
  8  9  1  0  0  0  0
M  END
> <ChemID>
100095

> <CAS>
95-63-6

> <Original_SMILES>
Cc1cc(C)c(C)cc1

> <preferred_name>
1,2,4-Trimethylbenzene

> <dsstox_substance_id>
DTXSID6021402

> <dsstox_compound_id>
DTXCID701402

> <qc_level>
DSSTox_Low

> <Canonical_QSARr>
CC1=CC(C)=C(C)C=C1

> <InChI_Code_QSARr>
InChI=1S/C9H12/c1-7-4-5-8(2)9(3)6-7/h4-6H,1-3H3

> <InChI Key_QSARr>
GWHJZXXIDMPWGX-UHFFFAOYSA-N

> <Salt_Solvent>


> <Salt_Solvent_ID>
0

> <MPID>
101731

> <LogKmHL>
-0.31

> <Tr_1_Tst_0>
1

$$$$
100096
  Mrv171c012251910542D          

  9  9  0  0  0  0            999 V2000
    2.8588   -0.1833    0.0000 C   0  0  0  0  0  0  0  0  0  0  0  0
    2.1443   -0.5958    0.0000 C   0  0  0  0  0  0  0  0  0  0  0  0
    1.4298   -0.1833    0.0000 C   0  0  0  0  0  0  0  0  0  0  0  0
    1.4298    0.6417    0.0000 C   0  0  0  0  0  0  0  0  0  0  0  0
    0.7153   -0.5958    0.0000 C   0  0  0  0  0  0  0  0  0  0  0  0
    0.7153   -1.4208    0.0000 C   0  0  0  0  0  0  0  0  0  0  0  0
    1.4298   -1.8333    0.0000 C   0  0  0  0  0  0  0  0  0  0  0  0
    1.4298   -2.6583    0.0000 N   0  0  0  0  0  0  0  0  0  0  0  0
    2.1443   -1.4208    0.0000 C   0  0  0  0  0  0  0  0  0  0  0  0
  1  2  1  0  0  0  0
  3  2  1  0  0  0  0
  3  4  1  0  0  0  0
  5  3  2  0  0  0  0
  6  5  1  0  0  0  0
  7  6  2  0  0  0  0
  7  8  1  0  0  0  0
  9  7  1  0  0  0  0
  2  9  2  0  0  0  0
M  END
> <ChemID>
100096

> <CAS>
95-64-7

> <Original_SMILES>
Cc1cc(N)ccc1C

> <preferred_name>
3,4-Dimethylaniline

> <dsstox_substance_id>
DTXSID3026308

> <dsstox_compound_id>
DTXCID406308

> <qc_level>
DSSTox_Low

> <Canonical_QSARr>
CC1=CC(N)=CC=C1C

> <InChI_Code_QSARr>
InChI=1S/C8H11N/c1-6-3-4-8(9)5-7(6)2/h3-5H,9H2,1-2H3

> <InChI Key_QSARr>
DOLQYFPDPKPQSS-UHFFFAOYSA-N

> <Salt_Solvent>


> <Salt_Solvent_ID>
0

> <MPID>
101732

> <LogKmHL>
-0.99

> <Tr_1_Tst_0>
1

$$$$
100097
  Mrv171c012251910542D          

  9  9  0  0  0  0            999 V2000
    1.4296   -2.6583    0.0000 N   0  0  0  0  0  0  0  0  0  0  0  0
    1.4296   -1.8333    0.0000 C   0  0  0  0  0  0  0  0  0  0  0  0
    2.1441   -1.4208    0.0000 C   0  0  0  0  0  0  0  0  0  0  0  0
    2.1441   -0.5958    0.0000 C   0  0  0  0  0  0  0  0  0  0  0  0
    1.4296   -0.1833    0.0000 C   0  0  0  0  0  0  0  0  0  0  0  0
    1.4296    0.6417    0.0000 Cl  0  0  0  0  0  0  0  0  0  0  0  0
    0.7151   -0.5958    0.0000 C   0  0  0  0  0  0  0  0  0  0  0  0
    0.0007   -0.1833    0.0000 Cl  0  0  0  0  0  0  0  0  0  0  0  0
    0.7151   -1.4208    0.0000 C   0  0  0  0  0  0  0  0  0  0  0  0
  1  2  1  0  0  0  0
  3  2  1  0  0  0  0
  4  3  2  0  0  0  0
  5  4  1  0  0  0  0
  5  6  1  0  0  0  0
  7  5  2  0  0  0  0
  7  8  1  0  0  0  0
  9  7  1  0  0  0  0
  2  9  2  0  0  0  0
M  END
> <ChemID>
100097

> <CAS>
95-76-1

> <Original_SMILES>
Nc1cc(Cl)c(Cl)cc1

> <preferred_name>
3,4-Dichloroaniline

> <dsstox_substance_id>
DTXSID7021815

> <dsstox_compound_id>
DTXCID001815

> <qc_level>
DSSTox_Low

> <Canonical_QSARr>
NC1=CC(Cl)=C(Cl)C=C1

> <InChI_Code_QSARr>
InChI=1S/C6H5Cl2N/c7-5-2-1-4(9)3-6(5)8/h1-3H,9H2

> <InChI Key_QSARr>
SDYWXFYBZPNOFX-UHFFFAOYSA-N

> <Salt_Solvent>


> <Salt_Solvent_ID>
0

> <MPID>
101733

> <LogKmHL>
-1.09

> <Tr_1_Tst_0>
1

$$$$
100098
  Mrv171c012251910542D          

  9  9  0  0  0  0            999 V2000
    2.8587   -0.1833    0.0000 Cl  0  0  0  0  0  0  0  0  0  0  0  0
    2.1442   -0.5958    0.0000 C   0  0  0  0  0  0  0  0  0  0  0  0
    1.4298   -0.1833    0.0000 C   0  0  0  0  0  0  0  0  0  0  0  0
    1.4298    0.6417    0.0000 Cl  0  0  0  0  0  0  0  0  0  0  0  0
    0.7153   -0.5958    0.0000 C   0  0  0  0  0  0  0  0  0  0  0  0
    0.7153   -1.4208    0.0000 C   0  0  0  0  0  0  0  0  0  0  0  0
    1.4298   -1.8333    0.0000 C   0  0  0  0  0  0  0  0  0  0  0  0
    1.4298   -2.6583    0.0000 O   0  0  0  0  0  0  0  0  0  0  0  0
    2.1442   -1.4208    0.0000 C   0  0  0  0  0  0  0  0  0  0  0  0
  1  2  1  0  0  0  0
  3  2  1  0  0  0  0
  3  4  1  0  0  0  0
  5  3  2  0  0  0  0
  6  5  1  0  0  0  0
  7  6  2  0  0  0  0
  7  8  1  0  0  0  0
  9  7  1  0  0  0  0
  2  9  2  0  0  0  0
M  END
> <ChemID>
100098

> <CAS>
95-77-2

> <Original_SMILES>
Oc1cc(Cl)c(Cl)cc1

> <preferred_name>
3,4-Dichlorophenol

> <dsstox_substance_id>
DTXSID7025005

> <dsstox_compound_id>
DTXCID505005

> <qc_level>
DSSTox_Low

> <Canonical_QSARr>
OC1C=C(Cl)C(Cl)=CC=1

> <InChI_Code_QSARr>
InChI=1S/C6H4Cl2O/c7-5-2-1-4(9)3-6(5)8/h1-3,9H

> <InChI Key_QSARr>
WDNBURPWRNALGP-UHFFFAOYSA-N

> <Salt_Solvent>


> <Salt_Solvent_ID>
0

> <MPID>
101734

> <LogKmHL>
-0.92

> <Tr_1_Tst_0>
0

$$$$
100099
  Mrv171c012251910542D          

  9  9  0  0  0  0            999 V2000
    2.5410   -1.6499    0.0000 N   0  0  0  0  0  0  0  0  0  0  0  0
    1.8266   -1.2374    0.0000 C   0  0  0  0  0  0  0  0  0  0  0  0
    1.8266   -0.4124    0.0000 C   0  0  0  0  0  0  0  0  0  0  0  0
    1.1121    0.0001    0.0000 C   0  0  0  0  0  0  0  0  0  0  0  0
    1.1121    0.8251    0.0000 C   0  0  0  0  0  0  0  0  0  0  0  0
    0.3976   -0.4124    0.0000 C   0  0  0  0  0  0  0  0  0  0  0  0
    0.3976   -1.2374    0.0000 C   0  0  0  0  0  0  0  0  0  0  0  0
    1.1121   -1.6499    0.0000 C   0  0  0  0  0  0  0  0  0  0  0  0
    1.1121   -2.4749    0.0000 C   0  0  0  0  0  0  0  0  0  0  0  0
  1  2  1  0  0  0  0
  3  2  1  0  0  0  0
  4  3  2  0  0  0  0
  4  5  1  0  0  0  0
  6  4  1  0  0  0  0
  7  6  2  0  0  0  0
  8  7  1  0  0  0  0
  2  8  2  0  0  0  0
  8  9  1  0  0  0  0
M  END
> <ChemID>
100099

> <CAS>
95-78-3

> <Original_SMILES>
Cc1cc(N)c(C)cc1

> <preferred_name>
2,5-Dimethylaniline

> <dsstox_substance_id>
DTXSID3026306

> <dsstox_compound_id>
DTXCID606306

> <qc_level>
DSSTox_Low

> <Canonical_QSARr>
CC1=CC(N)=C(C)C=C1

> <InChI_Code_QSARr>
InChI=1S/C8H11N/c1-6-3-4-7(2)8(9)5-6/h3-5H,9H2,1-2H3

> <InChI Key_QSARr>
VOWZNBNDMFLQGM-UHFFFAOYSA-N

> <Salt_Solvent>


> <Salt_Solvent_ID>
0

> <MPID>
101735

> <LogKmHL>
-0.99

> <Tr_1_Tst_0>
1

$$$$
100100
  Mrv171c012251910542D          

  9  9  0  0  0  0            999 V2000
    2.5410   -1.6499    0.0000 N   0  0  0  0  0  0  0  0  0  0  0  0
    1.8265   -1.2374    0.0000 C   0  0  0  0  0  0  0  0  0  0  0  0
    1.8265   -0.4124    0.0000 C   0  0  0  0  0  0  0  0  0  0  0  0
    1.1121    0.0001    0.0000 C   0  0  0  0  0  0  0  0  0  0  0  0
    1.1121    0.8251    0.0000 Cl  0  0  0  0  0  0  0  0  0  0  0  0
    0.3976   -0.4124    0.0000 C   0  0  0  0  0  0  0  0  0  0  0  0
    0.3976   -1.2374    0.0000 C   0  0  0  0  0  0  0  0  0  0  0  0
    1.1121   -1.6499    0.0000 C   0  0  0  0  0  0  0  0  0  0  0  0
    1.1121   -2.4749    0.0000 Cl  0  0  0  0  0  0  0  0  0  0  0  0
  1  2  1  0  0  0  0
  3  2  1  0  0  0  0
  4  3  2  0  0  0  0
  4  5  1  0  0  0  0
  6  4  1  0  0  0  0
  7  6  2  0  0  0  0
  8  7  1  0  0  0  0
  2  8  2  0  0  0  0
  8  9  1  0  0  0  0
M  END
> <ChemID>
100100

> <CAS>
95-82-9

> <Original_SMILES>
Nc1cc(Cl)ccc1Cl

> <preferred_name>
2,5-Dichloroaniline

> <dsstox_substance_id>
DTXSID6024967

> <dsstox_compound_id>
DTXCID804967

> <qc_level>
DSSTox_Low

> <Canonical_QSARr>
NC1C=C(Cl)C=CC=1Cl

> <InChI_Code_QSARr>
InChI=1S/C6H5Cl2N/c7-4-1-2-5(8)6(9)3-4/h1-3H,9H2

> <InChI Key_QSARr>
AVYGCQXNNJPXSS-UHFFFAOYSA-N

> <Salt_Solvent>


> <Salt_Solvent_ID>
0

> <MPID>
101736

> <LogKmHL>
-1.13

> <Tr_1_Tst_0>
1

$$$$
100101
  Mrv171c012251910542D          

 10 10  0  0  0  0            999 V2000
    3.0867   -0.6079    0.0000 Cl  0  0  0  0  0  0  0  0  0  0  0  0
    2.3722   -1.0204    0.0000 C   0  0  0  0  0  0  0  0  0  0  0  0
    1.6577   -0.6079    0.0000 C   0  0  0  0  0  0  0  0  0  0  0  0
    1.6577    0.2171    0.0000 Cl  0  0  0  0  0  0  0  0  0  0  0  0
    0.9433   -1.0204    0.0000 C   0  0  0  0  0  0  0  0  0  0  0  0
    0.9433   -1.8454    0.0000 C   0  0  0  0  0  0  0  0  0  0  0  0
    0.2288   -2.2579    0.0000 Cl  0  0  0  0  0  0  0  0  0  0  0  0
    1.6577   -2.2579    0.0000 C   0  0  0  0  0  0  0  0  0  0  0  0
    1.6577   -3.0829    0.0000 Cl  0  0  0  0  0  0  0  0  0  0  0  0
    2.3722   -1.8454    0.0000 C   0  0  0  0  0  0  0  0  0  0  0  0
  1  2  1  0  0  0  0
  3  2  2  0  0  0  0
  3  4  1  0  0  0  0
  5  3  1  0  0  0  0
  6  5  2  0  0  0  0
  6  7  1  0  0  0  0
  8  6  1  0  0  0  0
  8  9  1  0  0  0  0
 10  8  2  0  0  0  0
  2 10  1  0  0  0  0
M  END
> <ChemID>
100101

> <CAS>
95-94-3

> <Original_SMILES>
Clc1cc(Cl)c(Cl)cc1Cl

> <preferred_name>
1,2,4,5-Tetrachlorobenzene

> <dsstox_substance_id>
DTXSID7024320

> <dsstox_compound_id>
DTXCID604320

> <qc_level>
DSSTox_Low

> <Canonical_QSARr>
ClC1C=C(Cl)C(Cl)=CC=1Cl

> <InChI_Code_QSARr>
InChI=1S/C6H2Cl4/c7-3-1-4(8)6(10)2-5(3)9/h1-2H

> <InChI Key_QSARr>
JHBKHLUZVFWLAG-UHFFFAOYSA-N

> <Salt_Solvent>


> <Salt_Solvent_ID>
0

> <MPID>
101737

> <LogKmHL>
1.79

> <Tr_1_Tst_0>
1

$$$$
100102
  Mrv171c012251910542D          

  6  5  0  0  0  0            999 V2000
    0.8266   -1.6670    0.0000 Br  0  0  0  0  0  0  0  0  0  0  0  0
    1.2391   -0.9525    0.0000 C   0  0  0  0  0  0  0  0  0  0  0  0
    2.0641   -0.9525    0.0000 C   0  0  0  0  0  0  0  0  0  0  0  0
    2.4766   -1.6670    0.0000 Br  0  0  0  0  0  0  0  0  0  0  0  0
    0.8266   -0.2381    0.0000 C   0  0  0  0  0  0  0  0  0  0  0  0
    0.0016   -0.2381    0.0000 Cl  0  0  0  0  0  0  0  0  0  0  0  0
  1  2  1  0  0  0  0
  2  3  1  0  0  0  0
  3  4  1  0  0  0  0
  2  5  1  0  0  0  0
  5  6  1  0  0  0  0
M  END
> <ChemID>
100102

> <CAS>
96-12-8

> <Original_SMILES>
ClCC(Br)CBr

> <preferred_name>
1,2-Dibromo-3-chloropropane

> <dsstox_substance_id>
DTXSID3020413

> <dsstox_compound_id>
DTXCID50413

> <qc_level>
DSSTox_Low

> <Canonical_QSARr>
ClCC(Br)CBr

> <InChI_Code_QSARr>
InChI=1S/C3H5Br2Cl/c4-1-3(5)2-6/h3H,1-2H2

> <InChI Key_QSARr>
WBEJYOJJBDISQU-UHFFFAOYSA-N

> <Salt_Solvent>


> <Salt_Solvent_ID>
0

> <MPID>
101738

> <LogKmHL>
-1.14

> <Tr_1_Tst_0>
0

$$$$
100103
  Mrv171c012251910542D          

  6  5  0  0  0  0            999 V2000
    0.8266   -1.6670    0.0000 Cl  0  0  0  0  0  0  0  0  0  0  0  0
    1.2391   -0.9525    0.0000 C   0  0  0  0  0  0  0  0  0  0  0  0
    2.0641   -0.9525    0.0000 C   0  0  0  0  0  0  0  0  0  0  0  0
    2.4766   -1.6670    0.0000 Cl  0  0  0  0  0  0  0  0  0  0  0  0
    0.8266   -0.2381    0.0000 C   0  0  0  0  0  0  0  0  0  0  0  0
    0.0016   -0.2381    0.0000 Cl  0  0  0  0  0  0  0  0  0  0  0  0
  1  2  1  0  0  0  0
  2  3  1  0  0  0  0
  3  4  1  0  0  0  0
  2  5  1  0  0  0  0
  5  6  1  0  0  0  0
M  END
> <ChemID>
100103

> <CAS>
96-18-4

> <Original_SMILES>
ClC(CCl)CCl

> <preferred_name>
1,2,3-Trichloropropane

> <dsstox_substance_id>
DTXSID9021390

> <dsstox_compound_id>
DTXCID401390

> <qc_level>
DSSTox_Low

> <Canonical_QSARr>
ClC(CCl)CCl

> <InChI_Code_QSARr>
InChI=1S/C3H5Cl3/c4-1-3(6)2-5/h3H,1-2H2

> <InChI Key_QSARr>
CFXQEHVMCRXUSD-UHFFFAOYSA-N

> <Salt_Solvent>


> <Salt_Solvent_ID>
0

> <MPID>
101739

> <LogKmHL>
-0.53

> <Tr_1_Tst_0>
1

$$$$
100104
  Mrv171c012251910542D          

  6  5  0  0  0  0            999 V2000
    2.8146   -0.1146    0.0000 C   0  0  0  0  0  0  0  0  0  0  0  0
    1.9896   -0.1146    0.0000 C   0  0  0  0  0  0  0  0  0  0  0  0
    1.5771   -0.8291    0.0000 C   0  0  0  0  0  0  0  0  0  0  0  0
    0.7521   -0.8291    0.0000 N   0  0  0  0  0  0  0  0  0  0  0  0
    0.3396   -1.5436    0.0000 O   0  0  0  0  0  0  0  0  0  0  0  0
    1.9896   -1.5436    0.0000 C   0  0  0  0  0  0  0  0  0  0  0  0
  1  2  1  0  0  0  0
  2  3  1  0  0  0  0
  3  4  2  0  0  0  0
  4  5  1  4  0  0  0
  3  6  1  0  0  0  0
M  END
> <ChemID>
100104

> <CAS>
96-29-7

> <Original_SMILES>
CCC(C)=NO

> <preferred_name>
2-Butanone oxime

> <dsstox_substance_id>
DTXSID1021821

> <dsstox_compound_id>
DTXCID701821

> <qc_level>
DSSTox_Low

> <Canonical_QSARr>
CCC(C)=NO

> <InChI_Code_QSARr>
InChI=1S/C4H9NO/c1-3-4(2)5-6/h6H,3H2,1-2H3

> <InChI Key_QSARr>
WHIVNJATOVLWBW-UHFFFAOYSA-N

> <Salt_Solvent>


> <Salt_Solvent_ID>
0

> <MPID>
101740

> <LogKmHL>
-1.33

> <Tr_1_Tst_0>
1

$$$$
100105
  Mrv171c012251910542D          

 15 15  0  0  0  0            999 V2000
    1.6800   -2.7827    0.0000 C   0  0  0  0  0  0  0  0  0  0  0  0
    2.3945   -2.3702    0.0000 C   0  0  0  0  0  0  0  0  0  0  0  0
    2.3945   -1.5452    0.0000 C   0  0  0  0  0  0  0  0  0  0  0  0
    1.6800   -1.1327    0.0000 C   0  0  0  0  0  0  0  0  0  0  0  0
    1.6800   -0.3077    0.0000 C   0  0  0  0  0  0  0  0  0  0  0  0
    1.6800    0.5173    0.0000 C   0  0  0  0  0  0  0  0  0  0  0  0
    0.8550   -0.3077    0.0000 C   0  0  0  0  0  0  0  0  0  0  0  0
    2.5050   -0.3077    0.0000 C   0  0  0  0  0  0  0  0  0  0  0  0
    0.9655   -1.5452    0.0000 C   0  0  0  0  0  0  0  0  0  0  0  0
    0.9655   -2.3702    0.0000 C   0  0  0  0  0  0  0  0  0  0  0  0
    0.2511   -2.7827    0.0000 C   0  0  0  0  0  0  0  0  0  0  0  0
   -0.4634   -3.1952    0.0000 C   0  0  0  0  0  0  0  0  0  0  0  0
   -0.1614   -2.0682    0.0000 C   0  0  0  0  0  0  0  0  0  0  0  0
    0.6636   -3.4972    0.0000 C   0  0  0  0  0  0  0  0  0  0  0  0
    1.6800   -3.6077    0.0000 O   0  0  0  0  0  0  0  0  0  0  0  0
  2  1  1  0  0  0  0
  3  2  2  0  0  0  0
  4  3  1  0  0  0  0
  4  5  1  0  0  0  0
  5  6  1  0  0  0  0
  5  7  1  0  0  0  0
  5  8  1  0  0  0  0
  9  4  2  0  0  0  0
 10  9  1  0  0  0  0
  1 10  2  0  0  0  0
 10 11  1  0  0  0  0
 11 12  1  0  0  0  0
 11 13  1  0  0  0  0
 11 14  1  0  0  0  0
  1 15  1  0  0  0  0
M  END
> <ChemID>
100105

> <CAS>
96-76-4

> <Original_SMILES>
CC(C)(C)c1cc(ccc1O)C(C)(C)C

> <preferred_name>
2,4-Di-tert-butylphenol

> <dsstox_substance_id>
DTXSID2026602

> <dsstox_compound_id>
DTXCID606602

> <qc_level>
DSSTox_Low

> <Canonical_QSARr>
CC(C)(C)C1C=C(C=CC=1O)C(C)(C)C

> <InChI_Code_QSARr>
InChI=1S/C14H22O/c1-13(2,3)10-7-8-12(15)11(9-10)14(4,5)6/h7-9,15H,1-6H3

> <InChI Key_QSARr>
ICKWICRCANNIBI-UHFFFAOYSA-N

> <Salt_Solvent>


> <Salt_Solvent_ID>
0

> <MPID>
101741

> <LogKmHL>
-0.37

> <Tr_1_Tst_0>
1

$$$$
100106
  Mrv171c012251910542D          

 12 12  0  0  0  0            999 V2000
    2.6240   -1.5145    0.0000 C   0  0  0  0  0  0  0  0  0  0  0  0
    3.3385   -1.1020    0.0000 N   0  0  0  0  0  0  0  0  0  0  0  0
    1.9096   -1.1020    0.0000 C   0  0  0  0  0  0  0  0  0  0  0  0
    1.9096   -0.2770    0.0000 N   0  3  0  0  0  0  0  0  0  0  0  0
    1.1951    0.1355    0.0000 O   0  0  0  0  0  0  0  0  0  0  0  0
    2.6240    0.1355    0.0000 O   0  5  0  0  0  0  0  0  0  0  0  0
    1.1951   -1.5145    0.0000 C   0  0  0  0  0  0  0  0  0  0  0  0
    1.1951   -2.3395    0.0000 C   0  0  0  0  0  0  0  0  0  0  0  0
    0.4806   -2.7520    0.0000 O   0  0  0  0  0  0  0  0  0  0  0  0
    0.4806   -3.5770    0.0000 C   0  0  0  0  0  0  0  0  0  0  0  0
    1.9096   -2.7520    0.0000 C   0  0  0  0  0  0  0  0  0  0  0  0
    2.6240   -2.3395    0.0000 C   0  0  0  0  0  0  0  0  0  0  0  0
  1  2  1  0  0  0  0
  3  1  1  0  0  0  0
  3  4  1  0  0  0  0
  4  5  2  0  0  0  0
  4  6  1  0  0  0  0
  7  3  2  0  0  0  0
  8  7  1  0  0  0  0
  8  9  1  0  0  0  0
  9 10  1  0  0  0  0
 11  8  2  0  0  0  0
 12 11  1  0  0  0  0
  1 12  2  0  0  0  0
M  CHG  2   4   1   6  -1
M  END
> <ChemID>
100106

> <CAS>
96-96-8

> <Original_SMILES>
COc1cc(c(N)cc1)[N+]([O-])=O

> <preferred_name>
4-Methoxy-2-nitroaniline

> <dsstox_substance_id>
DTXSID3044750

> <dsstox_compound_id>
DTXCID1024750

> <qc_level>
DSSTox_Low

> <Canonical_QSARr>
COC1C=C(C(N)=CC=1)[N+]([O-])=O

> <InChI_Code_QSARr>
InChI=1S/C7H8N2O3/c1-12-5-2-3-6(8)7(4-5)9(10)11/h2-4H,8H2,1H3

> <InChI Key_QSARr>
QFMJFXFXQAFGBO-UHFFFAOYSA-N

> <Salt_Solvent>


> <Salt_Solvent_ID>
0

> <MPID>
101742

> <LogKmHL>
-0.87

> <Tr_1_Tst_0>
0

$$$$
100107
  Mrv171c012251910542D          

 17 18  0  0  0  0            999 V2000
    0.0822   -2.5206    0.0000 O   0  0  0  0  0  0  0  0  0  0  0  0
    0.7967   -2.9331    0.0000 C   0  0  0  0  0  0  0  0  0  0  0  0
    1.5111   -2.5206    0.0000 C   0  0  0  0  0  0  0  0  0  0  0  0
    1.5111   -1.6956    0.0000 C   0  0  0  0  0  0  0  0  0  0  0  0
    2.2256   -1.2831    0.0000 C   0  0  0  0  0  0  0  0  0  0  0  0
    2.9401   -1.6956    0.0000 C   0  0  0  0  0  0  0  0  0  0  0  0
    2.9401   -2.5206    0.0000 O   0  0  0  0  0  0  0  0  0  0  0  0
    3.6545   -1.2831    0.0000 C   0  0  0  0  0  0  0  0  0  0  0  0
    3.6545   -0.4581    0.0000 C   0  0  0  0  0  0  0  0  0  0  0  0
    2.9401   -0.0456    0.0000 C   0  0  0  0  0  0  0  0  0  0  0  0
    2.9401    0.7794    0.0000 Cl  0  0  0  0  0  0  0  0  0  0  0  0
    2.2256   -0.4581    0.0000 C   0  0  0  0  0  0  0  0  0  0  0  0
    2.2256   -2.9331    0.0000 C   0  0  0  0  0  0  0  0  0  0  0  0
    2.2256   -3.7581    0.0000 C   0  0  0  0  0  0  0  0  0  0  0  0
    2.9401   -4.1706    0.0000 Cl  0  0  0  0  0  0  0  0  0  0  0  0
    1.5111   -4.1706    0.0000 C   0  0  0  0  0  0  0  0  0  0  0  0
    0.7967   -3.7581    0.0000 C   0  0  0  0  0  0  0  0  0  0  0  0
  1  2  1  0  0  0  0
  3  2  1  0  0  0  0
  3  4  1  0  0  0  0
  4  5  1  0  0  0  0
  6  5  1  0  0  0  0
  6  7  1  0  0  0  0
  8  6  2  0  0  0  0
  9  8  1  0  0  0  0
 10  9  2  0  0  0  0
 10 11  1  0  0  0  0
 12 10  1  0  0  0  0
  5 12  2  0  0  0  0
 13  3  2  0  0  0  0
 14 13  1  0  0  0  0
 14 15  1  0  0  0  0
 16 14  2  0  0  0  0
 17 16  1  0  0  0  0
  2 17  2  0  0  0  0
M  END
> <ChemID>
100107

> <CAS>
97-23-4

> <Original_SMILES>
Oc1ccc(Cl)cc1Cc1cc(Cl)ccc1O

> <preferred_name>
Dichlorophen

> <dsstox_substance_id>
DTXSID6021824

> <dsstox_compound_id>
DTXCID901824

> <qc_level>
DSSTox_High

> <Canonical_QSARr>
OC1=CC=C(Cl)C=C1CC1=CC(Cl)=CC=C1O

> <InChI_Code_QSARr>
InChI=1S/C13H10Cl2O2/c14-10-1-3-12(16)8(6-10)5-9-7-11(15)2-4-13(9)17/h1-4,6-7,16-17H,5H2

> <InChI Key_QSARr>
MDNWOSOZYLHTCG-UHFFFAOYSA-N

> <Salt_Solvent>


> <Salt_Solvent_ID>
0

> <MPID>
101743

> <LogKmHL>
-0.51

> <Tr_1_Tst_0>
1

$$$$
100108
  Mrv171c012251910542D          

 10 10  0  0  0  0            999 V2000
    1.5649    0.9089    0.0000 F   0  0  0  0  0  0  0  0  0  0  0  0
    1.5649    0.0839    0.0000 C   0  0  0  0  0  0  0  0  0  0  0  0
    1.5649   -0.7411    0.0000 C   0  0  0  0  0  0  0  0  0  0  0  0
    0.8505   -1.1536    0.0000 C   0  0  0  0  0  0  0  0  0  0  0  0
    0.8505   -1.9786    0.0000 C   0  0  0  0  0  0  0  0  0  0  0  0
    1.5649   -2.3911    0.0000 C   0  0  0  0  0  0  0  0  0  0  0  0
    2.2794   -1.9786    0.0000 C   0  0  0  0  0  0  0  0  0  0  0  0
    2.2794   -1.1536    0.0000 C   0  0  0  0  0  0  0  0  0  0  0  0
    0.7399    0.0839    0.0000 F   0  0  0  0  0  0  0  0  0  0  0  0
    2.3899    0.0839    0.0000 F   0  0  0  0  0  0  0  0  0  0  0  0
  1  2  1  0  0  0  0
  2  3  1  0  0  0  0
  4  3  1  0  0  0  0
  5  4  2  0  0  0  0
  6  5  1  0  0  0  0
  7  6  2  0  0  0  0
  8  7  1  0  0  0  0
  3  8  2  0  0  0  0
  2  9  1  0  0  0  0
  2 10  1  0  0  0  0
M  END
> <ChemID>
100108

> <CAS>
98-08-8

> <Original_SMILES>
FC(F)(F)c1ccccc1

> <preferred_name>
Benzotrifluoride

> <dsstox_substance_id>
DTXSID2024589

> <dsstox_compound_id>
DTXCID404589

> <qc_level>
DSSTox_Low

> <Canonical_QSARr>
FC(F)(F)C1C=CC=CC=1

> <InChI_Code_QSARr>
InChI=1S/C7H5F3/c8-7(9,10)6-4-2-1-3-5-6/h1-5H

> <InChI Key_QSARr>
GETTZEONDQJALK-UHFFFAOYSA-N

> <Salt_Solvent>


> <Salt_Solvent_ID>
0

> <MPID>
101744

> <LogKmHL>
-0.48

> <Tr_1_Tst_0>
1

$$$$
100109
  Mrv171c012251910542D          

 10 10  0  0  0  0            999 V2000
    0.7145    1.2375    0.0000 C   0  0  0  0  0  0  0  0  0  0  0  0
    0.7145    2.0625    0.0000 S   0  0  0  0  0  0  0  0  0  0  0  0
    0.7145    2.8875    0.0000 O   0  0  0  0  0  0  0  0  0  0  0  0
   -0.1105    2.0625    0.0000 O   0  0  0  0  0  0  0  0  0  0  0  0
    1.5395    2.0625    0.0000 N   0  0  0  0  0  0  0  0  0  0  0  0
    0.0000    0.8250    0.0000 C   0  0  0  0  0  0  0  0  0  0  0  0
    0.0000   -0.0000    0.0000 C   0  0  0  0  0  0  0  0  0  0  0  0
    0.7145   -0.4125    0.0000 C   0  0  0  0  0  0  0  0  0  0  0  0
    1.4289    0.0000    0.0000 C   0  0  0  0  0  0  0  0  0  0  0  0
    1.4289    0.8250    0.0000 C   0  0  0  0  0  0  0  0  0  0  0  0
  1  2  1  0  0  0  0
  2  3  2  0  0  0  0
  2  4  2  0  0  0  0
  2  5  1  0  0  0  0
  6  1  1  0  0  0  0
  7  6  2  0  0  0  0
  8  7  1  0  0  0  0
  9  8  2  0  0  0  0
 10  9  1  0  0  0  0
  1 10  2  0  0  0  0
M  END
> <ChemID>
100109

> <CAS>
98-10-2

> <Original_SMILES>
NS(=O)(=O)c1ccccc1

> <preferred_name>
Benzenesulfonamide

> <dsstox_substance_id>
DTXSID1059159

> <dsstox_compound_id>
DTXCID8049042

> <qc_level>
Public_High

> <Canonical_QSARr>
NS(=O)(=O)C1C=CC=CC=1

> <InChI_Code_QSARr>
InChI=1S/C6H7NO2S/c7-10(8,9)6-4-2-1-3-5-6/h1-5H,(H2,7,8,9)

> <InChI Key_QSARr>
KHBQMWCZKVMBLN-UHFFFAOYSA-N

> <Salt_Solvent>


> <Salt_Solvent_ID>
0

> <MPID>
101745

> <LogKmHL>
-0.71

> <Tr_1_Tst_0>
1

$$$$
100110
  Mrv171c012251910542D          

 11 11  0  0  0  0            999 V2000
    3.2481   -2.2887    0.0000 F   0  0  0  0  0  0  0  0  0  0  0  0
    2.5337   -1.8762    0.0000 C   0  0  0  0  0  0  0  0  0  0  0  0
    1.8192   -1.4637    0.0000 C   0  0  0  0  0  0  0  0  0  0  0  0
    1.8192   -0.6387    0.0000 C   0  0  0  0  0  0  0  0  0  0  0  0
    1.1047   -0.2262    0.0000 C   0  0  0  0  0  0  0  0  0  0  0  0
    1.1047    0.5988    0.0000 Cl  0  0  0  0  0  0  0  0  0  0  0  0
    0.3903   -0.6387    0.0000 C   0  0  0  0  0  0  0  0  0  0  0  0
    0.3903   -1.4637    0.0000 C   0  0  0  0  0  0  0  0  0  0  0  0
    1.1047   -1.8762    0.0000 C   0  0  0  0  0  0  0  0  0  0  0  0
    2.9462   -1.1617    0.0000 F   0  0  0  0  0  0  0  0  0  0  0  0
    2.1212   -2.5907    0.0000 F   0  0  0  0  0  0  0  0  0  0  0  0
  1  2  1  0  0  0  0
  2  3  1  0  0  0  0
  4  3  1  0  0  0  0
  5  4  2  0  0  0  0
  5  6  1  0  0  0  0
  7  5  1  0  0  0  0
  8  7  2  0  0  0  0
  9  8  1  0  0  0  0
  3  9  2  0  0  0  0
  2 10  1  0  0  0  0
  2 11  1  0  0  0  0
M  END
> <ChemID>
100110

> <CAS>
98-15-7

> <Original_SMILES>
FC(F)(F)c1cccc(Cl)c1

> <preferred_name>
3-Chlorobenzotrifluoride

> <dsstox_substance_id>
DTXSID4024773

> <dsstox_compound_id>
DTXCID104773

> <qc_level>
DSSTox_Low

> <Canonical_QSARr>
FC(F)(F)C1C=C(Cl)C=CC=1

> <InChI_Code_QSARr>
InChI=1S/C7H4ClF3/c8-6-3-1-2-5(4-6)7(9,10)11/h1-4H

> <InChI Key_QSARr>
YTCGOUNVIAWCMG-UHFFFAOYSA-N

> <Salt_Solvent>


> <Salt_Solvent_ID>
0

> <MPID>
101746

> <LogKmHL>
0.64

> <Tr_1_Tst_0>
0

$$$$
100111
  Mrv171c012251910542D          

 11 11  0  0  0  0            999 V2000
    2.1750   -1.1250    0.0000 C   0  0  0  0  0  0  0  0  0  0  0  0
    2.1750   -1.9500    0.0000 C   0  0  0  0  0  0  0  0  0  0  0  0
    2.1750   -2.7750    0.0000 C   0  0  0  0  0  0  0  0  0  0  0  0
    3.0000   -1.9500    0.0000 C   0  0  0  0  0  0  0  0  0  0  0  0
    1.3500   -1.9500    0.0000 C   0  0  0  0  0  0  0  0  0  0  0  0
    2.8895   -0.7125    0.0000 C   0  0  0  0  0  0  0  0  0  0  0  0
    2.8895    0.1125    0.0000 C   0  0  0  0  0  0  0  0  0  0  0  0
    2.1750    0.5250    0.0000 C   0  0  0  0  0  0  0  0  0  0  0  0
    2.1750    1.3500    0.0000 C   0  0  0  0  0  0  0  0  0  0  0  0
    1.4606    0.1125    0.0000 C   0  0  0  0  0  0  0  0  0  0  0  0
    1.4606   -0.7125    0.0000 C   0  0  0  0  0  0  0  0  0  0  0  0
  1  2  1  0  0  0  0
  2  3  1  0  0  0  0
  2  4  1  0  0  0  0
  2  5  1  0  0  0  0
  6  1  1  0  0  0  0
  7  6  2  0  0  0  0
  8  7  1  0  0  0  0
  8  9  1  0  0  0  0
 10  8  2  0  0  0  0
 11 10  1  0  0  0  0
  1 11  2  0  0  0  0
M  END
> <ChemID>
100111

> <CAS>
98-51-1

> <Original_SMILES>
Cc1ccc(cc1)C(C)(C)C

> <preferred_name>
4-tert-Butyltoluene

> <dsstox_substance_id>
DTXSID1024704

> <dsstox_compound_id>
DTXCID404704

> <qc_level>
DSSTox_Low

> <Canonical_QSARr>
CC1C=CC(=CC=1)C(C)(C)C

> <InChI_Code_QSARr>
InChI=1S/C11H16/c1-9-5-7-10(8-6-9)11(2,3)4/h5-8H,1-4H3

> <InChI Key_QSARr>
QCWXDVFBZVHKLV-UHFFFAOYSA-N

> <Salt_Solvent>


> <Salt_Solvent_ID>
0

> <MPID>
101747

> <LogKmHL>
0.31

> <Tr_1_Tst_0>
1

$$$$
100112
  Mrv171c012251910542D          

 11 11  0  0  0  0            999 V2000
    2.1750   -1.9500    0.0000 C   0  0  0  0  0  0  0  0  0  0  0  0
    2.1750   -2.7750    0.0000 C   0  0  0  0  0  0  0  0  0  0  0  0
    3.0000   -1.9500    0.0000 C   0  0  0  0  0  0  0  0  0  0  0  0
    1.3500   -1.9500    0.0000 C   0  0  0  0  0  0  0  0  0  0  0  0
    2.1750   -1.1250    0.0000 C   0  0  0  0  0  0  0  0  0  0  0  0
    2.8895   -0.7125    0.0000 C   0  0  0  0  0  0  0  0  0  0  0  0
    2.8895    0.1125    0.0000 C   0  0  0  0  0  0  0  0  0  0  0  0
    2.1750    0.5250    0.0000 C   0  0  0  0  0  0  0  0  0  0  0  0
    2.1750    1.3500    0.0000 O   0  0  0  0  0  0  0  0  0  0  0  0
    1.4606    0.1125    0.0000 C   0  0  0  0  0  0  0  0  0  0  0  0
    1.4606   -0.7125    0.0000 C   0  0  0  0  0  0  0  0  0  0  0  0
  1  2  1  0  0  0  0
  1  3  1  0  0  0  0
  1  4  1  0  0  0  0
  1  5  1  0  0  0  0
  6  5  1  0  0  0  0
  7  6  2  0  0  0  0
  8  7  1  0  0  0  0
  8  9  1  0  0  0  0
 10  8  2  0  0  0  0
 11 10  1  0  0  0  0
  5 11  2  0  0  0  0
M  END
> <ChemID>
100112

> <CAS>
98-54-4

> <Original_SMILES>
CC(C)(C)c1ccc(O)cc1

> <preferred_name>
4-tert-Butylphenol

> <dsstox_substance_id>
DTXSID1020221

> <dsstox_compound_id>
DTXCID90221

> <qc_level>
DSSTox_Low

> <Canonical_QSARr>
CC(C)(C)C1C=CC(O)=CC=1

> <InChI_Code_QSARr>
InChI=1S/C10H14O/c1-10(2,3)8-4-6-9(11)7-5-8/h4-7,11H,1-3H3

> <InChI Key_QSARr>
QHPQWRBYOIRBIT-UHFFFAOYSA-N

> <Salt_Solvent>


> <Salt_Solvent_ID>
0

> <MPID>
101748

> <LogKmHL>
-0.87

> <Tr_1_Tst_0>
1

$$$$
100113
  Mrv171c012251910542D          

  9  9  0  0  0  0            999 V2000
    1.4193    0.2939    0.0000 C   0  0  0  0  0  0  0  0  0  0  0  0
    1.4193   -0.5311    0.0000 C   0  0  0  0  0  0  0  0  0  0  0  0
    0.7048   -0.9436    0.0000 C   0  0  0  0  0  0  0  0  0  0  0  0
    0.7048   -1.7686    0.0000 C   0  0  0  0  0  0  0  0  0  0  0  0
    1.4193   -2.1811    0.0000 C   0  0  0  0  0  0  0  0  0  0  0  0
    2.1337   -1.7686    0.0000 C   0  0  0  0  0  0  0  0  0  0  0  0
    2.1337   -0.9436    0.0000 C   0  0  0  0  0  0  0  0  0  0  0  0
    0.7048    0.7064    0.0000 C   0  0  0  0  0  0  0  0  0  0  0  0
    2.1337    0.7064    0.0000 C   0  0  0  0  0  0  0  0  0  0  0  0
  1  2  1  0  0  0  0
  3  2  1  0  0  0  0
  4  3  2  0  0  0  0
  5  4  1  0  0  0  0
  6  5  2  0  0  0  0
  7  6  1  0  0  0  0
  2  7  2  0  0  0  0
  1  8  2  0  0  0  0
  1  9  1  0  0  0  0
M  END
> <ChemID>
100113

> <CAS>
98-83-9

> <Original_SMILES>
CC(=C)c1ccccc1

> <preferred_name>
alpha-Methylstyrene

> <dsstox_substance_id>
DTXSID9025661

> <dsstox_compound_id>
DTXCID905661

> <qc_level>
DSSTox_Low

> <Canonical_QSARr>
CC(=C)C1C=CC=CC=1

> <InChI_Code_QSARr>
InChI=1S/C9H10/c1-8(2)9-6-4-3-5-7-9/h3-7H,1H2,2H3

> <InChI Key_QSARr>
XYLMUPLGERFSHI-UHFFFAOYSA-N

> <Salt_Solvent>


> <Salt_Solvent_ID>
0

> <MPID>
101749

> <LogKmHL>
-0.71

> <Tr_1_Tst_0>
1

$$$$
100115
  Mrv171c012251910542D          

  9  9  0  0  0  0            999 V2000
    2.1337    0.7064    0.0000 O   0  0  0  0  0  0  0  0  0  0  0  0
    1.4193    0.2939    0.0000 N   0  3  0  0  0  0  0  0  0  0  0  0
    0.7048    0.7064    0.0000 O   0  5  0  0  0  0  0  0  0  0  0  0
    1.4193   -0.5311    0.0000 C   0  0  0  0  0  0  0  0  0  0  0  0
    0.7048   -0.9436    0.0000 C   0  0  0  0  0  0  0  0  0  0  0  0
    0.7048   -1.7686    0.0000 C   0  0  0  0  0  0  0  0  0  0  0  0
    1.4193   -2.1811    0.0000 C   0  0  0  0  0  0  0  0  0  0  0  0
    2.1337   -1.7686    0.0000 C   0  0  0  0  0  0  0  0  0  0  0  0
    2.1337   -0.9436    0.0000 C   0  0  0  0  0  0  0  0  0  0  0  0
  1  2  2  0  0  0  0
  2  3  1  0  0  0  0
  2  4  1  0  0  0  0
  5  4  1  0  0  0  0
  6  5  2  0  0  0  0
  7  6  1  0  0  0  0
  8  7  2  0  0  0  0
  9  8  1  0  0  0  0
  4  9  2  0  0  0  0
M  CHG  2   2   1   3  -1
M  END
> <ChemID>
100115

> <CAS>
98-95-3

> <Original_SMILES>
[O-][N+](=O)c1ccccc1

> <preferred_name>
Nitrobenzene

> <dsstox_substance_id>
DTXSID3020964

> <dsstox_compound_id>
DTXCID30964

> <qc_level>
DSSTox_Low

> <Canonical_QSARr>
[O-][N+](=O)C1C=CC=CC=1

> <InChI_Code_QSARr>
InChI=1S/C6H5NO2/c8-7(9)6-4-2-1-3-5-6/h1-5H

> <InChI Key_QSARr>
LQNUZADURLCDLV-UHFFFAOYSA-N

> <Salt_Solvent>


> <Salt_Solvent_ID>
0

> <MPID>
101750

> <LogKmHL>
-0.93

> <Tr_1_Tst_0>
0

$$$$
100116
  Mrv171c012251910542D          

 10 10  0  0  0  0            999 V2000
    0.0338   -2.6052    0.0000 C   0  0  0  0  0  0  0  0  0  0  0  0
    0.7483   -2.1927    0.0000 C   0  0  0  0  0  0  0  0  0  0  0  0
    1.4628   -2.6052    0.0000 C   0  0  0  0  0  0  0  0  0  0  0  0
    2.1772   -2.1927    0.0000 C   0  0  0  0  0  0  0  0  0  0  0  0
    2.1772   -1.3677    0.0000 C   0  0  0  0  0  0  0  0  0  0  0  0
    1.4628   -0.9552    0.0000 C   0  0  0  0  0  0  0  0  0  0  0  0
    1.4628   -0.1302    0.0000 N   0  3  0  0  0  0  0  0  0  0  0  0
    0.7483    0.2823    0.0000 O   0  5  0  0  0  0  0  0  0  0  0  0
    2.1772    0.2823    0.0000 O   0  0  0  0  0  0  0  0  0  0  0  0
    0.7483   -1.3677    0.0000 C   0  0  0  0  0  0  0  0  0  0  0  0
  1  2  1  0  0  0  0
  3  2  1  0  0  0  0
  4  3  2  0  0  0  0
  5  4  1  0  0  0  0
  6  5  2  0  0  0  0
  6  7  1  0  0  0  0
  7  8  1  0  0  0  0
  7  9  2  0  0  0  0
 10  6  1  0  0  0  0
  2 10  2  0  0  0  0
M  CHG  2   7   1   8  -1
M  END
> <ChemID>
100116

> <CAS>
99-08-1

> <Original_SMILES>
Cc1cc(ccc1)[N+]([O-])=O

> <preferred_name>
3-Nitrotoluene

> <dsstox_substance_id>
DTXSID5021831

> <dsstox_compound_id>
DTXCID001831

> <qc_level>
DSSTox_Low

> <Canonical_QSARr>
CC1=CC(=CC=C1)[N+]([O-])=O

> <InChI_Code_QSARr>
InChI=1S/C7H7NO2/c1-6-3-2-4-7(5-6)8(9)10/h2-5H,1H3

> <InChI Key_QSARr>
QZYHIOPPLUPUJF-UHFFFAOYSA-N

> <Salt_Solvent>


> <Salt_Solvent_ID>
0

> <MPID>
101751

> <LogKmHL>
-0.79

> <Tr_1_Tst_0>
1

$$$$
100117
  Mrv171c012251910542D          

 10 10  0  0  0  0            999 V2000
    2.2482   -1.9860    0.0000 N   0  3  0  0  0  0  0  0  0  0  0  0
    1.5337   -1.5735    0.0000 C   0  0  0  0  0  0  0  0  0  0  0  0
    1.5337   -0.7485    0.0000 C   0  0  0  0  0  0  0  0  0  0  0  0
    0.8192   -0.3360    0.0000 C   0  0  0  0  0  0  0  0  0  0  0  0
    0.8192    0.4890    0.0000 N   0  0  0  0  0  0  0  0  0  0  0  0
    0.1048   -0.7485    0.0000 C   0  0  0  0  0  0  0  0  0  0  0  0
    0.1048   -1.5735    0.0000 C   0  0  0  0  0  0  0  0  0  0  0  0
    0.8192   -1.9860    0.0000 C   0  0  0  0  0  0  0  0  0  0  0  0
    2.9627   -1.5735    0.0000 O   0  5  0  0  0  0  0  0  0  0  0  0
    2.2482   -2.8110    0.0000 O   0  0  0  0  0  0  0  0  0  0  0  0
  1  2  1  0  0  0  0
  3  2  1  0  0  0  0
  4  3  2  0  0  0  0
  4  5  1  0  0  0  0
  6  4  1  0  0  0  0
  7  6  2  0  0  0  0
  8  7  1  0  0  0  0
  2  8  2  0  0  0  0
  1  9  1  0  0  0  0
  1 10  2  0  0  0  0
M  CHG  2   1   1   9  -1
M  END
> <ChemID>
100117

> <CAS>
99-09-2

> <Original_SMILES>
Nc1cc(ccc1)[N+]([O-])=O

> <preferred_name>
3-Nitroaniline

> <dsstox_substance_id>
DTXSID6025725

> <dsstox_compound_id>
DTXCID505725

> <qc_level>
DSSTox_High

> <Canonical_QSARr>
NC1=CC(=CC=C1)[N+]([O-])=O

> <InChI_Code_QSARr>
InChI=1S/C6H6N2O2/c7-5-2-1-3-6(4-5)8(9)10/h1-4H,7H2

> <InChI Key_QSARr>
XJCVRTZCHMZPBD-UHFFFAOYSA-N

> <Salt_Solvent>


> <Salt_Solvent_ID>
0

> <MPID>
101752

> <LogKmHL>
-0.77

> <Tr_1_Tst_0>
1

$$$$
100118
  Mrv171c012251910542D          

 11 11  0  0  0  0            999 V2000
    3.0507   -2.0835    0.0000 N   0  3  0  0  0  0  0  0  0  0  0  0
    2.3362   -1.6710    0.0000 C   0  0  0  0  0  0  0  0  0  0  0  0
    2.3362   -0.8460    0.0000 C   0  0  0  0  0  0  0  0  0  0  0  0
    1.6217   -0.4335    0.0000 C   0  0  0  0  0  0  0  0  0  0  0  0
    1.6217    0.3915    0.0000 Cl  0  0  0  0  0  0  0  0  0  0  0  0
    0.9073   -0.8460    0.0000 C   0  0  0  0  0  0  0  0  0  0  0  0
    0.1928   -0.4335    0.0000 Cl  0  0  0  0  0  0  0  0  0  0  0  0
    0.9073   -1.6710    0.0000 C   0  0  0  0  0  0  0  0  0  0  0  0
    1.6217   -2.0835    0.0000 C   0  0  0  0  0  0  0  0  0  0  0  0
    3.7651   -1.6710    0.0000 O   0  5  0  0  0  0  0  0  0  0  0  0
    3.0507   -2.9085    0.0000 O   0  0  0  0  0  0  0  0  0  0  0  0
  1  2  1  0  0  0  0
  3  2  1  0  0  0  0
  4  3  2  0  0  0  0
  4  5  1  0  0  0  0
  6  4  1  0  0  0  0
  6  7  1  0  0  0  0
  8  6  2  0  0  0  0
  9  8  1  0  0  0  0
  2  9  2  0  0  0  0
  1 10  1  0  0  0  0
  1 11  2  0  0  0  0
M  CHG  2   1   1  10  -1
M  END
> <ChemID>
100118

> <CAS>
99-54-7

> <Original_SMILES>
[O-][N+](=O)c1cc(Cl)c(Cl)cc1

> <preferred_name>
3,4-Dichloronitrobenzene

> <dsstox_substance_id>
DTXSID8024999

> <dsstox_compound_id>
DTXCID504999

> <qc_level>
DSSTox_Low

> <Canonical_QSARr>
[O-][N+](=O)C1C=C(Cl)C(Cl)=CC=1

> <InChI_Code_QSARr>
InChI=1S/C6H3Cl2NO2/c7-5-2-1-4(9(10)11)3-6(5)8/h1-3H

> <InChI Key_QSARr>
NTBYINQTYWZXLH-UHFFFAOYSA-N

> <Salt_Solvent>


> <Salt_Solvent_ID>
0

> <MPID>
101753

> <LogKmHL>
-0.27

> <Tr_1_Tst_0>
1

$$$$
100119
  Mrv171c012251910542D          

 12 12  0  0  0  0            999 V2000
    2.4342   -1.8225    0.0000 C   0  0  0  0  0  0  0  0  0  0  0  0
    3.1487   -2.2350    0.0000 C   0  0  0  0  0  0  0  0  0  0  0  0
    3.1487   -3.0600    0.0000 C   0  0  0  0  0  0  0  0  0  0  0  0
    3.8632   -1.8225    0.0000 C   0  0  0  0  0  0  0  0  0  0  0  0
    2.4342   -0.9975    0.0000 C   0  0  0  0  0  0  0  0  0  0  0  0
    1.7198   -0.5850    0.0000 C   0  0  0  0  0  0  0  0  0  0  0  0
    1.7198    0.2400    0.0000 C   0  0  0  0  0  0  0  0  0  0  0  0
    1.0053    0.6525    0.0000 C   0  0  0  0  0  0  0  0  0  0  0  0
    2.4342    0.6525    0.0000 C   0  0  0  0  0  0  0  0  0  0  0  0
    1.0053   -0.9975    0.0000 C   0  0  0  0  0  0  0  0  0  0  0  0
    1.0053   -1.8225    0.0000 C   0  0  0  0  0  0  0  0  0  0  0  0
    1.7198   -2.2350    0.0000 C   0  0  0  0  0  0  0  0  0  0  0  0
  1  2  1  0  0  0  0
  2  3  1  0  0  0  0
  2  4  1  0  0  0  0
  5  1  1  0  0  0  0
  6  5  2  0  0  0  0
  6  7  1  0  0  0  0
  7  8  1  0  0  0  0
  7  9  1  0  0  0  0
 10  6  1  0  0  0  0
 11 10  2  0  0  0  0
 12 11  1  0  0  0  0
  1 12  2  0  0  0  0
M  END
> <ChemID>
100119

> <CAS>
99-62-7

> <Original_SMILES>
CC(C)c1cc(ccc1)C(C)C

> <preferred_name>
1,3-Diisopropylbenzene

> <dsstox_substance_id>
DTXSID8026640

> <dsstox_compound_id>
DTXCID006640

> <qc_level>
DSSTox_Low

> <Canonical_QSARr>
CC(C)C1C=C(C=CC=1)C(C)C

> <InChI_Code_QSARr>
InChI=1S/C12H18/c1-9(2)11-6-5-7-12(8-11)10(3)4/h5-10H,1-4H3

> <InChI Key_QSARr>
UNEATYXSUBPPKP-UHFFFAOYSA-N

> <Salt_Solvent>


> <Salt_Solvent_ID>
0

> <MPID>
101754

> <LogKmHL>
0.56

> <Tr_1_Tst_0>
0

$$$$
100120
  Mrv171c012251910542D          

 11 11  0  0  0  0            999 V2000
    1.6875   -1.8697    0.0000 C   0  0  0  0  0  0  0  0  0  0  0  0
    1.6875   -2.6947    0.0000 C   0  0  0  0  0  0  0  0  0  0  0  0
    2.4020   -3.1072    0.0000 C   0  0  0  0  0  0  0  0  0  0  0  0
    0.9730   -3.1072    0.0000 C   0  0  0  0  0  0  0  0  0  0  0  0
    0.9730   -3.9322    0.0000 C   0  0  0  0  0  0  0  0  0  0  0  0
    2.4020   -1.4572    0.0000 C   0  0  0  0  0  0  0  0  0  0  0  0
    2.4020   -0.6322    0.0000 C   0  0  0  0  0  0  0  0  0  0  0  0
    1.6875   -0.2197    0.0000 C   0  0  0  0  0  0  0  0  0  0  0  0
    1.6875    0.6053    0.0000 O   0  0  0  0  0  0  0  0  0  0  0  0
    0.9730   -0.6322    0.0000 C   0  0  0  0  0  0  0  0  0  0  0  0
    0.9730   -1.4572    0.0000 C   0  0  0  0  0  0  0  0  0  0  0  0
  1  2  1  0  0  0  0
  2  3  1  0  0  0  0
  2  4  1  0  0  0  0
  4  5  1  0  0  0  0
  6  1  1  0  0  0  0
  7  6  2  0  0  0  0
  8  7  1  0  0  0  0
  8  9  1  0  0  0  0
 10  8  2  0  0  0  0
 11 10  1  0  0  0  0
  1 11  2  0  0  0  0
M  END
> <ChemID>
100120

> <CAS>
99-71-8

> <Original_SMILES>
CCC(C)c1ccc(O)cc1

> <preferred_name>
4-(Butan-2-yl)phenol

> <dsstox_substance_id>
DTXSID7022332

> <dsstox_compound_id>
DTXCID502332

> <qc_level>
DSSTox_Low

> <Canonical_QSARr>
CC(CC)C1C=CC(O)=CC=1

> <InChI_Code_QSARr>
InChI=1S/C10H14O/c1-3-8(2)9-4-6-10(11)7-5-9/h4-8,11H,3H2,1-2H3

> <InChI Key_QSARr>
ZUTYZAFDFLLILI-UHFFFAOYSA-N

> <Salt_Solvent>


> <Salt_Solvent_ID>
0

> <MPID>
101755

> <LogKmHL>
-0.84

> <Tr_1_Tst_0>
1

$$$$
100121
  Mrv171c012251910542D          

 10 10  0  0  0  0            999 V2000
    2.7572   -0.8138    0.0000 C   0  0  0  0  0  0  0  0  0  0  0  0
    2.0427   -0.4013    0.0000 C   0  0  0  0  0  0  0  0  0  0  0  0
    2.0427    0.4237    0.0000 N   0  3  0  0  0  0  0  0  0  0  0  0
    1.3283    0.8362    0.0000 O   0  5  0  0  0  0  0  0  0  0  0  0
    2.7572    0.8362    0.0000 O   0  0  0  0  0  0  0  0  0  0  0  0
    1.3283   -0.8138    0.0000 C   0  0  0  0  0  0  0  0  0  0  0  0
    1.3283   -1.6388    0.0000 C   0  0  0  0  0  0  0  0  0  0  0  0
    2.0427   -2.0513    0.0000 C   0  0  0  0  0  0  0  0  0  0  0  0
    2.0427   -2.8763    0.0000 C   0  0  0  0  0  0  0  0  0  0  0  0
    2.7572   -1.6388    0.0000 C   0  0  0  0  0  0  0  0  0  0  0  0
  2  1  1  0  0  0  0
  2  3  1  0  0  0  0
  3  4  1  0  0  0  0
  3  5  2  0  0  0  0
  6  2  2  0  0  0  0
  7  6  1  0  0  0  0
  8  7  2  0  0  0  0
  8  9  1  0  0  0  0
 10  8  1  0  0  0  0
  1 10  2  0  0  0  0
M  CHG  2   3   1   4  -1
M  END
> <ChemID>
100121

> <CAS>
99-99-0

> <Original_SMILES>
Cc1ccc(cc1)[N+]([O-])=O

> <preferred_name>
4-Nitrotoluene

> <dsstox_substance_id>
DTXSID5023792

> <dsstox_compound_id>
DTXCID203792

> <qc_level>
DSSTox_Low

> <Canonical_QSARr>
CC1=CC=C(C=C1)[N+]([O-])=O

> <InChI_Code_QSARr>
InChI=1S/C7H7NO2/c1-6-2-4-7(5-3-6)8(9)10/h2-5H,1H3

> <InChI Key_QSARr>
ZPTVNYMJQHSSEA-UHFFFAOYSA-N

> <Salt_Solvent>


> <Salt_Solvent_ID>
0

> <MPID>
101756

> <LogKmHL>
-1.01

> <Tr_1_Tst_0>
1

$$$$
100122
  Mrv171c012251910542D          

 10 10  0  0  0  0            999 V2000
    0.9322   -2.3640    0.0000 O   0  0  0  0  0  0  0  0  0  0  0  0
    1.6467   -1.9515    0.0000 N   0  3  0  0  0  0  0  0  0  0  0  0
    2.3611   -2.3640    0.0000 O   0  5  0  0  0  0  0  0  0  0  0  0
    1.6467   -1.1265    0.0000 C   0  0  0  0  0  0  0  0  0  0  0  0
    2.3611   -0.7140    0.0000 C   0  0  0  0  0  0  0  0  0  0  0  0
    2.3611    0.1110    0.0000 C   0  0  0  0  0  0  0  0  0  0  0  0
    1.6467    0.5235    0.0000 C   0  0  0  0  0  0  0  0  0  0  0  0
    1.6467    1.3485    0.0000 Cl  0  0  0  0  0  0  0  0  0  0  0  0
    0.9322    0.1110    0.0000 C   0  0  0  0  0  0  0  0  0  0  0  0
    0.9322   -0.7140    0.0000 C   0  0  0  0  0  0  0  0  0  0  0  0
  1  2  2  0  0  0  0
  2  3  1  0  0  0  0
  2  4  1  0  0  0  0
  5  4  1  0  0  0  0
  6  5  2  0  0  0  0
  7  6  1  0  0  0  0
  7  8  1  0  0  0  0
  9  7  2  0  0  0  0
 10  9  1  0  0  0  0
  4 10  2  0  0  0  0
M  CHG  2   2   1   3  -1
M  END
> <ChemID>
100122

> <CAS>
100-00-5

> <Original_SMILES>
[O-][N+](=O)c1ccc(Cl)cc1

> <preferred_name>
1-Chloro-4-nitrobenzene

> <dsstox_substance_id>
DTXSID5020281

> <dsstox_compound_id>
DTXCID10281

> <qc_level>
DSSTox_Low

> <Canonical_QSARr>
[O-][N+](=O)C1C=CC(Cl)=CC=1

> <InChI_Code_QSARr>
InChI=1S/C6H4ClNO2/c7-5-1-3-6(4-2-5)8(9)10/h1-4H

> <InChI Key_QSARr>
CZGCEKJOLUNIFY-UHFFFAOYSA-N

> <Salt_Solvent>


> <Salt_Solvent_ID>
0

> <MPID>
101757

> <LogKmHL>
-0.48

> <Tr_1_Tst_0>
1

$$$$
100123
  Mrv171c012251910542D          

 10 10  0  0  0  0            999 V2000
    0.9322   -2.3640    0.0000 O   0  0  0  0  0  0  0  0  0  0  0  0
    1.6467   -1.9515    0.0000 N   0  3  0  0  0  0  0  0  0  0  0  0
    2.3611   -2.3640    0.0000 O   0  5  0  0  0  0  0  0  0  0  0  0
    1.6467   -1.1265    0.0000 C   0  0  0  0  0  0  0  0  0  0  0  0
    2.3611   -0.7140    0.0000 C   0  0  0  0  0  0  0  0  0  0  0  0
    2.3611    0.1110    0.0000 C   0  0  0  0  0  0  0  0  0  0  0  0
    1.6467    0.5235    0.0000 C   0  0  0  0  0  0  0  0  0  0  0  0
    1.6467    1.3485    0.0000 N   0  0  0  0  0  0  0  0  0  0  0  0
    0.9322    0.1110    0.0000 C   0  0  0  0  0  0  0  0  0  0  0  0
    0.9322   -0.7140    0.0000 C   0  0  0  0  0  0  0  0  0  0  0  0
  1  2  2  0  0  0  0
  2  3  1  0  0  0  0
  2  4  1  0  0  0  0
  5  4  1  0  0  0  0
  6  5  2  0  0  0  0
  7  6  1  0  0  0  0
  7  8  1  0  0  0  0
  9  7  2  0  0  0  0
 10  9  1  0  0  0  0
  4 10  2  0  0  0  0
M  CHG  2   2   1   3  -1
M  END
> <ChemID>
100123

> <CAS>
100-01-6

> <Original_SMILES>
Nc1ccc(cc1)[N+]([O-])=O

> <preferred_name>
4-Nitroaniline

> <dsstox_substance_id>
DTXSID8020961

> <dsstox_compound_id>
DTXCID40961

> <qc_level>
DSSTox_Low

> <Canonical_QSARr>
NC1=CC=C(C=C1)[N+]([O-])=O

> <InChI_Code_QSARr>
InChI=1S/C6H6N2O2/c7-5-1-3-6(4-2-5)8(9)10/h1-4H,7H2

> <InChI Key_QSARr>
TYMLOMAKGOJONV-UHFFFAOYSA-N

> <Salt_Solvent>


> <Salt_Solvent_ID>
0

> <MPID>
101758

> <LogKmHL>
-0.51

> <Tr_1_Tst_0>
0

$$$$
100124
  Mrv171c012251910542D          

 11 11  0  0  0  0            999 V2000
    0.7145   -0.0375    0.0000 C   0  0  0  0  0  0  0  0  0  0  0  0
    0.7145   -0.8625    0.0000 N   0  3  0  0  0  0  0  0  0  0  0  0
   -0.0000   -1.2750    0.0000 O   0  5  0  0  0  0  0  0  0  0  0  0
    1.4289   -1.2750    0.0000 O   0  0  0  0  0  0  0  0  0  0  0  0
    1.4289    0.3750    0.0000 C   0  0  0  0  0  0  0  0  0  0  0  0
    1.4289    1.2000    0.0000 C   0  0  0  0  0  0  0  0  0  0  0  0
    0.7145    1.6125    0.0000 C   0  0  0  0  0  0  0  0  0  0  0  0
    0.7145    2.4375    0.0000 O   0  0  0  0  0  0  0  0  0  0  0  0
   -0.0000    2.8500    0.0000 C   0  0  0  0  0  0  0  0  0  0  0  0
   -0.0000    1.2000    0.0000 C   0  0  0  0  0  0  0  0  0  0  0  0
   -0.0000    0.3750    0.0000 C   0  0  0  0  0  0  0  0  0  0  0  0
  1  2  1  0  0  0  0
  2  3  1  0  0  0  0
  2  4  2  0  0  0  0
  5  1  1  0  0  0  0
  6  5  2  0  0  0  0
  7  6  1  0  0  0  0
  7  8  1  0  0  0  0
  8  9  1  0  0  0  0
 10  7  2  0  0  0  0
 11 10  1  0  0  0  0
  1 11  2  0  0  0  0
M  CHG  2   2   1   3  -1
M  END
> <ChemID>
100124

> <CAS>
100-17-4

> <Original_SMILES>
COc1ccc(cc1)[N+]([O-])=O

> <preferred_name>
p-Nitroanisole

> <dsstox_substance_id>
DTXSID9059208

> <dsstox_compound_id>
DTXCID5032448

> <qc_level>
Public_High

> <Canonical_QSARr>
COC1C=CC(=CC=1)[N+]([O-])=O

> <InChI_Code_QSARr>
InChI=1S/C7H7NO3/c1-11-7-4-2-6(3-5-7)8(9)10/h2-5H,1H3

> <InChI Key_QSARr>
BNUHAJGCKIQFGE-UHFFFAOYSA-N

> <Salt_Solvent>


> <Salt_Solvent_ID>
0

> <MPID>
101759

> <LogKmHL>
-0.95

> <Tr_1_Tst_0>
1

$$$$
100125
  Mrv171c012251910542D          

 12 12  0  0  0  0            999 V2000
    2.0640   -1.5369    0.0000 C   0  0  0  0  0  0  0  0  0  0  0  0
    2.0640   -2.3619    0.0000 C   0  0  0  0  0  0  0  0  0  0  0  0
    1.3496   -2.7744    0.0000 C   0  0  0  0  0  0  0  0  0  0  0  0
    2.7785   -2.7744    0.0000 C   0  0  0  0  0  0  0  0  0  0  0  0
    2.7785   -1.1244    0.0000 C   0  0  0  0  0  0  0  0  0  0  0  0
    2.7785   -0.2994    0.0000 C   0  0  0  0  0  0  0  0  0  0  0  0
    2.0640    0.1131    0.0000 C   0  0  0  0  0  0  0  0  0  0  0  0
    2.0640    0.9381    0.0000 C   0  0  0  0  0  0  0  0  0  0  0  0
    1.3496    1.3506    0.0000 C   0  0  0  0  0  0  0  0  0  0  0  0
    2.7785    1.3506    0.0000 C   0  0  0  0  0  0  0  0  0  0  0  0
    1.3496   -0.2994    0.0000 C   0  0  0  0  0  0  0  0  0  0  0  0
    1.3496   -1.1244    0.0000 C   0  0  0  0  0  0  0  0  0  0  0  0
  1  2  1  0  0  0  0
  2  3  1  0  0  0  0
  2  4  1  0  0  0  0
  5  1  1  0  0  0  0
  6  5  2  0  0  0  0
  7  6  1  0  0  0  0
  7  8  1  0  0  0  0
  8  9  1  0  0  0  0
  8 10  1  0  0  0  0
 11  7  2  0  0  0  0
 12 11  1  0  0  0  0
  1 12  2  0  0  0  0
M  END
> <ChemID>
100125

> <CAS>
100-18-5

> <Original_SMILES>
CC(C)c1ccc(cc1)C(C)C

> <preferred_name>
1,4-Diisopropylbenzene

> <dsstox_substance_id>
DTXSID2026652

> <dsstox_compound_id>
DTXCID106652

> <qc_level>
DSSTox_Low

> <Canonical_QSARr>
CC(C)C1C=CC(=CC=1)C(C)C

> <InChI_Code_QSARr>
InChI=1S/C12H18/c1-9(2)11-5-7-12(8-6-11)10(3)4/h5-10H,1-4H3

> <InChI Key_QSARr>
SPPWGCYEYAMHDT-UHFFFAOYSA-N

> <Salt_Solvent>


> <Salt_Solvent_ID>
0

> <MPID>
101760

> <LogKmHL>
0.6

> <Tr_1_Tst_0>
1

$$$$
100126
  Mrv171c012251910542D          

  8  8  0  0  0  0            999 V2000
    2.2218    0.9732    0.0000 C   0  0  0  0  0  0  0  0  0  0  0  0
    1.5073    0.5607    0.0000 C   0  0  0  0  0  0  0  0  0  0  0  0
    1.5073   -0.2643    0.0000 C   0  0  0  0  0  0  0  0  0  0  0  0
    0.7928   -0.6768    0.0000 C   0  0  0  0  0  0  0  0  0  0  0  0
    0.7928   -1.5018    0.0000 C   0  0  0  0  0  0  0  0  0  0  0  0
    1.5073   -1.9143    0.0000 C   0  0  0  0  0  0  0  0  0  0  0  0
    2.2218   -1.5018    0.0000 C   0  0  0  0  0  0  0  0  0  0  0  0
    2.2218   -0.6768    0.0000 C   0  0  0  0  0  0  0  0  0  0  0  0
  1  2  2  0  0  0  0
  2  3  1  0  0  0  0
  4  3  1  0  0  0  0
  5  4  1  0  0  0  0
  6  5  2  0  0  0  0
  7  6  1  0  0  0  0
  8  7  1  0  0  0  0
  3  8  1  0  0  0  0
M  END
> <ChemID>
100126

> <CAS>
100-40-3

> <Original_SMILES>
C=CC1CC=CCC1

> <preferred_name>
4-Vinylcyclohexene

> <dsstox_substance_id>
DTXSID3021437

> <dsstox_compound_id>
DTXCID601437

> <qc_level>
DSSTox_Low

> <Canonical_QSARr>
C=CC1CC=CCC1

> <InChI_Code_QSARr>
InChI=1S/C8H12/c1-2-8-6-4-3-5-7-8/h2-4,8H,1,5-7H2

> <InChI Key_QSARr>
BBDKZWKEPDTENS-UHFFFAOYSA-N

> <Salt_Solvent>


> <Salt_Solvent_ID>
0

> <MPID>
101761

> <LogKmHL>
-0.41

> <Tr_1_Tst_0>
1

$$$$
100127
  Mrv171c012251910542D          

  8  8  0  0  0  0            999 V2000
    1.6859   -1.9143    0.0000 C   0  0  0  0  0  0  0  0  0  0  0  0
    2.4004   -1.5018    0.0000 C   0  0  0  0  0  0  0  0  0  0  0  0
    2.4004   -0.6768    0.0000 C   0  0  0  0  0  0  0  0  0  0  0  0
    1.6859   -0.2643    0.0000 C   0  0  0  0  0  0  0  0  0  0  0  0
    1.6859    0.5607    0.0000 N   0  0  0  0  0  0  0  0  0  0  0  0
    0.9715    0.9732    0.0000 C   0  0  0  0  0  0  0  0  0  0  0  0
    0.9715   -0.6768    0.0000 C   0  0  0  0  0  0  0  0  0  0  0  0
    0.9715   -1.5018    0.0000 C   0  0  0  0  0  0  0  0  0  0  0  0
  2  1  1  0  0  0  0
  3  2  2  0  0  0  0
  4  3  1  0  0  0  0
  4  5  1  0  0  0  0
  5  6  1  0  0  0  0
  7  4  2  0  0  0  0
  8  7  1  0  0  0  0
  1  8  2  0  0  0  0
M  END
> <ChemID>
100127

> <CAS>
100-61-8

> <Original_SMILES>
CNc1ccccc1

> <preferred_name>
N-Methylaniline

> <dsstox_substance_id>
DTXSID9021841

> <dsstox_compound_id>
DTXCID301841

> <qc_level>
DSSTox_Low

> <Canonical_QSARr>
CNC1C=CC=CC=1

> <InChI_Code_QSARr>
InChI=1S/C7H9N/c1-8-7-5-3-2-4-6-7/h2-6,8H,1H3

> <InChI Key_QSARr>
AFBPFSWMIHJQDM-UHFFFAOYSA-N

> <Salt_Solvent>


> <Salt_Solvent_ID>
0

> <MPID>
101762

> <LogKmHL>
-0.88

> <Tr_1_Tst_0>
0

$$$$
100128
  Mrv171c012251910542D          

 17 18  0  0  0  0            999 V2000
    4.9610   -3.4941    0.0000 Cl  0  0  0  0  0  0  0  0  0  0  0  0
    4.2465   -3.0816    0.0000 C   0  0  0  0  0  0  0  0  0  0  0  0
    4.2465   -2.2566    0.0000 C   0  0  0  0  0  0  0  0  0  0  0  0
    3.5321   -1.8441    0.0000 C   0  0  0  0  0  0  0  0  0  0  0  0
    3.5321   -1.0191    0.0000 C   0  0  0  0  0  0  0  0  0  0  0  0
    2.8176   -0.6066    0.0000 C   0  0  0  0  0  0  0  0  0  0  0  0
    2.8176    0.2184    0.0000 C   0  0  0  0  0  0  0  0  0  0  0  0
    2.1031    0.6309    0.0000 C   0  0  0  0  0  0  0  0  0  0  0  0
    1.3887    0.2184    0.0000 C   0  0  0  0  0  0  0  0  0  0  0  0
    0.6742    0.6309    0.0000 N   0  0  0  0  0  0  0  0  0  0  0  0
    1.3887   -0.6066    0.0000 C   0  0  0  0  0  0  0  0  0  0  0  0
    0.6742   -1.0191    0.0000 Cl  0  0  0  0  0  0  0  0  0  0  0  0
    2.1031   -1.0191    0.0000 C   0  0  0  0  0  0  0  0  0  0  0  0
    2.8176   -2.2566    0.0000 C   0  0  0  0  0  0  0  0  0  0  0  0
    2.8176   -3.0816    0.0000 C   0  0  0  0  0  0  0  0  0  0  0  0
    3.5321   -3.4941    0.0000 C   0  0  0  0  0  0  0  0  0  0  0  0
    3.5321   -4.3191    0.0000 N   0  0  0  0  0  0  0  0  0  0  0  0
  1  2  1  0  0  0  0
  3  2  1  0  0  0  0
  4  3  2  0  0  0  0
  4  5  1  0  0  0  0
  5  6  1  0  0  0  0
  7  6  1  0  0  0  0
  8  7  2  0  0  0  0
  9  8  1  0  0  0  0
  9 10  1  0  0  0  0
 11  9  2  0  0  0  0
 11 12  1  0  0  0  0
 13 11  1  0  0  0  0
  6 13  2  0  0  0  0
 14  4  1  0  0  0  0
 15 14  2  0  0  0  0
 16 15  1  0  0  0  0
  2 16  2  0  0  0  0
 16 17  1  0  0  0  0
M  END
> <ChemID>
100128

> <CAS>
101-14-4

> <Original_SMILES>
Nc1ccc(Cc2cc(Cl)c(N)cc2)cc1Cl

> <preferred_name>
4,4'-Methylenebis(2-chloroaniline)

> <dsstox_substance_id>
DTXSID5020865

> <dsstox_compound_id>
DTXCID50865

> <qc_level>
DSSTox_High

> <Canonical_QSARr>
NC1C=CC(CC2=CC(Cl)=C(N)C=C2)=CC=1Cl

> <InChI_Code_QSARr>
InChI=1S/C13H12Cl2N2/c14-10-6-8(1-3-12(10)16)5-9-2-4-13(17)11(15)7-9/h1-4,6-7H,5,16-17H2

> <InChI Key_QSARr>
IBOFVQJTBBUKMU-UHFFFAOYSA-N

> <Salt_Solvent>


> <Salt_Solvent_ID>
0

> <MPID>
101763

> <LogKmHL>
-0.15

> <Tr_1_Tst_0>
1

$$$$
100129
  Mrv171c012251910542D          

 14 15  0  0  0  0            999 V2000
    2.9753   -2.7147    0.0000 C   0  0  0  0  0  0  0  0  0  0  0  0
    3.6897   -2.3022    0.0000 C   0  0  0  0  0  0  0  0  0  0  0  0
    3.6897   -1.4772    0.0000 C   0  0  0  0  0  0  0  0  0  0  0  0
    2.9753   -1.0647    0.0000 C   0  0  0  0  0  0  0  0  0  0  0  0
    2.9753   -0.2397    0.0000 C   0  0  0  0  0  0  0  0  0  0  0  0
    2.2608    0.1728    0.0000 C   0  0  0  0  0  0  0  0  0  0  0  0
    2.2608    0.9978    0.0000 C   0  0  0  0  0  0  0  0  0  0  0  0
    1.5463    1.4103    0.0000 C   0  0  0  0  0  0  0  0  0  0  0  0
    0.8319    0.9978    0.0000 C   0  0  0  0  0  0  0  0  0  0  0  0
    0.8319    0.1728    0.0000 C   0  0  0  0  0  0  0  0  0  0  0  0
    1.5463   -0.2397    0.0000 C   0  0  0  0  0  0  0  0  0  0  0  0
    2.2608   -1.4772    0.0000 C   0  0  0  0  0  0  0  0  0  0  0  0
    2.2608   -2.3022    0.0000 C   0  0  0  0  0  0  0  0  0  0  0  0
    2.9753   -3.5397    0.0000 O   0  0  0  0  0  0  0  0  0  0  0  0
  2  1  1  0  0  0  0
  3  2  2  0  0  0  0
  4  3  1  0  0  0  0
  4  5  1  0  0  0  0
  5  6  1  0  0  0  0
  7  6  1  0  0  0  0
  8  7  2  0  0  0  0
  9  8  1  0  0  0  0
 10  9  2  0  0  0  0
 11 10  1  0  0  0  0
  6 11  2  0  0  0  0
 12  4  2  0  0  0  0
 13 12  1  0  0  0  0
  1 13  2  0  0  0  0
  1 14  1  0  0  0  0
M  END
> <ChemID>
100129

> <CAS>
101-53-1

> <Original_SMILES>
Oc1ccc(Cc2ccccc2)cc1

> <preferred_name>
4-Benzylphenol

> <dsstox_substance_id>
DTXSID9047962

> <dsstox_compound_id>
DTXCID5027938

> <qc_level>
DSSTox_Low

> <Canonical_QSARr>
OC1C=CC(CC2C=CC=CC=2)=CC=1

> <InChI_Code_QSARr>
InChI=1S/C13H12O/c14-13-8-6-12(7-9-13)10-11-4-2-1-3-5-11/h1-9,14H,10H2

> <InChI Key_QSARr>
HJSPWKGEPDZNLK-UHFFFAOYSA-N

> <Salt_Solvent>


> <Salt_Solvent_ID>
0

> <MPID>
101764

> <LogKmHL>
-0.86

> <Tr_1_Tst_0>
1

$$$$
100130
  Mrv171c012251910542D          

 19 20  0  0  0  0            999 V2000
    2.6164   -1.6255    0.0000 C   0  0  0  0  0  0  0  0  0  0  0  0
    2.6164   -0.8005    0.0000 C   0  0  0  0  0  0  0  0  0  0  0  0
    3.3308   -0.3880    0.0000 C   0  0  0  0  0  0  0  0  0  0  0  0
    3.3308    0.4370    0.0000 C   0  0  0  0  0  0  0  0  0  0  0  0
    2.6164    0.8495    0.0000 C   0  0  0  0  0  0  0  0  0  0  0  0
    2.6164    1.6745    0.0000 N   0  0  0  0  0  0  0  0  0  0  0  0
    1.9019    2.0870    0.0000 C   0  0  0  0  0  0  0  0  0  0  0  0
    3.3308    2.0870    0.0000 C   0  0  0  0  0  0  0  0  0  0  0  0
    1.9019    0.4370    0.0000 C   0  0  0  0  0  0  0  0  0  0  0  0
    1.9019   -0.3880    0.0000 C   0  0  0  0  0  0  0  0  0  0  0  0
    3.3308   -2.0380    0.0000 C   0  0  0  0  0  0  0  0  0  0  0  0
    3.3308   -2.8630    0.0000 C   0  0  0  0  0  0  0  0  0  0  0  0
    4.0453   -3.2755    0.0000 C   0  0  0  0  0  0  0  0  0  0  0  0
    4.7598   -2.8630    0.0000 C   0  0  0  0  0  0  0  0  0  0  0  0
    5.4743   -3.2755    0.0000 N   0  0  0  0  0  0  0  0  0  0  0  0
    6.1887   -2.8630    0.0000 C   0  0  0  0  0  0  0  0  0  0  0  0
    5.4743   -4.1005    0.0000 C   0  0  0  0  0  0  0  0  0  0  0  0
    4.7598   -2.0380    0.0000 C   0  0  0  0  0  0  0  0  0  0  0  0
    4.0453   -1.6255    0.0000 C   0  0  0  0  0  0  0  0  0  0  0  0
  1  2  1  0  0  0  0
  3  2  1  0  0  0  0
  4  3  2  0  0  0  0
  5  4  1  0  0  0  0
  5  6  1  0  0  0  0
  6  7  1  0  0  0  0
  6  8  1  0  0  0  0
  9  5  2  0  0  0  0
 10  9  1  0  0  0  0
  2 10  2  0  0  0  0
  1 11  1  0  0  0  0
 12 11  1  0  0  0  0
 13 12  2  0  0  0  0
 14 13  1  0  0  0  0
 14 15  1  0  0  0  0
 15 16  1  0  0  0  0
 15 17  1  0  0  0  0
 18 14  2  0  0  0  0
 19 18  1  0  0  0  0
 11 19  2  0  0  0  0
M  END
> <ChemID>
100130

> <CAS>
101-61-1

> <Original_SMILES>
CN(C)c1ccc(Cc2ccc(cc2)N(C)C)cc1

> <preferred_name>
4,4'-Methylenebis(N,N-dimethylaniline)

> <dsstox_substance_id>
DTXSID5020869

> <dsstox_compound_id>
DTXCID70869

> <qc_level>
DSSTox_High

> <Canonical_QSARr>
CN(C)C1C=CC(CC2C=CC(=CC=2)N(C)C)=CC=1

> <InChI_Code_QSARr>
InChI=1S/C17H22N2/c1-18(2)16-9-5-14(6-10-16)13-15-7-11-17(12-8-15)19(3)4/h5-12H,13H2,1-4H3

> <InChI Key_QSARr>
JNRLEMMIVRBKJE-UHFFFAOYSA-N

> <Salt_Solvent>


> <Salt_Solvent_ID>
0

> <MPID>
101765

> <LogKmHL>
-0.04

> <Tr_1_Tst_0>
1

$$$$
100131
  Mrv171c012251910542D          

 13 14  0  0  0  0            999 V2000
    3.5155   -1.7446    0.0000 C   0  0  0  0  0  0  0  0  0  0  0  0
    2.8010   -1.3321    0.0000 C   0  0  0  0  0  0  0  0  0  0  0  0
    2.8010   -0.5071    0.0000 O   0  0  0  0  0  0  0  0  0  0  0  0
    2.0865   -0.0946    0.0000 C   0  0  0  0  0  0  0  0  0  0  0  0
    2.0865    0.7304    0.0000 C   0  0  0  0  0  0  0  0  0  0  0  0
    1.3721    1.1429    0.0000 C   0  0  0  0  0  0  0  0  0  0  0  0
    0.6576    0.7304    0.0000 C   0  0  0  0  0  0  0  0  0  0  0  0
    0.6576   -0.0946    0.0000 C   0  0  0  0  0  0  0  0  0  0  0  0
    1.3721   -0.5071    0.0000 C   0  0  0  0  0  0  0  0  0  0  0  0
    2.0865   -1.7446    0.0000 C   0  0  0  0  0  0  0  0  0  0  0  0
    2.0865   -2.5696    0.0000 C   0  0  0  0  0  0  0  0  0  0  0  0
    2.8010   -2.9821    0.0000 C   0  0  0  0  0  0  0  0  0  0  0  0
    3.5155   -2.5696    0.0000 C   0  0  0  0  0  0  0  0  0  0  0  0
  2  1  1  0  0  0  0
  2  3  1  0  0  0  0
  3  4  1  0  0  0  0
  5  4  1  0  0  0  0
  6  5  2  0  0  0  0
  7  6  1  0  0  0  0
  8  7  2  0  0  0  0
  9  8  1  0  0  0  0
  4  9  2  0  0  0  0
 10  2  2  0  0  0  0
 11 10  1  0  0  0  0
 12 11  2  0  0  0  0
 13 12  1  0  0  0  0
  1 13  2  0  0  0  0
M  END
> <ChemID>
100131

> <CAS>
101-84-8

> <Original_SMILES>
c1ccccc1Oc1ccccc1

> <preferred_name>
Diphenyl oxide

> <dsstox_substance_id>
DTXSID9021847

> <dsstox_compound_id>
DTXCID701847

> <qc_level>
DSSTox_Low

> <Canonical_QSARr>
C1=CC=CC=C1OC1C=CC=CC=1

> <InChI_Code_QSARr>
InChI=1S/C12H10O/c1-3-7-11(8-4-1)13-12-9-5-2-6-10-12/h1-10H

> <InChI Key_QSARr>
USIUVYZYUHIAEV-UHFFFAOYSA-N

> <Salt_Solvent>


> <Salt_Solvent_ID>
0

> <MPID>
101766

> <LogKmHL>
-0.09

> <Tr_1_Tst_0>
0

$$$$
100133
  Mrv171c012251910542D          

 15 16  0  0  0  0            999 V2000
    3.0977   -0.8267    0.0000 O   0  0  0  0  0  0  0  0  0  0  0  0
    3.8121   -1.2392    0.0000 C   0  0  0  0  0  0  0  0  0  0  0  0
    3.8121   -2.0642    0.0000 C   0  0  0  0  0  0  0  0  0  0  0  0
    3.0977   -2.4767    0.0000 C   0  0  0  0  0  0  0  0  0  0  0  0
    3.0977   -3.3017    0.0000 C   0  0  0  0  0  0  0  0  0  0  0  0
    3.8121   -3.7142    0.0000 C   0  0  0  0  0  0  0  0  0  0  0  0
    4.5266   -3.3017    0.0000 C   0  0  0  0  0  0  0  0  0  0  0  0
    4.5266   -2.4767    0.0000 C   0  0  0  0  0  0  0  0  0  0  0  0
    3.0977   -0.0017    0.0000 C   0  0  0  0  0  0  0  0  0  0  0  0
    2.3832    0.4108    0.0000 C   0  0  0  0  0  0  0  0  0  0  0  0
    2.3832    1.2358    0.0000 C   0  0  0  0  0  0  0  0  0  0  0  0
    1.6687    1.6483    0.0000 C   0  0  0  0  0  0  0  0  0  0  0  0
    0.9543    1.2358    0.0000 C   0  0  0  0  0  0  0  0  0  0  0  0
    0.9543    0.4108    0.0000 C   0  0  0  0  0  0  0  0  0  0  0  0
    1.6687   -0.0017    0.0000 C   0  0  0  0  0  0  0  0  0  0  0  0
  1  2  1  0  0  0  0
  2  3  1  0  0  0  0
  4  3  1  0  0  0  0
  5  4  2  0  0  0  0
  6  5  1  0  0  0  0
  7  6  2  0  0  0  0
  8  7  1  0  0  0  0
  3  8  2  0  0  0  0
  1  9  1  0  0  0  0
  9 10  1  0  0  0  0
 11 10  1  0  0  0  0
 12 11  2  0  0  0  0
 13 12  1  0  0  0  0
 14 13  2  0  0  0  0
 15 14  1  0  0  0  0
 10 15  2  0  0  0  0
M  END
> <ChemID>
100133

> <CAS>
103-50-4

> <Original_SMILES>
C(OCc1ccccc1)c1ccccc1

> <preferred_name>
Dibenzyl ether

> <dsstox_substance_id>
DTXSID5025819

> <dsstox_compound_id>
DTXCID005819

> <qc_level>
DSSTox_Low

> <Canonical_QSARr>
C(OCC1C=CC=CC=1)C1C=CC=CC=1

> <InChI_Code_QSARr>
InChI=1S/C14H14O/c1-3-7-13(8-4-1)11-15-12-14-9-5-2-6-10-14/h1-10H,11-12H2

> <InChI Key_QSARr>
MHDVGSVTJDSBDK-UHFFFAOYSA-N

> <Salt_Solvent>


> <Salt_Solvent_ID>
0

> <MPID>
101767

> <LogKmHL>
0.63

> <Tr_1_Tst_0>
1

$$$$
100134
  Mrv171c012251910542D          

  9  9  0  0  0  0            999 V2000
    1.9978    0.3597    0.0000 N   0  0  0  0  0  0  0  0  0  0  0  0
    2.7123    0.7722    0.0000 C   0  0  0  0  0  0  0  0  0  0  0  0
    2.7123    1.5972    0.0000 C   0  0  0  0  0  0  0  0  0  0  0  0
    1.9978   -0.4653    0.0000 C   0  0  0  0  0  0  0  0  0  0  0  0
    1.2833   -0.8778    0.0000 C   0  0  0  0  0  0  0  0  0  0  0  0
    1.2833   -1.7028    0.0000 C   0  0  0  0  0  0  0  0  0  0  0  0
    1.9978   -2.1153    0.0000 C   0  0  0  0  0  0  0  0  0  0  0  0
    2.7123   -1.7028    0.0000 C   0  0  0  0  0  0  0  0  0  0  0  0
    2.7123   -0.8778    0.0000 C   0  0  0  0  0  0  0  0  0  0  0  0
  1  2  1  0  0  0  0
  2  3  1  0  0  0  0
  1  4  1  0  0  0  0
  5  4  1  0  0  0  0
  6  5  2  0  0  0  0
  7  6  1  0  0  0  0
  8  7  2  0  0  0  0
  9  8  1  0  0  0  0
  4  9  2  0  0  0  0
M  END
> <ChemID>
100134

> <CAS>
103-69-5

> <Original_SMILES>
CCNc1ccccc1

> <preferred_name>
N-Ethylaniline

> <dsstox_substance_id>
DTXSID1025271

> <dsstox_compound_id>
DTXCID405271

> <qc_level>
DSSTox_Low

> <Canonical_QSARr>
CCNC1C=CC=CC=1

> <InChI_Code_QSARr>
InChI=1S/C8H11N/c1-2-9-8-6-4-3-5-7-8/h3-7,9H,2H2,1H3

> <InChI Key_QSARr>
OJGMBLNIHDZDGS-UHFFFAOYSA-N

> <Salt_Solvent>


> <Salt_Solvent_ID>
0

> <MPID>
101768

> <LogKmHL>
-0.65

> <Tr_1_Tst_0>
1

$$$$
100135
  Mrv171c012251910542D          

 16 16  0  0  0  0            999 V2000
    0.0169   -1.6513    0.0000 C   0  0  0  0  0  0  0  0  0  0  0  0
    0.7314   -1.2388    0.0000 C   0  0  0  0  0  0  0  0  0  0  0  0
    1.4459   -1.6513    0.0000 C   0  0  0  0  0  0  0  0  0  0  0  0
    2.1603   -1.2388    0.0000 C   0  0  0  0  0  0  0  0  0  0  0  0
    2.8748   -1.6513    0.0000 C   0  0  0  0  0  0  0  0  0  0  0  0
    3.5893   -1.2388    0.0000 C   0  0  0  0  0  0  0  0  0  0  0  0
    4.3037   -1.6513    0.0000 C   0  0  0  0  0  0  0  0  0  0  0  0
    5.0182   -1.2388    0.0000 C   0  0  0  0  0  0  0  0  0  0  0  0
    5.7327   -1.6513    0.0000 C   0  0  0  0  0  0  0  0  0  0  0  0
    6.4472   -1.2388    0.0000 C   0  0  0  0  0  0  0  0  0  0  0  0
    7.1616   -1.6513    0.0000 C   0  0  0  0  0  0  0  0  0  0  0  0
    7.8761   -1.2388    0.0000 C   0  0  0  0  0  0  0  0  0  0  0  0
    7.8761   -0.4138    0.0000 C   0  0  0  0  0  0  0  0  0  0  0  0
    8.5906   -0.0013    0.0000 O   0  0  0  0  0  0  0  0  0  0  0  0
    7.1616   -0.0013    0.0000 C   0  0  0  0  0  0  0  0  0  0  0  0
    6.4472   -0.4138    0.0000 C   0  0  0  0  0  0  0  0  0  0  0  0
  1  2  1  0  0  0  0
  2  3  1  0  0  0  0
  3  4  1  0  0  0  0
  4  5  1  0  0  0  0
  5  6  1  0  0  0  0
  6  7  1  0  0  0  0
  7  8  1  0  0  0  0
  8  9  1  0  0  0  0
  9 10  1  0  0  0  0
 11 10  1  0  0  0  0
 12 11  2  0  0  0  0
 13 12  1  0  0  0  0
 13 14  1  0  0  0  0
 15 13  2  0  0  0  0
 16 15  1  0  0  0  0
 10 16  2  0  0  0  0
M  END
> <ChemID>
100135

> <CAS>
104-40-5

> <Original_SMILES>
CCCCCCCCCc1ccc(O)cc1

> <preferred_name>
4-Nonylphenol

> <dsstox_substance_id>
DTXSID5033836

> <dsstox_compound_id>
DTXCID001857

> <qc_level>
DSSTox_High

> <Canonical_QSARr>
CCCCCCCCCC1C=CC(O)=CC=1

> <InChI_Code_QSARr>
InChI=1S/C15H24O/c1-2-3-4-5-6-7-8-9-14-10-12-15(16)13-11-14/h10-13,16H,2-9H2,1H3

> <InChI Key_QSARr>
IGFHQQFPSIBGKE-UHFFFAOYSA-N

> <Salt_Solvent>


> <Salt_Solvent_ID>
0

> <MPID>
101769

> <LogKmHL>
-0.23

> <Tr_1_Tst_0>
1

$$$$
100136
  Mrv171c012251910542D          

 16 16  0  0  0  0            999 V2000
    1.4394   -0.4454    0.0000 C   0  0  0  0  0  0  0  0  0  0  0  0
    2.1539   -0.0329    0.0000 C   0  0  0  0  0  0  0  0  0  0  0  0
    2.8683   -0.4454    0.0000 C   0  0  0  0  0  0  0  0  0  0  0  0
    3.5828   -0.0329    0.0000 C   0  0  0  0  0  0  0  0  0  0  0  0
    4.2973   -0.4454    0.0000 C   0  0  0  0  0  0  0  0  0  0  0  0
    5.0117   -0.0329    0.0000 C   0  0  0  0  0  0  0  0  0  0  0  0
    5.7262   -0.4454    0.0000 C   0  0  0  0  0  0  0  0  0  0  0  0
    6.4407   -0.0329    0.0000 C   0  0  0  0  0  0  0  0  0  0  0  0
    7.1552   -0.4454    0.0000 C   0  0  0  0  0  0  0  0  0  0  0  0
    7.8696   -0.0329    0.0000 C   0  0  0  0  0  0  0  0  0  0  0  0
    8.5841   -0.4454    0.0000 C   0  0  0  0  0  0  0  0  0  0  0  0
    0.7249   -0.0329    0.0000 C   0  0  0  0  0  0  0  0  0  0  0  0
    0.0104   -0.4454    0.0000 C   0  0  0  0  0  0  0  0  0  0  0  0
    0.0104   -1.2704    0.0000 C   0  0  0  0  0  0  0  0  0  0  0  0
    0.7249   -1.6829    0.0000 C   0  0  0  0  0  0  0  0  0  0  0  0
    1.4394   -1.2704    0.0000 C   0  0  0  0  0  0  0  0  0  0  0  0
  1  2  1  0  0  0  0
  2  3  1  0  0  0  0
  3  4  1  0  0  0  0
  4  5  1  0  0  0  0
  5  6  1  0  0  0  0
  6  7  1  0  0  0  0
  7  8  1  0  0  0  0
  8  9  1  0  0  0  0
  9 10  1  0  0  0  0
 10 11  1  0  0  0  0
 12  1  1  0  0  0  0
 13 12  2  0  0  0  0
 14 13  1  0  0  0  0
 15 14  2  0  0  0  0
 16 15  1  0  0  0  0
  1 16  2  0  0  0  0
M  END
> <ChemID>
100136

> <CAS>
104-72-3

> <Original_SMILES>
CCCCCCCCCCc1ccccc1

> <preferred_name>
Decylbenzene

> <dsstox_substance_id>
DTXSID5051529

> <dsstox_compound_id>
DTXCID6030079

> <qc_level>
DSSTox_Low

> <Canonical_QSARr>
CCCCCCCCCCC1C=CC=CC=1

> <InChI_Code_QSARr>
InChI=1S/C16H26/c1-2-3-4-5-6-7-8-10-13-16-14-11-9-12-15-16/h9,11-12,14-15H,2-8,10,13H2,1H3

> <InChI Key_QSARr>
UZILCZKGXMQEQR-UHFFFAOYSA-N

> <Salt_Solvent>


> <Salt_Solvent_ID>
0

> <MPID>
101770

> <LogKmHL>
0.63

> <Tr_1_Tst_0>
0

$$$$
100137
  Mrv171c012251910542D          

  9  9  0  0  0  0            999 V2000
    1.9091   -2.5140    0.0000 Cl  0  0  0  0  0  0  0  0  0  0  0  0
    1.9091   -1.6890    0.0000 C   0  0  0  0  0  0  0  0  0  0  0  0
    2.6235   -1.2765    0.0000 C   0  0  0  0  0  0  0  0  0  0  0  0
    2.6235   -0.4515    0.0000 C   0  0  0  0  0  0  0  0  0  0  0  0
    1.9091   -0.0390    0.0000 C   0  0  0  0  0  0  0  0  0  0  0  0
    1.9091    0.7860    0.0000 C   0  0  0  0  0  0  0  0  0  0  0  0
    1.1946    1.1985    0.0000 O   0  0  0  0  0  0  0  0  0  0  0  0
    1.1946   -0.4515    0.0000 C   0  0  0  0  0  0  0  0  0  0  0  0
    1.1946   -1.2765    0.0000 C   0  0  0  0  0  0  0  0  0  0  0  0
  1  2  1  0  0  0  0
  3  2  1  0  0  0  0
  4  3  2  0  0  0  0
  5  4  1  0  0  0  0
  5  6  1  0  0  0  0
  6  7  2  0  0  0  0
  8  5  2  0  0  0  0
  9  8  1  0  0  0  0
  2  9  2  0  0  0  0
M  END
> <ChemID>
100137

> <CAS>
104-88-1

> <Original_SMILES>
O=Cc1ccc(Cl)cc1

> <preferred_name>
4-Chlorobenzaldehyde

> <dsstox_substance_id>
DTXSID2021860

> <dsstox_compound_id>
DTXCID501860

> <qc_level>
DSSTox_Low

> <Canonical_QSARr>
O=CC1C=CC(Cl)=CC=1

> <InChI_Code_QSARr>
InChI=1S/C7H5ClO/c8-7-3-1-6(5-9)2-4-7/h1-5H

> <InChI Key_QSARr>
AVPYQKSLYISFPO-UHFFFAOYSA-N

> <Salt_Solvent>


> <Salt_Solvent_ID>
0

> <MPID>
101771

> <LogKmHL>
0.01

> <Tr_1_Tst_0>
1

$$$$
100138
  Mrv171c012251910542D          

 10 10  0  0  0  0            999 V2000
    2.2035   -1.5415    0.0000 C   0  0  0  0  0  0  0  0  0  0  0  0
    2.2035   -2.3665    0.0000 C   0  0  0  0  0  0  0  0  0  0  0  0
    1.4891   -2.7790    0.0000 C   0  0  0  0  0  0  0  0  0  0  0  0
    2.9180   -1.1290    0.0000 C   0  0  0  0  0  0  0  0  0  0  0  0
    2.9180   -0.3040    0.0000 C   0  0  0  0  0  0  0  0  0  0  0  0
    2.2035    0.1085    0.0000 C   0  0  0  0  0  0  0  0  0  0  0  0
    2.2035    0.9335    0.0000 C   0  0  0  0  0  0  0  0  0  0  0  0
    1.4891    1.3460    0.0000 C   0  0  0  0  0  0  0  0  0  0  0  0
    1.4891   -0.3040    0.0000 C   0  0  0  0  0  0  0  0  0  0  0  0
    1.4891   -1.1290    0.0000 C   0  0  0  0  0  0  0  0  0  0  0  0
  1  2  1  0  0  0  0
  2  3  1  0  0  0  0
  4  1  1  0  0  0  0
  5  4  2  0  0  0  0
  6  5  1  0  0  0  0
  6  7  1  0  0  0  0
  7  8  1  0  0  0  0
  9  6  2  0  0  0  0
 10  9  1  0  0  0  0
  1 10  2  0  0  0  0
M  END
> <ChemID>
100138

> <CAS>
105-05-5

> <Original_SMILES>
CCc1ccc(CC)cc1

> <preferred_name>
1,4-Diethylbenzene

> <dsstox_substance_id>
DTXSID4026711

> <dsstox_compound_id>
DTXCID706711

> <qc_level>
DSSTox_Low

> <Canonical_QSARr>
CCC1C=CC(CC)=CC=1

> <InChI_Code_QSARr>
InChI=1S/C10H14/c1-3-9-5-7-10(4-2)8-6-9/h5-8H,3-4H2,1-2H3

> <InChI Key_QSARr>
DSNHSQKRULAAEI-UHFFFAOYSA-N

> <Salt_Solvent>


> <Salt_Solvent_ID>
0

> <MPID>
101772

> <LogKmHL>
-0.01

> <Tr_1_Tst_0>
1

$$$$
100139
  Mrv171c012251910542D          

 10 10  0  0  0  0            999 V2000
    3.4524   -1.9748    0.0000 C   0  0  0  0  0  0  0  0  0  0  0  0
    3.4524   -2.7998    0.0000 C   0  0  0  0  0  0  0  0  0  0  0  0
    2.7379   -3.2123    0.0000 C   0  0  0  0  0  0  0  0  0  0  0  0
    4.1668   -1.5623    0.0000 C   0  0  0  0  0  0  0  0  0  0  0  0
    4.1668   -0.7373    0.0000 C   0  0  0  0  0  0  0  0  0  0  0  0
    3.4524   -0.3248    0.0000 C   0  0  0  0  0  0  0  0  0  0  0  0
    3.4524    0.5002    0.0000 C   0  0  0  0  0  0  0  0  0  0  0  0
    2.7379    0.9127    0.0000 C   0  0  0  0  0  0  0  0  0  0  0  0
    2.7379   -0.7373    0.0000 C   0  0  0  0  0  0  0  0  0  0  0  0
    2.7379   -1.5623    0.0000 C   0  0  0  0  0  0  0  0  0  0  0  0
  1  2  1  0  0  0  0
  2  3  2  0  0  0  0
  4  1  1  0  0  0  0
  5  4  2  0  0  0  0
  6  5  1  0  0  0  0
  6  7  1  0  0  0  0
  7  8  2  0  0  0  0
  9  6  2  0  0  0  0
 10  9  1  0  0  0  0
  1 10  2  0  0  0  0
M  END
> <ChemID>
100139

> <CAS>
105-06-6

> <Original_SMILES>
C=Cc1ccc(cc1)C=C

> <preferred_name>
1,4-Divinylbenzene

> <dsstox_substance_id>
DTXSID2033863

> <dsstox_compound_id>
DTXCID0013863

> <qc_level>
DSSTox_High

> <Canonical_QSARr>
C=CC1C=CC(=CC=1)C=C

> <InChI_Code_QSARr>
InChI=1S/C10H10/c1-3-9-5-7-10(4-2)8-6-9/h3-8H,1-2H2

> <InChI Key_QSARr>
WEERVPDNCOGWJF-UHFFFAOYSA-N

> <Salt_Solvent>


> <Salt_Solvent_ID>
0

> <MPID>
101773

> <LogKmHL>
0.5

> <Tr_1_Tst_0>
1

$$$$
100140
  Mrv171c012251910542D          

  8  8  0  0  0  0            999 V2000
    0.7121   -3.2906    0.0000 Br  0  0  0  0  0  0  0  0  0  0  0  0
    0.7121   -2.4656    0.0000 C   0  0  0  0  0  0  0  0  0  0  0  0
    1.4265   -2.0531    0.0000 C   0  0  0  0  0  0  0  0  0  0  0  0
    1.4265   -1.2281    0.0000 C   0  0  0  0  0  0  0  0  0  0  0  0
    0.7121   -0.8156    0.0000 C   0  0  0  0  0  0  0  0  0  0  0  0
    0.7121    0.0094    0.0000 Br  0  0  0  0  0  0  0  0  0  0  0  0
   -0.0024   -1.2281    0.0000 C   0  0  0  0  0  0  0  0  0  0  0  0
   -0.0024   -2.0531    0.0000 C   0  0  0  0  0  0  0  0  0  0  0  0
  1  2  1  0  0  0  0
  3  2  1  0  0  0  0
  4  3  2  0  0  0  0
  5  4  1  0  0  0  0
  5  6  1  0  0  0  0
  7  5  2  0  0  0  0
  8  7  1  0  0  0  0
  2  8  2  0  0  0  0
M  END
> <ChemID>
100140

> <CAS>
106-37-6

> <Original_SMILES>
Brc1ccc(Br)cc1

> <preferred_name>
1,4-Dibromobenzene

> <dsstox_substance_id>
DTXSID4024012

> <dsstox_compound_id>
DTXCID504012

> <qc_level>
DSSTox_Low

> <Canonical_QSARr>
BrC1C=CC(Br)=CC=1

> <InChI_Code_QSARr>
InChI=1S/C6H4Br2/c7-5-1-2-6(8)4-3-5/h1-4H

> <InChI Key_QSARr>
SWJPEBQEEAHIGZ-UHFFFAOYSA-N

> <Salt_Solvent>


> <Salt_Solvent_ID>
0

> <MPID>
101774

> <LogKmHL>
0.31

> <Tr_1_Tst_0>
0

$$$$
100141
  Mrv171c012251910542D          

  8  8  0  0  0  0            999 V2000
    1.6500   -2.3653    0.0000 C   0  0  0  0  0  0  0  0  0  0  0  0
    1.6500   -1.5403    0.0000 C   0  0  0  0  0  0  0  0  0  0  0  0
    2.3645   -1.1278    0.0000 C   0  0  0  0  0  0  0  0  0  0  0  0
    2.3645   -0.3028    0.0000 C   0  0  0  0  0  0  0  0  0  0  0  0
    1.6500    0.1097    0.0000 C   0  0  0  0  0  0  0  0  0  0  0  0
    1.6500    0.9347    0.0000 Cl  0  0  0  0  0  0  0  0  0  0  0  0
    0.9355   -0.3028    0.0000 C   0  0  0  0  0  0  0  0  0  0  0  0
    0.9355   -1.1278    0.0000 C   0  0  0  0  0  0  0  0  0  0  0  0
  1  2  1  0  0  0  0
  3  2  1  0  0  0  0
  4  3  2  0  0  0  0
  5  4  1  0  0  0  0
  5  6  1  0  0  0  0
  7  5  2  0  0  0  0
  8  7  1  0  0  0  0
  2  8  2  0  0  0  0
M  END
> <ChemID>
100141

> <CAS>
106-43-4

> <Original_SMILES>
Cc1ccc(Cl)cc1

> <preferred_name>
4-Chlorotoluene

> <dsstox_substance_id>
DTXSID8024814

> <dsstox_compound_id>
DTXCID904814

> <qc_level>
DSSTox_Low

> <Canonical_QSARr>
CC1=CC=C(Cl)C=C1

> <InChI_Code_QSARr>
InChI=1S/C7H7Cl/c1-6-2-4-7(8)5-3-6/h2-5H,1H3

> <InChI Key_QSARr>
NPDACUSDTOMAMK-UHFFFAOYSA-N

> <Salt_Solvent>


> <Salt_Solvent_ID>
0

> <MPID>
101775

> <LogKmHL>
-0.83

> <Tr_1_Tst_0>
1

$$$$
100142
  Mrv171c012251910542D          

  8  8  0  0  0  0            999 V2000
    1.6500   -2.3653    0.0000 Cl  0  0  0  0  0  0  0  0  0  0  0  0
    1.6500   -1.5403    0.0000 C   0  0  0  0  0  0  0  0  0  0  0  0
    2.3645   -1.1278    0.0000 C   0  0  0  0  0  0  0  0  0  0  0  0
    2.3645   -0.3028    0.0000 C   0  0  0  0  0  0  0  0  0  0  0  0
    1.6500    0.1097    0.0000 C   0  0  0  0  0  0  0  0  0  0  0  0
    1.6500    0.9347    0.0000 Cl  0  0  0  0  0  0  0  0  0  0  0  0
    0.9355   -0.3028    0.0000 C   0  0  0  0  0  0  0  0  0  0  0  0
    0.9355   -1.1278    0.0000 C   0  0  0  0  0  0  0  0  0  0  0  0
  1  2  1  0  0  0  0
  3  2  1  0  0  0  0
  4  3  2  0  0  0  0
  5  4  1  0  0  0  0
  5  6  1  0  0  0  0
  7  5  2  0  0  0  0
  8  7  1  0  0  0  0
  2  8  2  0  0  0  0
M  END
> <ChemID>
100142

> <CAS>
106-46-7

> <Original_SMILES>
Clc1ccc(Cl)cc1

> <preferred_name>
1,4-Dichlorobenzene

> <dsstox_substance_id>
DTXSID1020431

> <dsstox_compound_id>
DTXCID30431

> <qc_level>
DSSTox_Low

> <Canonical_QSARr>
ClC1C=CC(Cl)=CC=1

> <InChI_Code_QSARr>
InChI=1S/C6H4Cl2/c7-5-1-2-6(8)4-3-5/h1-4H

> <InChI Key_QSARr>
OCJBOOLMMGQPQU-UHFFFAOYSA-N

> <Salt_Solvent>


> <Salt_Solvent_ID>
0

> <MPID>
101776

> <LogKmHL>
1.1

> <Tr_1_Tst_0>
1

$$$$
100143
  Mrv171c012251910542D          

  8  8  0  0  0  0            999 V2000
    1.6500   -2.3653    0.0000 N   0  0  0  0  0  0  0  0  0  0  0  0
    1.6500   -1.5403    0.0000 C   0  0  0  0  0  0  0  0  0  0  0  0
    2.3645   -1.1278    0.0000 C   0  0  0  0  0  0  0  0  0  0  0  0
    2.3645   -0.3028    0.0000 C   0  0  0  0  0  0  0  0  0  0  0  0
    1.6500    0.1097    0.0000 C   0  0  0  0  0  0  0  0  0  0  0  0
    1.6500    0.9347    0.0000 Cl  0  0  0  0  0  0  0  0  0  0  0  0
    0.9355   -0.3028    0.0000 C   0  0  0  0  0  0  0  0  0  0  0  0
    0.9355   -1.1278    0.0000 C   0  0  0  0  0  0  0  0  0  0  0  0
  1  2  1  0  0  0  0
  3  2  1  0  0  0  0
  4  3  2  0  0  0  0
  5  4  1  0  0  0  0
  5  6  1  0  0  0  0
  7  5  2  0  0  0  0
  8  7  1  0  0  0  0
  2  8  2  0  0  0  0
M  END
> <ChemID>
100143

> <CAS>
106-47-8

> <Original_SMILES>
Nc1ccc(Cl)cc1

> <preferred_name>
4-Chloroaniline

> <dsstox_substance_id>
DTXSID9020295

> <dsstox_compound_id>
DTXCID50295

> <qc_level>
DSSTox_Low

> <Canonical_QSARr>
NC1=CC=C(Cl)C=C1

> <InChI_Code_QSARr>
InChI=1S/C6H6ClN/c7-5-1-3-6(8)4-2-5/h1-4H,8H2

> <InChI Key_QSARr>
QSNSCYSYFYORTR-UHFFFAOYSA-N

> <Salt_Solvent>


> <Salt_Solvent_ID>
0

> <MPID>
101777

> <LogKmHL>
-0.61

> <Tr_1_Tst_0>
1

$$$$
100144
  Mrv171c012251910542D          

  8  8  0  0  0  0            999 V2000
    1.6500   -2.3653    0.0000 O   0  0  0  0  0  0  0  0  0  0  0  0
    1.6500   -1.5403    0.0000 C   0  0  0  0  0  0  0  0  0  0  0  0
    2.3645   -1.1278    0.0000 C   0  0  0  0  0  0  0  0  0  0  0  0
    2.3645   -0.3028    0.0000 C   0  0  0  0  0  0  0  0  0  0  0  0
    1.6500    0.1097    0.0000 C   0  0  0  0  0  0  0  0  0  0  0  0
    1.6500    0.9347    0.0000 Cl  0  0  0  0  0  0  0  0  0  0  0  0
    0.9355   -0.3028    0.0000 C   0  0  0  0  0  0  0  0  0  0  0  0
    0.9355   -1.1278    0.0000 C   0  0  0  0  0  0  0  0  0  0  0  0
  1  2  1  0  0  0  0
  3  2  1  0  0  0  0
  4  3  2  0  0  0  0
  5  4  1  0  0  0  0
  5  6  1  0  0  0  0
  7  5  2  0  0  0  0
  8  7  1  0  0  0  0
  2  8  2  0  0  0  0
M  END
> <ChemID>
100144

> <CAS>
106-48-9

> <Original_SMILES>
Oc1ccc(Cl)cc1

> <preferred_name>
4-Chlorophenol

> <dsstox_substance_id>
DTXSID1021871

> <dsstox_compound_id>
DTXCID201871

> <qc_level>
DSSTox_Low

> <Canonical_QSARr>
OC1=CC=C(Cl)C=C1

> <InChI_Code_QSARr>
InChI=1S/C6H5ClO/c7-5-1-3-6(8)4-2-5/h1-4,8H

> <InChI Key_QSARr>
WXNZTHHGJRFXKQ-UHFFFAOYSA-N

> <Salt_Solvent>


> <Salt_Solvent_ID>
0

> <MPID>
101778

> <LogKmHL>
-0.41

> <Tr_1_Tst_0>
0

$$$$
100145
  Mrv171c012251910542D          

  4  3  0  0  0  0            999 V2000
    2.1020   -0.5628    0.0000 Br  0  0  0  0  0  0  0  0  0  0  0  0
    1.2770   -0.5628    0.0000 C   0  0  0  0  0  0  0  0  0  0  0  0
    0.8645    0.1517    0.0000 C   0  0  0  0  0  0  0  0  0  0  0  0
    0.0395    0.1517    0.0000 Br  0  0  0  0  0  0  0  0  0  0  0  0
  1  2  1  0  0  0  0
  2  3  1  0  0  0  0
  3  4  1  0  0  0  0
M  END
> <ChemID>
100145

> <CAS>
106-93-4

> <Original_SMILES>
BrCCBr

> <preferred_name>
1,2-Dibromoethane

> <dsstox_substance_id>
DTXSID3020415

> <dsstox_compound_id>
DTXCID10415

> <qc_level>
DSSTox_Low

> <Canonical_QSARr>
BrCCBr

> <InChI_Code_QSARr>
InChI=1S/C2H4Br2/c3-1-2-4/h1-2H2

> <InChI Key_QSARr>
PAAZPARNPHGIKF-UHFFFAOYSA-N

> <Salt_Solvent>


> <Salt_Solvent_ID>
0

> <MPID>
101779

> <LogKmHL>
-0.83

> <Tr_1_Tst_0>
1

$$$$
100146
  Mrv171c012251910542D          

  4  3  0  0  0  0            999 V2000
    2.1042   -0.5633    0.0000 C   0  0  0  0  0  0  0  0  0  0  0  0
    1.2792   -0.5633    0.0000 C   0  0  0  0  0  0  0  0  0  0  0  0
    0.8667    0.1512    0.0000 C   0  0  0  0  0  0  0  0  0  0  0  0
    0.0417    0.1512    0.0000 Cl  0  0  0  0  0  0  0  0  0  0  0  0
  1  2  2  0  0  0  0
  2  3  1  0  0  0  0
  3  4  1  0  0  0  0
M  END
> <ChemID>
100146

> <CAS>
107-05-1

> <Original_SMILES>
C=CCCl

> <preferred_name>
Allyl chloride

> <dsstox_substance_id>
DTXSID4039231

> <dsstox_compound_id>
DTXCID4045

> <qc_level>
DSSTox_Low

> <Canonical_QSARr>
C=CCCl

> <InChI_Code_QSARr>
InChI=1S/C3H5Cl/c1-2-3-4/h2H,1,3H2

> <InChI Key_QSARr>
OSDWBNJEKMUWAV-UHFFFAOYSA-N

> <Salt_Solvent>


> <Salt_Solvent_ID>
0

> <MPID>
101780

> <LogKmHL>
-0.93

> <Tr_1_Tst_0>
1

$$$$
100147
  Mrv171c012251910542D          

  8  7  0  0  0  0            999 V2000
    1.1734   -2.3214    0.0000 C   0  0  0  0  0  0  0  0  0  0  0  0
    1.1734   -1.4964    0.0000 C   0  0  0  0  0  0  0  0  0  0  0  0
    0.4589   -1.0839    0.0000 C   0  0  0  0  0  0  0  0  0  0  0  0
    1.8878   -1.0839    0.0000 C   0  0  0  0  0  0  0  0  0  0  0  0
    1.8878   -0.2589    0.0000 C   0  0  0  0  0  0  0  0  0  0  0  0
    1.8878    0.5661    0.0000 C   0  0  0  0  0  0  0  0  0  0  0  0
    2.7128   -0.2589    0.0000 C   0  0  0  0  0  0  0  0  0  0  0  0
    1.0628   -0.2589    0.0000 C   0  0  0  0  0  0  0  0  0  0  0  0
  1  2  2  0  0  0  0
  2  3  1  0  0  0  0
  2  4  1  0  0  0  0
  4  5  1  0  0  0  0
  5  6  1  0  0  0  0
  5  7  1  0  0  0  0
  5  8  1  0  0  0  0
M  END
> <ChemID>
100147

> <CAS>
107-39-1

> <Original_SMILES>
CC(=C)CC(C)(C)C

> <preferred_name>
2,4,4-Trimethyl-1-pentene

> <dsstox_substance_id>
DTXSID4026765

> <dsstox_compound_id>
DTXCID806765

> <qc_level>
DSSTox_Low

> <Canonical_QSARr>
CC(=C)CC(C)(C)C

> <InChI_Code_QSARr>
InChI=1S/C8H16/c1-7(2)6-8(3,4)5/h1,6H2,2-5H3

> <InChI Key_QSARr>
FXNDIJDIPNCZQJ-UHFFFAOYSA-N

> <Salt_Solvent>


> <Salt_Solvent_ID>
0

> <MPID>
101781

> <LogKmHL>
0.12

> <Tr_1_Tst_0>
1

$$$$
100148
  Mrv171c012251910542D          

 28 28  0  0  0  0            999 V2000
    3.1389    0.9141    0.0000 Si  0  0  0  0  0  0  0  0  0  0  0  0
    2.7759    1.6550    0.0000 C   0  0  0  0  0  0  0  0  0  0  0  0
    3.8055    1.4002    0.0000 C   0  0  0  0  0  0  0  0  0  0  0  0
    2.3463    0.6853    0.0000 O   0  0  0  0  0  0  0  0  0  0  0  0
    1.7518    1.2573    0.0000 Si  0  0  0  0  0  0  0  0  0  0  0  0
    2.4184    1.7434    0.0000 C   0  0  0  0  0  0  0  0  0  0  0  0
    1.3888    1.9982    0.0000 C   0  0  0  0  0  0  0  0  0  0  0  0
    0.9592    1.0285    0.0000 O   0  0  0  0  0  0  0  0  0  0  0  0
    0.7610    0.2277    0.0000 Si  0  0  0  0  0  0  0  0  0  0  0  0
    0.3980    0.9685    0.0000 C   0  0  0  0  0  0  0  0  0  0  0  0
    0.0067    0.5619    0.0000 C   0  0  0  0  0  0  0  0  0  0  0  0
   -0.0316   -0.0012    0.0000 O   0  0  0  0  0  0  0  0  0  0  0  0
   -0.2298   -0.8020    0.0000 Si  0  0  0  0  0  0  0  0  0  0  0  0
   -0.9840   -0.4678    0.0000 C   0  0  0  0  0  0  0  0  0  0  0  0
   -0.6899   -1.4868    0.0000 C   0  0  0  0  0  0  0  0  0  0  0  0
    0.3647   -1.3740    0.0000 O   0  0  0  0  0  0  0  0  0  0  0  0
    1.1573   -1.1452    0.0000 Si  0  0  0  0  0  0  0  0  0  0  0  0
    0.6972   -1.8300    0.0000 C   0  0  0  0  0  0  0  0  0  0  0  0
    1.2450   -1.9656    0.0000 C   0  0  0  0  0  0  0  0  0  0  0  0
    1.7518   -1.7173    0.0000 O   0  0  0  0  0  0  0  0  0  0  0  0
    2.5444   -1.4885    0.0000 Si  0  0  0  0  0  0  0  0  0  0  0  0
    2.6321   -2.3088    0.0000 C   0  0  0  0  0  0  0  0  0  0  0  0
    3.3675   -1.5445    0.0000 C   0  0  0  0  0  0  0  0  0  0  0  0
    2.7426   -0.6876    0.0000 O   0  0  0  0  0  0  0  0  0  0  0  0
    3.5352   -0.4588    0.0000 Si  0  0  0  0  0  0  0  0  0  0  0  0
    3.6229   -1.2791    0.0000 C   0  0  0  0  0  0  0  0  0  0  0  0
    4.3583   -0.5149    0.0000 C   0  0  0  0  0  0  0  0  0  0  0  0
    3.7334    0.3421    0.0000 O   0  0  0  0  0  0  0  0  0  0  0  0
  1  2  1  0  0  0  0
  1  3  1  0  0  0  0
  4  1  1  0  0  0  0
  5  4  1  0  0  0  0
  5  6  1  0  0  0  0
  5  7  1  0  0  0  0
  8  5  1  0  0  0  0
  9  8  1  0  0  0  0
  9 10  1  0  0  0  0
  9 11  1  0  0  0  0
 12  9  1  0  0  0  0
 13 12  1  0  0  0  0
 13 14  1  0  0  0  0
 13 15  1  0  0  0  0
 16 13  1  0  0  0  0
 17 16  1  0  0  0  0
 17 18  1  0  0  0  0
 17 19  1  0  0  0  0
 20 17  1  0  0  0  0
 21 20  1  0  0  0  0
 21 22  1  0  0  0  0
 21 23  1  0  0  0  0
 24 21  1  0  0  0  0
 25 24  1  0  0  0  0
 25 26  1  0  0  0  0
 25 27  1  0  0  0  0
 28 25  1  0  0  0  0
  1 28  1  0  0  0  0
M  END
> <ChemID>
100148

> <CAS>
107-50-6

> <Original_SMILES>
C[Si]1(C)O[Si](C)(C)O[Si](C)(C)O[Si](C)(C)O[Si](C)(C)O[Si](C)(C)O[Si](C)(C)O1

> <preferred_name>
Cycloheptasiloxane, tetradecamethyl-

> <dsstox_substance_id>
DTXSID8059348

> <dsstox_compound_id>
DTXCID5033040

> <qc_level>
Public_High

> <Canonical_QSARr>
C[Si]1(C)O[Si](C)(C)O[Si](C)(C)O[Si](C)(C)O[Si](C)(C)O[Si](C)(C)O[Si](C)(C)O1

> <InChI_Code_QSARr>
InChI=1S/C14H42O7Si7/c1-22(2)15-23(3,4)17-25(7,8)19-27(11,12)21-28(13,14)20-26(9,10)18-24(5,6)16-22/h1-14H3

> <InChI Key_QSARr>
GSANOGQCVHBHIF-UHFFFAOYSA-N

> <Salt_Solvent>


> <Salt_Solvent_ID>
0

> <MPID>
101782

> <LogKmHL>
1.48

> <Tr_1_Tst_0>
0

$$$$
100149
  Mrv171c012251910542D          

  8  8  0  0  0  0            999 V2000
    1.4296   -2.0662    0.0000 C   0  0  0  0  0  0  0  0  0  0  0  0
    2.1441   -2.4787    0.0000 Br  0  0  0  0  0  0  0  0  0  0  0  0
    1.4296   -1.2412    0.0000 C   0  0  0  0  0  0  0  0  0  0  0  0
    0.7151   -0.8287    0.0000 C   0  0  0  0  0  0  0  0  0  0  0  0
    0.7151   -0.0037    0.0000 Br  0  0  0  0  0  0  0  0  0  0  0  0
    0.0006   -1.2412    0.0000 C   0  0  0  0  0  0  0  0  0  0  0  0
    0.0006   -2.0662    0.0000 C   0  0  0  0  0  0  0  0  0  0  0  0
    0.7151   -2.4787    0.0000 C   0  0  0  0  0  0  0  0  0  0  0  0
  1  2  1  0  0  0  0
  3  1  1  0  0  0  0
  4  3  2  0  0  0  0
  4  5  1  0  0  0  0
  6  4  1  0  0  0  0
  7  6  2  0  0  0  0
  8  7  1  0  0  0  0
  1  8  2  0  0  0  0
M  END
> <ChemID>
100149

> <CAS>
108-36-1

> <Original_SMILES>
Brc1cc(Br)ccc1

> <preferred_name>
1,3-Dibromobenzene

> <dsstox_substance_id>
DTXSID7051555

> <dsstox_compound_id>
DTXCID1030107

> <qc_level>
DSSTox_High

> <Canonical_QSARr>
BrC1=CC(Br)=CC=C1

> <InChI_Code_QSARr>
InChI=1S/C6H4Br2/c7-5-2-1-3-6(8)4-5/h1-4H

> <InChI Key_QSARr>
JSRLURSZEMLAFO-UHFFFAOYSA-N

> <Salt_Solvent>


> <Salt_Solvent_ID>
0

> <MPID>
101783

> <LogKmHL>
1.16

> <Tr_1_Tst_0>
1

$$$$
100150
  Mrv171c012251910542D          

  8  8  0  0  0  0            999 V2000
    2.6801   -1.9594    0.0000 Cl  0  0  0  0  0  0  0  0  0  0  0  0
    1.9657   -1.5469    0.0000 C   0  0  0  0  0  0  0  0  0  0  0  0
    1.9657   -0.7219    0.0000 C   0  0  0  0  0  0  0  0  0  0  0  0
    1.2512   -0.3094    0.0000 C   0  0  0  0  0  0  0  0  0  0  0  0
    1.2512    0.5156    0.0000 N   0  0  0  0  0  0  0  0  0  0  0  0
    0.5367   -0.7219    0.0000 C   0  0  0  0  0  0  0  0  0  0  0  0
    0.5367   -1.5469    0.0000 C   0  0  0  0  0  0  0  0  0  0  0  0
    1.2512   -1.9594    0.0000 C   0  0  0  0  0  0  0  0  0  0  0  0
  1  2  1  0  0  0  0
  3  2  1  0  0  0  0
  4  3  2  0  0  0  0
  4  5  1  0  0  0  0
  6  4  1  0  0  0  0
  7  6  2  0  0  0  0
  8  7  1  0  0  0  0
  2  8  2  0  0  0  0
M  END
> <ChemID>
100150

> <CAS>
108-42-9

> <Original_SMILES>
Nc1cc(Cl)ccc1

> <preferred_name>
3-Chloroaniline

> <dsstox_substance_id>
DTXSID0024761

> <dsstox_compound_id>
DTXCID004761

> <qc_level>
DSSTox_Low

> <Canonical_QSARr>
NC1=CC(Cl)=CC=C1

> <InChI_Code_QSARr>
InChI=1S/C6H6ClN/c7-5-2-1-3-6(8)4-5/h1-4H,8H2

> <InChI Key_QSARr>
PNPCRKVUWYDDST-UHFFFAOYSA-N

> <Salt_Solvent>


> <Salt_Solvent_ID>
0

> <MPID>
101784

> <LogKmHL>
-0.71

> <Tr_1_Tst_0>
1

$$$$
100151
  Mrv171c012251910542D          

  8  8  0  0  0  0            999 V2000
    2.6801   -1.9594    0.0000 Cl  0  0  0  0  0  0  0  0  0  0  0  0
    1.9657   -1.5469    0.0000 C   0  0  0  0  0  0  0  0  0  0  0  0
    1.9657   -0.7219    0.0000 C   0  0  0  0  0  0  0  0  0  0  0  0
    1.2512   -0.3094    0.0000 C   0  0  0  0  0  0  0  0  0  0  0  0
    1.2512    0.5156    0.0000 O   0  0  0  0  0  0  0  0  0  0  0  0
    0.5367   -0.7219    0.0000 C   0  0  0  0  0  0  0  0  0  0  0  0
    0.5367   -1.5469    0.0000 C   0  0  0  0  0  0  0  0  0  0  0  0
    1.2512   -1.9594    0.0000 C   0  0  0  0  0  0  0  0  0  0  0  0
  1  2  1  0  0  0  0
  3  2  1  0  0  0  0
  4  3  2  0  0  0  0
  4  5  1  0  0  0  0
  6  4  1  0  0  0  0
  7  6  2  0  0  0  0
  8  7  1  0  0  0  0
  2  8  2  0  0  0  0
M  END
> <ChemID>
100151

> <CAS>
108-43-0

> <Original_SMILES>
Oc1cc(Cl)ccc1

> <preferred_name>
3-Chlorophenol

> <dsstox_substance_id>
DTXSID4024800

> <dsstox_compound_id>
DTXCID004800

> <qc_level>
DSSTox_Low

> <Canonical_QSARr>
OC1=CC(Cl)=CC=C1

> <InChI_Code_QSARr>
InChI=1S/C6H5ClO/c7-5-2-1-3-6(8)4-5/h1-4,8H

> <InChI Key_QSARr>
HORNXRXVQWOLPJ-UHFFFAOYSA-N

> <Salt_Solvent>


> <Salt_Solvent_ID>
0

> <MPID>
101785

> <LogKmHL>
-0.68

> <Tr_1_Tst_0>
1

$$$$
100152
  Mrv171c012251910542D          

 10 10  0  0  0  0            999 V2000
    0.2143   -0.5775    0.0000 C   0  0  0  0  0  0  0  0  0  0  0  0
    0.9288   -0.9900    0.0000 C   0  0  0  0  0  0  0  0  0  0  0  0
    0.9288   -1.8150    0.0000 C   0  0  0  0  0  0  0  0  0  0  0  0
    0.2143    0.2475    0.0000 C   0  0  0  0  0  0  0  0  0  0  0  0
   -0.5001    0.6600    0.0000 C   0  0  0  0  0  0  0  0  0  0  0  0
   -0.5001    1.4850    0.0000 C   0  0  0  0  0  0  0  0  0  0  0  0
   -1.2146    1.8975    0.0000 C   0  0  0  0  0  0  0  0  0  0  0  0
   -1.2146    0.2475    0.0000 C   0  0  0  0  0  0  0  0  0  0  0  0
   -1.2146   -0.5775    0.0000 C   0  0  0  0  0  0  0  0  0  0  0  0
   -0.5001   -0.9900    0.0000 C   0  0  0  0  0  0  0  0  0  0  0  0
  1  2  1  0  0  0  0
  2  3  2  0  0  0  0
  4  1  1  0  0  0  0
  5  4  2  0  0  0  0
  5  6  1  0  0  0  0
  6  7  2  0  0  0  0
  8  5  1  0  0  0  0
  9  8  2  0  0  0  0
 10  9  1  0  0  0  0
  1 10  2  0  0  0  0
M  END
> <ChemID>
100152

> <CAS>
108-57-6

> <Original_SMILES>
C=Cc1cc(ccc1)C=C

> <preferred_name>
1,3-Diethenylbenzene

> <dsstox_substance_id>
DTXSID30110020

> <dsstox_compound_id>
DTXCID108939

> <qc_level>
DSSTox_High

> <Canonical_QSARr>
C=CC1C=C(C=CC=1)C=C

> <InChI_Code_QSARr>
InChI=1S/C10H10/c1-3-9-6-5-7-10(4-2)8-9/h3-8H,1-2H2

> <InChI Key_QSARr>
PRJNEUBECVAVAG-UHFFFAOYSA-N

> <Salt_Solvent>


> <Salt_Solvent_ID>
0

> <MPID>
101786

> <LogKmHL>
0.59

> <Tr_1_Tst_0>
0

$$$$
100153
  Mrv171c012251910542D          

  9  8  0  0  0  0            999 V2000
    0.7124   -1.2383    0.0000 C   0  0  0  0  0  0  0  0  0  0  0  0
   -0.0020   -0.8258    0.0000 Cl  0  0  0  0  0  0  0  0  0  0  0  0
    1.4269   -0.8258    0.0000 C   0  0  0  0  0  0  0  0  0  0  0  0
    2.1414   -1.2383    0.0000 O   0  0  0  0  0  0  0  0  0  0  0  0
    2.8558   -0.8258    0.0000 C   0  0  0  0  0  0  0  0  0  0  0  0
    2.8558   -0.0008    0.0000 C   0  0  0  0  0  0  0  0  0  0  0  0
    3.5703   -1.2383    0.0000 C   0  0  0  0  0  0  0  0  0  0  0  0
    4.2848   -0.8258    0.0000 Cl  0  0  0  0  0  0  0  0  0  0  0  0
    1.4269   -0.0008    0.0000 C   0  0  0  0  0  0  0  0  0  0  0  0
  1  2  1  0  0  0  0
  1  3  1  0  0  0  0
  3  4  1  0  0  0  0
  4  5  1  0  0  0  0
  5  6  1  0  0  0  0
  5  7  1  0  0  0  0
  7  8  1  0  0  0  0
  3  9  1  0  0  0  0
M  END
> <ChemID>
100153

> <CAS>
108-60-1

> <Original_SMILES>
CC(CCl)OC(C)CCl

> <preferred_name>
bis(2-Chloro-1-methylethyl) ether

> <dsstox_substance_id>
DTXSID4020167

> <dsstox_compound_id>
DTXCID40167

> <qc_level>
DSSTox_High

> <Canonical_QSARr>
CC(CCl)OC(C)CCl

> <InChI_Code_QSARr>
InChI=1S/C6H12Cl2O/c1-5(3-7)9-6(2)4-8/h5-6H,3-4H2,1-2H3

> <InChI Key_QSARr>
QCFYJCYNJLBDRT-UHFFFAOYSA-N

> <Salt_Solvent>


> <Salt_Solvent_ID>
0

> <MPID>
101787

> <LogKmHL>
-1.07

> <Tr_1_Tst_0>
1

$$$$
100154
  Mrv171c012251910542D          

  9  9  0  0  0  0            999 V2000
    2.1349   -2.0567    0.0000 C   0  0  0  0  0  0  0  0  0  0  0  0
    2.8494   -2.4692    0.0000 C   0  0  0  0  0  0  0  0  0  0  0  0
    2.1349   -1.2317    0.0000 C   0  0  0  0  0  0  0  0  0  0  0  0
    1.4204   -0.8192    0.0000 C   0  0  0  0  0  0  0  0  0  0  0  0
    1.4204    0.0058    0.0000 C   0  0  0  0  0  0  0  0  0  0  0  0
    0.7060   -1.2317    0.0000 C   0  0  0  0  0  0  0  0  0  0  0  0
    0.7060   -2.0567    0.0000 C   0  0  0  0  0  0  0  0  0  0  0  0
   -0.0085   -2.4692    0.0000 C   0  0  0  0  0  0  0  0  0  0  0  0
    1.4204   -2.4692    0.0000 C   0  0  0  0  0  0  0  0  0  0  0  0
  1  2  1  0  0  0  0
  3  1  1  0  0  0  0
  4  3  2  0  0  0  0
  4  5  1  0  0  0  0
  6  4  1  0  0  0  0
  7  6  2  0  0  0  0
  7  8  1  0  0  0  0
  9  7  1  0  0  0  0
  1  9  2  0  0  0  0
M  END
> <ChemID>
100154

> <CAS>
108-67-8

> <Original_SMILES>
Cc1cc(C)cc(C)c1

> <preferred_name>
1,3,5-Trimethylbenzene

> <dsstox_substance_id>
DTXSID6026797

> <dsstox_compound_id>
DTXCID506797

> <qc_level>
DSSTox_Low

> <Canonical_QSARr>
CC1C=C(C)C=C(C)C=1

> <InChI_Code_QSARr>
InChI=1S/C9H12/c1-7-4-8(2)6-9(3)5-7/h4-6H,1-3H3

> <InChI Key_QSARr>
AUHZEENZYGFFBQ-UHFFFAOYSA-N

> <Salt_Solvent>


> <Salt_Solvent_ID>
0

> <MPID>
101788

> <LogKmHL>
0.4

> <Tr_1_Tst_0>
1

$$$$
100155
  Mrv171c012251910542D          

  9  9  0  0  0  0            999 V2000
    2.3656   -1.8422    0.0000 C   0  0  0  0  0  0  0  0  0  0  0  0
    3.0801   -2.2547    0.0000 Cl  0  0  0  0  0  0  0  0  0  0  0  0
    2.3656   -1.0172    0.0000 C   0  0  0  0  0  0  0  0  0  0  0  0
    1.6512   -0.6047    0.0000 C   0  0  0  0  0  0  0  0  0  0  0  0
    1.6512    0.2203    0.0000 Cl  0  0  0  0  0  0  0  0  0  0  0  0
    0.9367   -1.0172    0.0000 C   0  0  0  0  0  0  0  0  0  0  0  0
    0.9367   -1.8422    0.0000 C   0  0  0  0  0  0  0  0  0  0  0  0
    0.2222   -2.2547    0.0000 Cl  0  0  0  0  0  0  0  0  0  0  0  0
    1.6512   -2.2547    0.0000 C   0  0  0  0  0  0  0  0  0  0  0  0
  1  2  1  0  0  0  0
  3  1  1  0  0  0  0
  4  3  2  0  0  0  0
  4  5  1  0  0  0  0
  6  4  1  0  0  0  0
  7  6  2  0  0  0  0
  7  8  1  0  0  0  0
  9  7  1  0  0  0  0
  1  9  2  0  0  0  0
M  END
> <ChemID>
100155

> <CAS>
108-70-3

> <Original_SMILES>
Clc1cc(Cl)cc(Cl)c1

> <preferred_name>
1,3,5-Trichlorobenzene

> <dsstox_substance_id>
DTXSID8026195

> <dsstox_compound_id>
DTXCID506195

> <qc_level>
DSSTox_High

> <Canonical_QSARr>
ClC1C=C(Cl)C=C(Cl)C=1

> <InChI_Code_QSARr>
InChI=1S/C6H3Cl3/c7-4-1-5(8)3-6(9)2-4/h1-3H

> <InChI Key_QSARr>
XKEFYDZQGKAQCN-UHFFFAOYSA-N

> <Salt_Solvent>


> <Salt_Solvent_ID>
0

> <MPID>
101789

> <LogKmHL>
1.19

> <Tr_1_Tst_0>
1

$$$$
100156
  Mrv171c012251910542D          

  7  7  0  0  0  0            999 V2000
    1.4153   -0.1250    0.0000 C   0  0  0  0  0  0  0  0  0  0  0  0
    1.4153    0.7000    0.0000 Br  0  0  0  0  0  0  0  0  0  0  0  0
    0.7009   -0.5375    0.0000 C   0  0  0  0  0  0  0  0  0  0  0  0
    0.7009   -1.3625    0.0000 C   0  0  0  0  0  0  0  0  0  0  0  0
    1.4153   -1.7750    0.0000 C   0  0  0  0  0  0  0  0  0  0  0  0
    2.1298   -1.3625    0.0000 C   0  0  0  0  0  0  0  0  0  0  0  0
    2.1298   -0.5375    0.0000 C   0  0  0  0  0  0  0  0  0  0  0  0
  1  2  1  0  0  0  0
  3  1  1  0  0  0  0
  4  3  2  0  0  0  0
  5  4  1  0  0  0  0
  6  5  2  0  0  0  0
  7  6  1  0  0  0  0
  1  7  2  0  0  0  0
M  END
> <ChemID>
100156

> <CAS>
108-86-1

> <Original_SMILES>
Brc1ccccc1

> <preferred_name>
Bromobenzene

> <dsstox_substance_id>
DTXSID5024637

> <dsstox_compound_id>
DTXCID304637

> <qc_level>
DSSTox_Low

> <Canonical_QSARr>
BrC1C=CC=CC=1

> <InChI_Code_QSARr>
InChI=1S/C6H5Br/c7-6-4-2-1-3-5-6/h1-5H

> <InChI Key_QSARr>
QARVLSVVCXYDNA-UHFFFAOYSA-N

> <Salt_Solvent>


> <Salt_Solvent_ID>
0

> <MPID>
101790

> <LogKmHL>
-1.19

> <Tr_1_Tst_0>
0

$$$$
100157
  Mrv171c012251910542D          

  7  7  0  0  0  0            999 V2000
    1.4305   -1.2414    0.0000 C   0  0  0  0  0  0  0  0  0  0  0  0
    0.7160   -0.8289    0.0000 C   0  0  0  0  0  0  0  0  0  0  0  0
    0.7160   -0.0039    0.0000 C   0  0  0  0  0  0  0  0  0  0  0  0
    0.0015   -1.2414    0.0000 C   0  0  0  0  0  0  0  0  0  0  0  0
    0.0015   -2.0664    0.0000 C   0  0  0  0  0  0  0  0  0  0  0  0
    0.7160   -2.4789    0.0000 C   0  0  0  0  0  0  0  0  0  0  0  0
    1.4305   -2.0664    0.0000 C   0  0  0  0  0  0  0  0  0  0  0  0
  2  1  1  0  0  0  0
  2  3  1  0  0  0  0
  4  2  1  0  0  0  0
  5  4  1  0  0  0  0
  6  5  1  0  0  0  0
  7  6  1  0  0  0  0
  1  7  1  0  0  0  0
M  END
> <ChemID>
100157

> <CAS>
108-87-2

> <Original_SMILES>
CC1CCCCC1

> <preferred_name>
Methylcyclohexane

> <dsstox_substance_id>
DTXSID0047749

> <dsstox_compound_id>
DTXCID4027733

> <qc_level>
DSSTox_Low

> <Canonical_QSARr>
CC1CCCCC1

> <InChI_Code_QSARr>
InChI=1S/C7H14/c1-7-5-3-2-4-6-7/h7H,2-6H2,1H3

> <InChI Key_QSARr>
UAEPNZWRGJTJPN-UHFFFAOYSA-N

> <Salt_Solvent>


> <Salt_Solvent_ID>
0

> <MPID>
101791

> <LogKmHL>
0.57

> <Tr_1_Tst_0>
1

$$$$
100158
  Mrv171c012251910542D          

  7  7  0  0  0  0            999 V2000
    1.4153    0.7000    0.0000 Cl  0  0  0  0  0  0  0  0  0  0  0  0
    1.4153   -0.1250    0.0000 C   0  0  0  0  0  0  0  0  0  0  0  0
    0.7009   -0.5375    0.0000 C   0  0  0  0  0  0  0  0  0  0  0  0
    0.7009   -1.3625    0.0000 C   0  0  0  0  0  0  0  0  0  0  0  0
    1.4153   -1.7750    0.0000 C   0  0  0  0  0  0  0  0  0  0  0  0
    2.1298   -1.3625    0.0000 C   0  0  0  0  0  0  0  0  0  0  0  0
    2.1298   -0.5375    0.0000 C   0  0  0  0  0  0  0  0  0  0  0  0
  1  2  1  0  0  0  0
  3  2  1  0  0  0  0
  4  3  2  0  0  0  0
  5  4  1  0  0  0  0
  6  5  2  0  0  0  0
  7  6  1  0  0  0  0
  2  7  2  0  0  0  0
M  END
> <ChemID>
100158

> <CAS>
108-90-7

> <Original_SMILES>
Clc1ccccc1

> <preferred_name>
Chlorobenzene

> <dsstox_substance_id>
DTXSID4020298

> <dsstox_compound_id>
DTXCID40298

> <qc_level>
DSSTox_Low

> <Canonical_QSARr>
ClC1C=CC=CC=1

> <InChI_Code_QSARr>
InChI=1S/C6H5Cl/c7-6-4-2-1-3-5-6/h1-5H

> <InChI Key_QSARr>
MVPPADPHJFYWMZ-UHFFFAOYSA-N

> <Salt_Solvent>


> <Salt_Solvent_ID>
0

> <MPID>
101792

> <LogKmHL>
-1.02

> <Tr_1_Tst_0>
1

$$$$
100159
  Mrv171c012251910542D          

  7  7  0  0  0  0            999 V2000
    0.7009   -0.5375    0.0000 N   0  0  0  0  0  0  0  0  0  0  0  0
    0.7009   -1.3625    0.0000 C   0  0  0  0  0  0  0  0  0  0  0  0
    1.4153   -1.7750    0.0000 C   0  0  0  0  0  0  0  0  0  0  0  0
    2.1298   -1.3625    0.0000 C   0  0  0  0  0  0  0  0  0  0  0  0
    2.1298   -0.5375    0.0000 C   0  0  0  0  0  0  0  0  0  0  0  0
    1.4153   -0.1250    0.0000 C   0  0  0  0  0  0  0  0  0  0  0  0
    1.4153    0.7000    0.0000 Cl  0  0  0  0  0  0  0  0  0  0  0  0
  2  1  1  0  0  0  0
  3  2  2  0  0  0  0
  4  3  1  0  0  0  0
  5  4  2  0  0  0  0
  6  5  1  0  0  0  0
  1  6  2  0  0  0  0
  6  7  1  0  0  0  0
M  END
> <ChemID>
100159

> <CAS>
109-09-1

> <Original_SMILES>
Clc1cccc[n]1

> <preferred_name>
2-Chloropyridine

> <dsstox_substance_id>
DTXSID8024810

> <dsstox_compound_id>
DTXCID304810

> <qc_level>
DSSTox_Low

> <Canonical_QSARr>
ClC1C=CC=CN=1

> <InChI_Code_QSARr>
InChI=1S/C5H4ClN/c6-5-3-1-2-4-7-5/h1-4H

> <InChI Key_QSARr>
OKDGRDCXVWSXDC-UHFFFAOYSA-N

> <Salt_Solvent>


> <Salt_Solvent_ID>
0

> <MPID>
101793

> <LogKmHL>
-0.85

> <Tr_1_Tst_0>
1

$$$$
100160
  Mrv171c012251910542D          

  5  4  0  0  0  0            999 V2000
    2.5848   -1.1044    0.0000 C   0  0  0  0  0  0  0  0  0  0  0  0
    2.1723   -0.3899    0.0000 C   0  0  0  0  0  0  0  0  0  0  0  0
    1.3473   -0.3899    0.0000 C   0  0  0  0  0  0  0  0  0  0  0  0
    0.9348    0.3245    0.0000 C   0  0  0  0  0  0  0  0  0  0  0  0
    0.1098    0.3245    0.0000 Cl  0  0  0  0  0  0  0  0  0  0  0  0
  1  2  1  0  0  0  0
  2  3  1  0  0  0  0
  3  4  1  0  0  0  0
  4  5  1  0  0  0  0
M  END
> <ChemID>
100160

> <CAS>
109-69-3

> <Original_SMILES>
CCCCCl

> <preferred_name>
1-Chlorobutane

> <dsstox_substance_id>
DTXSID8020206

> <dsstox_compound_id>
DTXCID00206

> <qc_level>
DSSTox_Low

> <Canonical_QSARr>
CCCCCl

> <InChI_Code_QSARr>
InChI=1S/C4H9Cl/c1-2-3-4-5/h2-4H2,1H3

> <InChI Key_QSARr>
VFWCMGCRMGJXDK-UHFFFAOYSA-N

> <Salt_Solvent>


> <Salt_Solvent_ID>
0

> <MPID>
101794

> <LogKmHL>
-0.45

> <Tr_1_Tst_0>
0

$$$$
100161
  Mrv171c012251910542D          

  5  5  0  0  0  0            999 V2000
    1.3347   -0.3508    0.0000 C   0  0  0  0  0  0  0  0  0  0  0  0
    0.6672    0.1341    0.0000 C   0  0  0  0  0  0  0  0  0  0  0  0
   -0.0002   -0.3508    0.0000 C   0  0  0  0  0  0  0  0  0  0  0  0
    0.2547   -1.1354    0.0000 O   0  0  0  0  0  0  0  0  0  0  0  0
    1.0797   -1.1354    0.0000 C   0  0  0  0  0  0  0  0  0  0  0  0
  2  1  1  0  0  0  0
  3  2  2  0  0  0  0
  4  3  1  0  0  0  0
  5  4  1  0  0  0  0
  1  5  2  0  0  0  0
M  END
> <ChemID>
100161

> <CAS>
110-00-9

> <Original_SMILES>
c1ccco1

> <preferred_name>
Furan

> <dsstox_substance_id>
DTXSID6020646

> <dsstox_compound_id>
DTXCID20646

> <qc_level>
DSSTox_Low

> <Canonical_QSARr>
C1=CC=CO1

> <InChI_Code_QSARr>
InChI=1S/C4H4O/c1-2-4-5-3-1/h1-4H

> <InChI Key_QSARr>
YLQBMQCUIZJEEH-UHFFFAOYSA-N

> <Salt_Solvent>


> <Salt_Solvent_ID>
0

> <MPID>
101795

> <LogKmHL>
-0.84

> <Tr_1_Tst_0>
1

$$$$
100162
  Mrv171c012251910542D          

  5  5  0  0  0  0            999 V2000
    1.3347   -0.3508    0.0000 C   0  0  0  0  0  0  0  0  0  0  0  0
    0.6672    0.1341    0.0000 C   0  0  0  0  0  0  0  0  0  0  0  0
   -0.0002   -0.3508    0.0000 C   0  0  0  0  0  0  0  0  0  0  0  0
    0.2547   -1.1354    0.0000 S   0  0  0  0  0  0  0  0  0  0  0  0
    1.0797   -1.1354    0.0000 C   0  0  0  0  0  0  0  0  0  0  0  0
  2  1  1  0  0  0  0
  3  2  2  0  0  0  0
  4  3  1  0  0  0  0
  5  4  1  0  0  0  0
  1  5  2  0  0  0  0
M  END
> <ChemID>
100162

> <CAS>
110-02-1

> <Original_SMILES>
c1ccc[s]1

> <preferred_name>
Thiophene

> <dsstox_substance_id>
DTXSID8026145

> <dsstox_compound_id>
DTXCID006145

> <qc_level>
DSSTox_Low

> <Canonical_QSARr>
C1=CC=CS1

> <InChI_Code_QSARr>
InChI=1S/C4H4S/c1-2-4-5-3-1/h1-4H

> <InChI Key_QSARr>
YTPLMLYBLZKORZ-UHFFFAOYSA-N

> <Salt_Solvent>


> <Salt_Solvent_ID>
0

> <MPID>
101796

> <LogKmHL>
-0.82

> <Tr_1_Tst_0>
1

$$$$
100163
  Mrv171c012251910542D          

  6  6  0  0  0  0            999 V2000
    1.4289   -0.4125    0.0000 C   0  0  0  0  0  0  0  0  0  0  0  0
    0.7145    0.0000    0.0000 C   0  0  0  0  0  0  0  0  0  0  0  0
    0.0000   -0.4125    0.0000 C   0  0  0  0  0  0  0  0  0  0  0  0
    0.0000   -1.2375    0.0000 C   0  0  0  0  0  0  0  0  0  0  0  0
    0.7145   -1.6500    0.0000 C   0  0  0  0  0  0  0  0  0  0  0  0
    1.4289   -1.2375    0.0000 C   0  0  0  0  0  0  0  0  0  0  0  0
  2  1  1  0  0  0  0
  3  2  1  0  0  0  0
  4  3  1  0  0  0  0
  5  4  1  0  0  0  0
  6  5  1  0  0  0  0
  1  6  1  0  0  0  0
M  END
> <ChemID>
100163

> <CAS>
110-82-7

> <Original_SMILES>
C1CCCCC1

> <preferred_name>
Cyclohexane

> <dsstox_substance_id>
DTXSID4021923

> <dsstox_compound_id>
DTXCID701923

> <qc_level>
DSSTox_Low

> <Canonical_QSARr>
C1CCCCC1

> <InChI_Code_QSARr>
InChI=1S/C6H12/c1-2-4-6-5-3-1/h1-6H2

> <InChI Key_QSARr>
XDTMQSROBMDMFD-UHFFFAOYSA-N

> <Salt_Solvent>


> <Salt_Solvent_ID>
0

> <MPID>
101797

> <LogKmHL>
-0.66

> <Tr_1_Tst_0>
1

$$$$
100164
  Mrv171c012251910542D          

  7  6  0  0  0  0            999 V2000
    0.0075   -0.0592    0.0000 Cl  0  0  0  0  0  0  0  0  0  0  0  0
    0.7220   -0.4717    0.0000 C   0  0  0  0  0  0  0  0  0  0  0  0
    1.4365   -0.0592    0.0000 C   0  0  0  0  0  0  0  0  0  0  0  0
    2.1510   -0.4717    0.0000 O   0  0  0  0  0  0  0  0  0  0  0  0
    2.8654   -0.0592    0.0000 C   0  0  0  0  0  0  0  0  0  0  0  0
    3.5799   -0.4717    0.0000 C   0  0  0  0  0  0  0  0  0  0  0  0
    4.2944   -0.0592    0.0000 Cl  0  0  0  0  0  0  0  0  0  0  0  0
  1  2  1  0  0  0  0
  2  3  1  0  0  0  0
  3  4  1  0  0  0  0
  4  5  1  0  0  0  0
  5  6  1  0  0  0  0
  6  7  1  0  0  0  0
M  END
> <ChemID>
100164

> <CAS>
111-44-4

> <Original_SMILES>
ClCCOCCCl

> <preferred_name>
Bis(2-chloroethyl) ether

> <dsstox_substance_id>
DTXSID9020168

> <dsstox_compound_id>
DTXCID70168

> <qc_level>
DSSTox_Low

> <Canonical_QSARr>
ClCCOCCCl

> <InChI_Code_QSARr>
InChI=1S/C4H8Cl2O/c5-1-3-7-4-2-6/h1-4H2

> <InChI Key_QSARr>
ZNSMNVMLTJELDZ-UHFFFAOYSA-N

> <Salt_Solvent>


> <Salt_Solvent_ID>
0

> <MPID>
101798

> <LogKmHL>
-0.81

> <Tr_1_Tst_0>
0

$$$$
100165
  Mrv171c012251910542D          

  9  8  0  0  0  0            999 V2000
    0.7161   -0.4579    0.0000 C   0  0  0  0  0  0  0  0  0  0  0  0
    0.0017   -0.0454    0.0000 C   0  0  0  0  0  0  0  0  0  0  0  0
    1.4306   -0.0454    0.0000 C   0  0  0  0  0  0  0  0  0  0  0  0
    2.1451   -0.4579    0.0000 C   0  0  0  0  0  0  0  0  0  0  0  0
    2.8595   -0.0454    0.0000 C   0  0  0  0  0  0  0  0  0  0  0  0
    3.5740   -0.4579    0.0000 C   0  0  0  0  0  0  0  0  0  0  0  0
    4.2885   -0.0454    0.0000 C   0  0  0  0  0  0  0  0  0  0  0  0
    5.0030   -0.4579    0.0000 C   0  0  0  0  0  0  0  0  0  0  0  0
    5.7174   -0.0454    0.0000 C   0  0  0  0  0  0  0  0  0  0  0  0
  1  2  1  0  0  0  0
  1  3  1  0  0  0  0
  3  4  1  0  0  0  0
  4  5  1  0  0  0  0
  5  6  1  0  0  0  0
  6  7  1  0  0  0  0
  7  8  1  0  0  0  0
  8  9  1  0  0  0  0
M  END
> <ChemID>
100165

> <CAS>
111-84-2

> <Original_SMILES>
CCCCCCCCC

> <preferred_name>
Nonane

> <dsstox_substance_id>
DTXSID9025796

> <dsstox_compound_id>
DTXCID005796

> <qc_level>
DSSTox_Low

> <Canonical_QSARr>
CCCCCCCCC

> <InChI_Code_QSARr>
InChI=1S/C9H20/c1-3-5-7-9-8-6-4-2/h3-9H2,1-2H3

> <InChI Key_QSARr>
BKIMMITUMNQMOS-UHFFFAOYSA-N

> <Salt_Solvent>


> <Salt_Solvent_ID>
0

> <MPID>
101799

> <LogKmHL>
0.97

> <Tr_1_Tst_0>
1

$$$$
100166
  Mrv171c012251910542D          

 12 11  0  0  0  0            999 V2000
   -0.0127   -0.4139    0.0000 C   0  0  0  0  0  0  0  0  0  0  0  0
    0.7018   -0.0014    0.0000 C   0  0  0  0  0  0  0  0  0  0  0  0
    1.4163   -0.4139    0.0000 C   0  0  0  0  0  0  0  0  0  0  0  0
    2.1307   -0.0014    0.0000 C   0  0  0  0  0  0  0  0  0  0  0  0
    2.8452   -0.4139    0.0000 C   0  0  0  0  0  0  0  0  0  0  0  0
    3.5597   -0.0014    0.0000 C   0  0  0  0  0  0  0  0  0  0  0  0
    4.2741   -0.4139    0.0000 C   0  0  0  0  0  0  0  0  0  0  0  0
    4.9886   -0.0014    0.0000 C   0  0  0  0  0  0  0  0  0  0  0  0
    5.7031   -0.4139    0.0000 C   0  0  0  0  0  0  0  0  0  0  0  0
    6.4176   -0.0014    0.0000 C   0  0  0  0  0  0  0  0  0  0  0  0
    7.1320   -0.4139    0.0000 C   0  0  0  0  0  0  0  0  0  0  0  0
    7.8465   -0.0014    0.0000 C   0  0  0  0  0  0  0  0  0  0  0  0
  1  2  1  0  0  0  0
  2  3  1  0  0  0  0
  3  4  1  0  0  0  0
  4  5  1  0  0  0  0
  5  6  1  0  0  0  0
  6  7  1  0  0  0  0
  7  8  1  0  0  0  0
  8  9  1  0  0  0  0
  9 10  1  0  0  0  0
 10 11  1  0  0  0  0
 11 12  1  0  0  0  0
M  END
> <ChemID>
100166

> <CAS>
112-40-3

> <Original_SMILES>
CCCCCCCCCCCC

> <preferred_name>
Dodecane

> <dsstox_substance_id>
DTXSID0026913

> <dsstox_compound_id>
DTXCID906913

> <qc_level>
DSSTox_Low

> <Canonical_QSARr>
CCCCCCCCCCCC

> <InChI_Code_QSARr>
InChI=1S/C12H26/c1-3-5-7-9-11-12-10-8-6-4-2/h3-12H2,1-2H3

> <InChI Key_QSARr>
SNRUBQQJIBEYMU-UHFFFAOYSA-N

> <Salt_Solvent>


> <Salt_Solvent_ID>
0

> <MPID>
101800

> <LogKmHL>
0.26

> <Tr_1_Tst_0>
1

$$$$
100167
  Mrv171c012251910542D          

 12 11  0  0  0  0            999 V2000
   -0.0127   -0.4139    0.0000 C   0  0  0  0  0  0  0  0  0  0  0  0
    0.7018   -0.0014    0.0000 C   0  0  0  0  0  0  0  0  0  0  0  0
    1.4163   -0.4139    0.0000 C   0  0  0  0  0  0  0  0  0  0  0  0
    2.1307   -0.0014    0.0000 C   0  0  0  0  0  0  0  0  0  0  0  0
    2.8452   -0.4139    0.0000 C   0  0  0  0  0  0  0  0  0  0  0  0
    3.5597   -0.0014    0.0000 C   0  0  0  0  0  0  0  0  0  0  0  0
    4.2741   -0.4139    0.0000 C   0  0  0  0  0  0  0  0  0  0  0  0
    4.9886   -0.0014    0.0000 C   0  0  0  0  0  0  0  0  0  0  0  0
    5.7031   -0.4139    0.0000 C   0  0  0  0  0  0  0  0  0  0  0  0
    6.4176   -0.0014    0.0000 C   0  0  0  0  0  0  0  0  0  0  0  0
    7.1320   -0.4139    0.0000 C   0  0  0  0  0  0  0  0  0  0  0  0
    7.8465   -0.0014    0.0000 C   0  0  0  0  0  0  0  0  0  0  0  0
  1  2  2  0  0  0  0
  2  3  1  0  0  0  0
  3  4  1  0  0  0  0
  4  5  1  0  0  0  0
  5  6  1  0  0  0  0
  6  7  1  0  0  0  0
  7  8  1  0  0  0  0
  8  9  1  0  0  0  0
  9 10  1  0  0  0  0
 10 11  1  0  0  0  0
 11 12  1  0  0  0  0
M  END
> <ChemID>
100167

> <CAS>
112-41-4

> <Original_SMILES>
CCCCCCCCCCC=C

> <preferred_name>
1-Dodecene

> <dsstox_substance_id>
DTXSID5026914

> <dsstox_compound_id>
DTXCID306914

> <qc_level>
DSSTox_Low

> <Canonical_QSARr>
CCCCCCCCCCC=C

> <InChI_Code_QSARr>
InChI=1S/C12H24/c1-3-5-7-9-11-12-10-8-6-4-2/h3H,1,4-12H2,2H3

> <InChI Key_QSARr>
CRSBERNSMYQZNG-UHFFFAOYSA-N

> <Salt_Solvent>


> <Salt_Solvent_ID>
0

> <MPID>
101801

> <LogKmHL>
0.83

> <Tr_1_Tst_0>
1

$$$$
100168
  Mrv171c012251910542D          

 20 21  0  0  0  0            999 V2000
    0.5375   -2.8409    0.0000 O   0  0  0  0  0  0  0  0  0  0  0  0
    1.3625   -2.8409    0.0000 C   0  0  0  0  0  0  0  0  0  0  0  0
    2.1875   -2.8409    0.0000 C   0  0  0  0  0  0  0  0  0  0  0  0
    3.0125   -2.8409    0.0000 Cl  0  0  0  0  0  0  0  0  0  0  0  0
    2.1875   -3.6659    0.0000 Cl  0  0  0  0  0  0  0  0  0  0  0  0
    2.1875   -2.0159    0.0000 Cl  0  0  0  0  0  0  0  0  0  0  0  0
    1.3625   -2.0159    0.0000 C   0  0  0  0  0  0  0  0  0  0  0  0
    2.0770   -1.6034    0.0000 C   0  0  0  0  0  0  0  0  0  0  0  0
    2.0770   -0.7784    0.0000 C   0  0  0  0  0  0  0  0  0  0  0  0
    1.3625   -0.3659    0.0000 C   0  0  0  0  0  0  0  0  0  0  0  0
    1.3625    0.4591    0.0000 Cl  0  0  0  0  0  0  0  0  0  0  0  0
    0.6481   -0.7784    0.0000 C   0  0  0  0  0  0  0  0  0  0  0  0
    0.6481   -1.6034    0.0000 C   0  0  0  0  0  0  0  0  0  0  0  0
    1.3625   -3.6659    0.0000 C   0  0  0  0  0  0  0  0  0  0  0  0
    0.6481   -4.0784    0.0000 C   0  0  0  0  0  0  0  0  0  0  0  0
    0.6481   -4.9034    0.0000 C   0  0  0  0  0  0  0  0  0  0  0  0
    1.3625   -5.3159    0.0000 C   0  0  0  0  0  0  0  0  0  0  0  0
    1.3625   -6.1409    0.0000 Cl  0  0  0  0  0  0  0  0  0  0  0  0
    2.0770   -4.9034    0.0000 C   0  0  0  0  0  0  0  0  0  0  0  0
    2.0770   -4.0784    0.0000 C   0  0  0  0  0  0  0  0  0  0  0  0
  1  2  1  0  0  0  0
  2  3  1  0  0  0  0
  3  4  1  0  0  0  0
  3  5  1  0  0  0  0
  3  6  1  0  0  0  0
  2  7  1  0  0  0  0
  8  7  1  0  0  0  0
  9  8  2  0  0  0  0
 10  9  1  0  0  0  0
 10 11  1  0  0  0  0
 12 10  2  0  0  0  0
 13 12  1  0  0  0  0
  7 13  2  0  0  0  0
  2 14  1  0  0  0  0
 15 14  1  0  0  0  0
 16 15  2  0  0  0  0
 17 16  1  0  0  0  0
 17 18  1  0  0  0  0
 19 17  2  0  0  0  0
 20 19  1  0  0  0  0
 14 20  2  0  0  0  0
M  END
> <ChemID>
100168

> <CAS>
115-32-2

> <Original_SMILES>
OC(c1ccc(Cl)cc1)(c1ccc(Cl)cc1)C(Cl)(Cl)Cl

> <preferred_name>
Dicofol

> <dsstox_substance_id>
DTXSID4020450

> <dsstox_compound_id>
DTXCID40450

> <qc_level>
DSSTox_Low

> <Canonical_QSARr>
OC(C1C=CC(Cl)=CC=1)(C1C=CC(Cl)=CC=1)C(Cl)(Cl)Cl

> <InChI_Code_QSARr>
InChI=1S/C14H9Cl5O/c15-11-5-1-9(2-6-11)13(20,14(17,18)19)10-3-7-12(16)8-4-10/h1-8,20H

> <InChI Key_QSARr>
UOAMTSKGCBMZTC-UHFFFAOYSA-N

> <Salt_Solvent>


> <Salt_Solvent_ID>
0

> <MPID>
101802

> <LogKmHL>
1.99

> <Tr_1_Tst_0>
0

$$$$
100169
  Mrv171c012251910542D          

 23 25  0  0  0  0            999 V2000
    4.6081   -3.9088    0.0000 C   0  0  0  0  0  0  0  0  0  0  0  0
    3.8936   -3.4963    0.0000 C   0  0  0  0  0  0  0  0  0  0  0  0
    3.8936   -2.6713    0.0000 O   0  0  0  0  0  0  0  0  0  0  0  0
    3.1792   -2.2588    0.0000 P   0  0  0  0  0  0  0  0  0  0  0  0
    2.4647   -1.8463    0.0000 O   0  0  0  0  0  0  0  0  0  0  0  0
    1.7502   -2.2588    0.0000 C   0  0  0  0  0  0  0  0  0  0  0  0
    1.0357   -1.8463    0.0000 C   0  0  0  0  0  0  0  0  0  0  0  0
    0.3213   -2.2588    0.0000 C   0  0  0  0  0  0  0  0  0  0  0  0
    0.3213   -3.0838    0.0000 C   0  0  0  0  0  0  0  0  0  0  0  0
    1.0357   -3.4963    0.0000 C   0  0  0  0  0  0  0  0  0  0  0  0
    1.7502   -3.0838    0.0000 C   0  0  0  0  0  0  0  0  0  0  0  0
    3.5917   -1.5443    0.0000 O   0  0  0  0  0  0  0  0  0  0  0  0
    3.1792   -0.8299    0.0000 C   0  0  0  0  0  0  0  0  0  0  0  0
    3.5917   -0.1154    0.0000 C   0  0  0  0  0  0  0  0  0  0  0  0
    3.1792    0.5991    0.0000 C   0  0  0  0  0  0  0  0  0  0  0  0
    2.3542    0.5991    0.0000 C   0  0  0  0  0  0  0  0  0  0  0  0
    1.9417   -0.1154    0.0000 C   0  0  0  0  0  0  0  0  0  0  0  0
    2.3542   -0.8299    0.0000 C   0  0  0  0  0  0  0  0  0  0  0  0
    2.7667   -2.9733    0.0000 O   0  0  0  0  0  0  0  0  0  0  0  0
    3.1792   -3.9088    0.0000 C   0  0  0  0  0  0  0  0  0  0  0  0
    3.1792   -4.7338    0.0000 C   0  0  0  0  0  0  0  0  0  0  0  0
    3.8936   -5.1463    0.0000 C   0  0  0  0  0  0  0  0  0  0  0  0
    4.6081   -4.7338    0.0000 C   0  0  0  0  0  0  0  0  0  0  0  0
  2  1  1  0  0  0  0
  2  3  1  0  0  0  0
  3  4  1  0  0  0  0
  4  5  1  0  0  0  0
  5  6  1  0  0  0  0
  7  6  1  0  0  0  0
  8  7  2  0  0  0  0
  9  8  1  0  0  0  0
 10  9  2  0  0  0  0
 11 10  1  0  0  0  0
  6 11  2  0  0  0  0
  4 12  1  0  0  0  0
 12 13  1  0  0  0  0
 14 13  1  0  0  0  0
 15 14  2  0  0  0  0
 16 15  1  0  0  0  0
 17 16  2  0  0  0  0
 18 17  1  0  0  0  0
 13 18  2  0  0  0  0
  4 19  2  0  0  0  0
 20  2  2  0  0  0  0
 21 20  1  0  0  0  0
 22 21  2  0  0  0  0
 23 22  1  0  0  0  0
  1 23  2  0  0  0  0
M  END
> <ChemID>
100169

> <CAS>
115-86-6

> <Original_SMILES>
O=P(Oc1ccccc1)(Oc1ccccc1)Oc1ccccc1

> <preferred_name>
Triphenyl phosphate

> <dsstox_substance_id>
DTXSID1021952

> <dsstox_compound_id>
DTXCID201952

> <qc_level>
DSSTox_High

> <Canonical_QSARr>
O=P(OC1C=CC=CC=1)(OC1C=CC=CC=1)OC1C=CC=CC=1

> <InChI_Code_QSARr>
InChI=1S/C18H15O4P/c19-23(20-16-10-4-1-5-11-16,21-17-12-6-2-7-13-17)22-18-14-8-3-9-15-18/h1-15H

> <InChI Key_QSARr>
XZZNDPSIHUTMOC-UHFFFAOYSA-N

> <Salt_Solvent>


> <Salt_Solvent_ID>
0

> <MPID>
101803

> <LogKmHL>
-0.76

> <Tr_1_Tst_0>
1

$$$$
100170
  Mrv171c012251910542D          

 14 13  0  0  0  0            999 V2000
    2.3737   -2.0958    0.0000 O   0  0  0  0  0  0  0  0  0  0  0  0
    3.1987   -2.0958    0.0000 P   0  0  0  0  0  0  0  0  0  0  0  0
    3.1987   -2.9208    0.0000 O   0  0  0  0  0  0  0  0  0  0  0  0
    2.4842   -3.3333    0.0000 C   0  0  0  0  0  0  0  0  0  0  0  0
    1.7697   -2.9208    0.0000 C   0  0  0  0  0  0  0  0  0  0  0  0
    1.0553   -3.3333    0.0000 Cl  0  0  0  0  0  0  0  0  0  0  0  0
    3.1987   -1.2708    0.0000 O   0  0  0  0  0  0  0  0  0  0  0  0
    2.4842   -0.8583    0.0000 C   0  0  0  0  0  0  0  0  0  0  0  0
    2.4842   -0.0333    0.0000 C   0  0  0  0  0  0  0  0  0  0  0  0
    1.7697    0.3792    0.0000 Cl  0  0  0  0  0  0  0  0  0  0  0  0
    4.0237   -2.0958    0.0000 O   0  0  0  0  0  0  0  0  0  0  0  0
    4.4362   -2.8102    0.0000 C   0  0  0  0  0  0  0  0  0  0  0  0
    4.0237   -3.5247    0.0000 C   0  0  0  0  0  0  0  0  0  0  0  0
    3.1987   -3.5247    0.0000 Cl  0  0  0  0  0  0  0  0  0  0  0  0
  1  2  2  0  0  0  0
  2  3  1  0  0  0  0
  3  4  1  0  0  0  0
  4  5  1  0  0  0  0
  5  6  1  0  0  0  0
  2  7  1  0  0  0  0
  7  8  1  0  0  0  0
  8  9  1  0  0  0  0
  9 10  1  0  0  0  0
  2 11  1  0  0  0  0
 11 12  1  0  0  0  0
 12 13  1  0  0  0  0
 13 14  1  0  0  0  0
M  END
> <ChemID>
100170

> <CAS>
115-96-8

> <Original_SMILES>
O=P(OCCCl)(OCCCl)OCCCl

> <preferred_name>
Tris(2-chloroethyl) phosphate

> <dsstox_substance_id>
DTXSID5021411

> <dsstox_compound_id>
DTXCID601411

> <qc_level>
DSSTox_High

> <Canonical_QSARr>
O=P(OCCCl)(OCCCl)OCCCl

> <InChI_Code_QSARr>
InChI=1S/C6H12Cl3O4P/c7-1-4-11-14(10,12-5-2-8)13-6-3-9/h1-6H2

> <InChI Key_QSARr>
HQUQLFOMPYWACS-UHFFFAOYSA-N

> <Salt_Solvent>


> <Salt_Solvent_ID>
0

> <MPID>
101804

> <LogKmHL>
-0.66

> <Tr_1_Tst_0>
1

$$$$
100171
  Mrv171c012251910542D          

 13 13  0  0  0  0            999 V2000
    2.6622   -0.8268    0.0000 N   0  3  0  0  0  0  0  0  0  0  0  0
    1.9478   -1.2393    0.0000 C   0  0  0  0  0  0  0  0  0  0  0  0
    1.2333   -0.8268    0.0000 C   0  0  0  0  0  0  0  0  0  0  0  0
    1.2333   -0.0018    0.0000 Cl  0  0  0  0  0  0  0  0  0  0  0  0
    0.5188   -1.2393    0.0000 C   0  0  0  0  0  0  0  0  0  0  0  0
   -0.1956   -0.8268    0.0000 Cl  0  0  0  0  0  0  0  0  0  0  0  0
    0.5188   -2.0643    0.0000 C   0  0  0  0  0  0  0  0  0  0  0  0
    1.2333   -2.4768    0.0000 C   0  0  0  0  0  0  0  0  0  0  0  0
    1.2333   -3.3018    0.0000 Cl  0  0  0  0  0  0  0  0  0  0  0  0
    1.9478   -2.0643    0.0000 C   0  0  0  0  0  0  0  0  0  0  0  0
    2.6622   -2.4768    0.0000 Cl  0  0  0  0  0  0  0  0  0  0  0  0
    3.3767   -1.2393    0.0000 O   0  5  0  0  0  0  0  0  0  0  0  0
    2.6622   -0.0018    0.0000 O   0  0  0  0  0  0  0  0  0  0  0  0
  1  2  1  0  0  0  0
  3  2  1  0  0  0  0
  3  4  1  0  0  0  0
  5  3  2  0  0  0  0
  5  6  1  0  0  0  0
  7  5  1  0  0  0  0
  8  7  2  0  0  0  0
  8  9  1  0  0  0  0
 10  8  1  0  0  0  0
  2 10  2  0  0  0  0
 10 11  1  0  0  0  0
  1 12  1  0  0  0  0
  1 13  2  0  0  0  0
M  CHG  2   1   1  12  -1
M  END
> <ChemID>
100171

> <CAS>
117-18-0

> <Original_SMILES>
[O-][N+](=O)c1c(Cl)c(Cl)cc(Cl)c1Cl

> <preferred_name>
2,3,5,6-Tetrachloronitrobenzene

> <dsstox_substance_id>
DTXSID0026098

> <dsstox_compound_id>
DTXCID506098

> <qc_level>
DSSTox_Low

> <Canonical_QSARr>
[O-][N+](=O)C1=C(Cl)C(Cl)=CC(Cl)=C1Cl

> <InChI_Code_QSARr>
InChI=1S/C6HCl4NO2/c7-2-1-3(8)5(10)6(4(2)9)11(12)13/h1H

> <InChI Key_QSARr>
XQTLDIFVVHJORV-UHFFFAOYSA-N

> <Salt_Solvent>


> <Salt_Solvent_ID>
0

> <MPID>
101805

> <LogKmHL>
0.49

> <Tr_1_Tst_0>
1

$$$$
100172
  Mrv171c012251910542D          

 17 19  0  0  0  0            999 V2000
    2.8811    0.1348    0.0000 O   0  0  0  0  0  0  0  0  0  0  0  0
    2.8811   -0.6902    0.0000 C   0  0  0  0  0  0  0  0  0  0  0  0
    3.5956   -1.1027    0.0000 C   0  0  0  0  0  0  0  0  0  0  0  0
    4.3101   -0.6902    0.0000 C   0  0  0  0  0  0  0  0  0  0  0  0
    5.0245   -1.1027    0.0000 C   0  0  0  0  0  0  0  0  0  0  0  0
    5.0245   -1.9277    0.0000 C   0  0  0  0  0  0  0  0  0  0  0  0
    4.3101   -2.3402    0.0000 C   0  0  0  0  0  0  0  0  0  0  0  0
    3.5956   -1.9277    0.0000 C   0  0  0  0  0  0  0  0  0  0  0  0
    2.8811   -2.3402    0.0000 C   0  0  0  0  0  0  0  0  0  0  0  0
    2.8811   -3.1652    0.0000 O   0  0  0  0  0  0  0  0  0  0  0  0
    2.1666   -1.9277    0.0000 C   0  0  0  0  0  0  0  0  0  0  0  0
    1.4522   -2.3402    0.0000 C   0  0  0  0  0  0  0  0  0  0  0  0
    0.7377   -1.9277    0.0000 C   0  0  0  0  0  0  0  0  0  0  0  0
    0.7377   -1.1027    0.0000 C   0  0  0  0  0  0  0  0  0  0  0  0
    0.0232   -0.6902    0.0000 N   0  0  0  0  0  0  0  0  0  0  0  0
    1.4522   -0.6902    0.0000 C   0  0  0  0  0  0  0  0  0  0  0  0
    2.1666   -1.1027    0.0000 C   0  0  0  0  0  0  0  0  0  0  0  0
  1  2  2  0  0  0  0
  3  2  1  0  0  0  0
  3  4  1  0  0  0  0
  4  5  2  0  0  0  0
  5  6  1  0  0  0  0
  6  7  2  0  0  0  0
  7  8  1  0  0  0  0
  8  3  2  0  0  0  0
  9  8  1  0  0  0  0
  9 10  2  0  0  0  0
 11  9  1  0  0  0  0
 11 12  2  0  0  0  0
 12 13  1  0  0  0  0
 13 14  2  0  0  0  0
 14 15  1  0  0  0  0
 14 16  1  0  0  0  0
 16 17  2  0  0  0  0
  2 17  1  0  0  0  0
 17 11  1  0  0  0  0
M  END
> <ChemID>
100172

> <CAS>
117-79-3

> <Original_SMILES>
Nc1cc2c(cc1)C(=O)c1ccccc1C2=O

> <preferred_name>
2-Aminoanthraquinone

> <dsstox_substance_id>
DTXSID6020068

> <dsstox_compound_id>
DTXCID2068

> <qc_level>
DSSTox_Low

> <Canonical_QSARr>
NC1C=C2C(=CC=1)C(=O)C1C=CC=CC=1C2=O

> <InChI_Code_QSARr>
InChI=1S/C14H9NO2/c15-8-5-6-11-12(7-8)14(17)10-4-2-1-3-9(10)13(11)16/h1-7H,15H2

> <InChI Key_QSARr>
XOGPDSATLSAZEK-UHFFFAOYSA-N

> <Salt_Solvent>


> <Salt_Solvent_ID>
0

> <MPID>
101806

> <LogKmHL>
-1.06

> <Tr_1_Tst_0>
0

$$$$
100173
  Mrv171c012251910542D          

 28 28  0  0  0  0            999 V2000
    4.1649   -1.8641    0.0000 O   0  0  0  0  0  0  0  0  0  0  0  0
    4.1649   -2.6891    0.0000 C   0  0  0  0  0  0  0  0  0  0  0  0
    3.4505   -3.1016    0.0000 O   0  0  0  0  0  0  0  0  0  0  0  0
    2.7360   -2.6891    0.0000 C   0  0  0  0  0  0  0  0  0  0  0  0
    2.0215   -3.1016    0.0000 C   0  0  0  0  0  0  0  0  0  0  0  0
    2.0215   -3.9266    0.0000 C   0  0  0  0  0  0  0  0  0  0  0  0
    1.3070   -4.3391    0.0000 C   0  0  0  0  0  0  0  0  0  0  0  0
    1.3070   -2.6891    0.0000 C   0  0  0  0  0  0  0  0  0  0  0  0
    0.5926   -3.1016    0.0000 C   0  0  0  0  0  0  0  0  0  0  0  0
   -0.1219   -2.6891    0.0000 C   0  0  0  0  0  0  0  0  0  0  0  0
   -0.8364   -3.1016    0.0000 C   0  0  0  0  0  0  0  0  0  0  0  0
    4.8794   -3.1016    0.0000 C   0  0  0  0  0  0  0  0  0  0  0  0
    4.8794   -3.9266    0.0000 C   0  0  0  0  0  0  0  0  0  0  0  0
    5.5939   -4.3391    0.0000 C   0  0  0  0  0  0  0  0  0  0  0  0
    6.3083   -3.9266    0.0000 C   0  0  0  0  0  0  0  0  0  0  0  0
    6.3083   -3.1016    0.0000 C   0  0  0  0  0  0  0  0  0  0  0  0
    5.5939   -2.6891    0.0000 C   0  0  0  0  0  0  0  0  0  0  0  0
    5.5939   -1.8641    0.0000 C   0  0  0  0  0  0  0  0  0  0  0  0
    6.3083   -1.4516    0.0000 O   0  0  0  0  0  0  0  0  0  0  0  0
    7.0228   -1.8641    0.0000 C   0  0  0  0  0  0  0  0  0  0  0  0
    7.7373   -1.4516    0.0000 C   0  0  0  0  0  0  0  0  0  0  0  0
    7.7373   -0.6266    0.0000 C   0  0  0  0  0  0  0  0  0  0  0  0
    8.4518   -0.2141    0.0000 C   0  0  0  0  0  0  0  0  0  0  0  0
    8.4518   -1.8641    0.0000 C   0  0  0  0  0  0  0  0  0  0  0  0
    9.1662   -1.4516    0.0000 C   0  0  0  0  0  0  0  0  0  0  0  0
    9.8807   -1.8641    0.0000 C   0  0  0  0  0  0  0  0  0  0  0  0
   10.5952   -1.4516    0.0000 C   0  0  0  0  0  0  0  0  0  0  0  0
    4.8794   -1.4516    0.0000 O   0  0  0  0  0  0  0  0  0  0  0  0
  1  2  2  0  0  0  0
  2  3  1  0  0  0  0
  3  4  1  0  0  0  0
  4  5  1  0  0  0  0
  5  6  1  0  0  0  0
  6  7  1  0  0  0  0
  5  8  1  0  0  0  0
  8  9  1  0  0  0  0
  9 10  1  0  0  0  0
 10 11  1  0  0  0  0
  2 12  1  0  0  0  0
 13 12  1  0  0  0  0
 14 13  2  0  0  0  0
 15 14  1  0  0  0  0
 16 15  2  0  0  0  0
 17 16  1  0  0  0  0
 12 17  2  0  0  0  0
 17 18  1  0  0  0  0
 18 19  1  0  0  0  0
 19 20  1  0  0  0  0
 20 21  1  0  0  0  0
 21 22  1  0  0  0  0
 22 23  1  0  0  0  0
 21 24  1  0  0  0  0
 24 25  1  0  0  0  0
 25 26  1  0  0  0  0
 26 27  1  0  0  0  0
 18 28  2  0  0  0  0
M  END
> <ChemID>
100173

> <CAS>
117-81-7

> <Original_SMILES>
CCCCC(COC(=O)c1ccccc1C(=O)OCC(CCCC)CC)CC

> <preferred_name>
Di(2-ethylhexyl) phthalate

> <dsstox_substance_id>
DTXSID5020607

> <dsstox_compound_id>
DTXCID70607

> <qc_level>
DSSTox_Low

> <Canonical_QSARr>
CCCCC(COC(=O)C1C=CC=CC=1C(=O)OCC(CCCC)CC)CC

> <InChI_Code_QSARr>
InChI=1S/C24H38O4/c1-5-9-13-19(7-3)17-27-23(25)21-15-11-12-16-22(21)24(26)28-18-20(8-4)14-10-6-2/h11-12,15-16,19-20H,5-10,13-14,17-18H2,1-4H3

> <InChI Key_QSARr>
BJQHLKABXJIVAM-UHFFFAOYSA-N

> <Salt_Solvent>


> <Salt_Solvent_ID>
0

> <MPID>
101807

> <LogKmHL>
0.44

> <Tr_1_Tst_0>
1

$$$$
100174
  Mrv171c012251910542D          

 13 14  0  0  0  0            999 V2000
   -0.0000   -2.4750    0.0000 N   0  0  0  0  0  0  0  0  0  0  0  0
   -0.7145   -2.8875    0.0000 C   0  0  0  0  0  0  0  0  0  0  0  0
   -0.7145   -3.7125    0.0000 C   0  0  0  0  0  0  0  0  0  0  0  0
   -0.0000   -1.6500    0.0000 C   0  0  0  0  0  0  0  0  0  0  0  0
   -0.7145   -1.2375    0.0000 C   0  0  0  0  0  0  0  0  0  0  0  0
   -0.7145   -0.4125    0.0000 C   0  0  0  0  0  0  0  0  0  0  0  0
   -0.0000    0.0000    0.0000 C   0  0  0  0  0  0  0  0  0  0  0  0
    0.7145   -0.4125    0.0000 C   0  0  0  0  0  0  0  0  0  0  0  0
    1.4289    0.0000    0.0000 C   0  0  0  0  0  0  0  0  0  0  0  0
    2.1434   -0.4125    0.0000 C   0  0  0  0  0  0  0  0  0  0  0  0
    2.1434   -1.2375    0.0000 C   0  0  0  0  0  0  0  0  0  0  0  0
    1.4289   -1.6500    0.0000 C   0  0  0  0  0  0  0  0  0  0  0  0
    0.7145   -1.2375    0.0000 C   0  0  0  0  0  0  0  0  0  0  0  0
  1  2  1  0  0  0  0
  2  3  1  0  0  0  0
  1  4  1  0  0  0  0
  5  4  2  0  0  0  0
  6  5  1  0  0  0  0
  7  6  2  0  0  0  0
  8  7  1  0  0  0  0
  8  9  2  0  0  0  0
  9 10  1  0  0  0  0
 10 11  2  0  0  0  0
 11 12  1  0  0  0  0
 12 13  2  0  0  0  0
  4 13  1  0  0  0  0
 13  8  1  0  0  0  0
M  END
> <ChemID>
100174

> <CAS>
118-44-5

> <Original_SMILES>
CCNc1cccc2ccccc21

> <preferred_name>
1-Naphthalenamine, N-ethyl-

> <dsstox_substance_id>
DTXSID8059473

> <dsstox_compound_id>
DTXCID8033433

> <qc_level>
Public_High

> <Canonical_QSARr>
CCNC1=CC=CC2=CC=CC=C21

> <InChI_Code_QSARr>
InChI=1S/C12H13N/c1-2-13-12-9-5-7-10-6-3-4-8-11(10)12/h3-9,13H,2H2,1H3

> <InChI Key_QSARr>
KDFFXYVOTKKBDI-UHFFFAOYSA-N

> <Salt_Solvent>


> <Salt_Solvent_ID>
0

> <MPID>
101808

> <LogKmHL>
0.43

> <Tr_1_Tst_0>
1

$$$$
100175
  Mrv171c012251910542D          

 12 12  0  0  0  0            999 V2000
    3.0761   -0.6015    0.0000 Cl  0  0  0  0  0  0  0  0  0  0  0  0
    2.3616   -1.0140    0.0000 C   0  0  0  0  0  0  0  0  0  0  0  0
    1.6472   -0.6015    0.0000 C   0  0  0  0  0  0  0  0  0  0  0  0
    1.6472    0.2235    0.0000 Cl  0  0  0  0  0  0  0  0  0  0  0  0
    0.9327   -1.0140    0.0000 C   0  0  0  0  0  0  0  0  0  0  0  0
    0.2182   -0.6015    0.0000 Cl  0  0  0  0  0  0  0  0  0  0  0  0
    0.9327   -1.8390    0.0000 C   0  0  0  0  0  0  0  0  0  0  0  0
    0.2182   -2.2515    0.0000 Cl  0  0  0  0  0  0  0  0  0  0  0  0
    1.6472   -2.2515    0.0000 C   0  0  0  0  0  0  0  0  0  0  0  0
    1.6472   -3.0765    0.0000 Cl  0  0  0  0  0  0  0  0  0  0  0  0
    2.3616   -1.8390    0.0000 C   0  0  0  0  0  0  0  0  0  0  0  0
    3.0761   -2.2515    0.0000 Cl  0  0  0  0  0  0  0  0  0  0  0  0
  1  2  1  0  0  0  0
  3  2  1  0  0  0  0
  3  4  1  0  0  0  0
  5  3  2  0  0  0  0
  5  6  1  0  0  0  0
  7  5  1  0  0  0  0
  7  8  1  0  0  0  0
  9  7  2  0  0  0  0
  9 10  1  0  0  0  0
 11  9  1  0  0  0  0
  2 11  2  0  0  0  0
 11 12  1  0  0  0  0
M  END
> <ChemID>
100175

> <CAS>
118-74-1

> <Original_SMILES>
Clc1c(Cl)c(Cl)c(Cl)c(Cl)c1Cl

> <preferred_name>
Hexachlorobenzene

> <dsstox_substance_id>
DTXSID2020682

> <dsstox_compound_id>
DTXCID80682

> <qc_level>
DSSTox_Low

> <Canonical_QSARr>
ClC1C(Cl)=C(Cl)C(Cl)=C(Cl)C=1Cl

> <InChI_Code_QSARr>
InChI=1S/C6Cl6/c7-1-2(8)4(10)6(12)5(11)3(1)9

> <InChI Key_QSARr>
CKAPSXZOOQJIBF-UHFFFAOYSA-N

> <Salt_Solvent>


> <Salt_Solvent_ID>
0

> <MPID>
101809

> <LogKmHL>
2.44

> <Tr_1_Tst_0>
1

$$$$
100176
  Mrv171c012251910542D          

 14 14  0  0  0  0            999 V2000
    3.9975   -2.3571    0.0000 Cl  0  0  0  0  0  0  0  0  0  0  0  0
    3.9975   -1.5321    0.0000 C   0  0  0  0  0  0  0  0  0  0  0  0
    4.7120   -1.1196    0.0000 C   0  0  0  0  0  0  0  0  0  0  0  0
    4.7120   -0.2946    0.0000 C   0  0  0  0  0  0  0  0  0  0  0  0
    3.9975    0.1179    0.0000 C   0  0  0  0  0  0  0  0  0  0  0  0
    3.9975    0.9429    0.0000 N   0  3  0  0  0  0  0  0  0  0  0  0
    3.2830    1.3554    0.0000 O   0  0  0  0  0  0  0  0  0  0  0  0
    4.7120    1.3554    0.0000 O   0  5  0  0  0  0  0  0  0  0  0  0
    3.2830   -0.2946    0.0000 C   0  0  0  0  0  0  0  0  0  0  0  0
    2.5686    0.1179    0.0000 C   0  0  0  0  0  0  0  0  0  0  0  0
    1.8541    0.5304    0.0000 F   0  0  0  0  0  0  0  0  0  0  0  0
    2.1561   -0.5966    0.0000 F   0  0  0  0  0  0  0  0  0  0  0  0
    2.9811    0.8323    0.0000 F   0  0  0  0  0  0  0  0  0  0  0  0
    3.2830   -1.1196    0.0000 C   0  0  0  0  0  0  0  0  0  0  0  0
  1  2  1  0  0  0  0
  3  2  1  0  0  0  0
  4  3  2  0  0  0  0
  5  4  1  0  0  0  0
  5  6  1  0  0  0  0
  6  7  2  0  0  0  0
  6  8  1  0  0  0  0
  9  5  2  0  0  0  0
  9 10  1  0  0  0  0
 10 11  1  0  0  0  0
 10 12  1  0  0  0  0
 10 13  1  0  0  0  0
 14  9  1  0  0  0  0
  2 14  2  0  0  0  0
M  CHG  2   6   1   8  -1
M  END
> <ChemID>
100176

> <CAS>
118-83-2

> <Original_SMILES>
[O-][N+](=O)c1ccc(Cl)cc1C(F)(F)F

> <preferred_name>
5-Chloro-alpha,alpha,alpha-trifluoro-2-nitrotoluene

> <dsstox_substance_id>
DTXSID30151998

> <dsstox_compound_id>
DTXCID4074489

> <qc_level>
Public_Medium

> <Canonical_QSARr>
[O-][N+](=O)C1C=CC(Cl)=CC=1C(F)(F)F

> <InChI_Code_QSARr>
InChI=1S/C7H3ClF3NO2/c8-4-1-2-6(12(13)14)5(3-4)7(9,10)11/h1-3H

> <InChI Key_QSARr>
CFPIGEXZPWTNOR-UHFFFAOYSA-N

> <Salt_Solvent>


> <Salt_Solvent_ID>
0

> <MPID>
101810

> <LogKmHL>
-0.36

> <Tr_1_Tst_0>
0

$$$$
100177
  Mrv171c012251910542D          

 22 23  0  0  0  0            999 V2000
    4.1333   -3.6966    0.0000 P   0  0  0  0  0  0  0  0  0  0  0  0
    4.8478   -4.1091    0.0000 O   0  0  0  0  0  0  0  0  0  0  0  0
    4.8478   -4.9341    0.0000 C   0  0  0  0  0  0  0  0  0  0  0  0
    5.5622   -5.3466    0.0000 C   0  0  0  0  0  0  0  0  0  0  0  0
    4.5458   -2.9822    0.0000 O   0  0  0  0  0  0  0  0  0  0  0  0
    5.3708   -2.9822    0.0000 C   0  0  0  0  0  0  0  0  0  0  0  0
    5.7833   -3.6966    0.0000 C   0  0  0  0  0  0  0  0  0  0  0  0
    3.4188   -3.2841    0.0000 O   0  0  0  0  0  0  0  0  0  0  0  0
    3.4188   -2.4591    0.0000 C   0  0  0  0  0  0  0  0  0  0  0  0
    4.1333   -2.0466    0.0000 C   0  0  0  0  0  0  0  0  0  0  0  0
    4.1333   -1.2216    0.0000 C   0  0  0  0  0  0  0  0  0  0  0  0
    3.4188   -0.8091    0.0000 C   0  0  0  0  0  0  0  0  0  0  0  0
    3.4188    0.0159    0.0000 O   0  0  0  0  0  0  0  0  0  0  0  0
    2.7043   -1.2216    0.0000 N   0  0  0  0  0  0  0  0  0  0  0  0
    1.9899   -0.8091    0.0000 C   0  0  0  0  0  0  0  0  0  0  0  0
    1.9899    0.0159    0.0000 C   0  0  0  0  0  0  0  0  0  0  0  0
    1.2754    0.4284    0.0000 C   0  0  0  0  0  0  0  0  0  0  0  0
    0.5609    0.0159    0.0000 C   0  0  0  0  0  0  0  0  0  0  0  0
    0.5609   -0.8091    0.0000 C   0  0  0  0  0  0  0  0  0  0  0  0
    1.2754   -1.2216    0.0000 C   0  0  0  0  0  0  0  0  0  0  0  0
    2.7043   -2.0466    0.0000 N   0  0  0  0  0  0  0  0  0  0  0  0
    3.7208   -4.4111    0.0000 S   0  0  0  0  0  0  0  0  0  0  0  0
  1  2  1  0  0  0  0
  2  3  1  0  0  0  0
  3  4  1  0  0  0  0
  1  5  1  0  0  0  0
  5  6  1  0  0  0  0
  6  7  1  0  0  0  0
  1  8  1  0  0  0  0
  8  9  1  0  0  0  0
 10  9  1  0  0  0  0
 11 10  2  0  0  0  0
 12 11  1  0  0  0  0
 12 13  2  0  0  0  0
 14 12  1  0  0  0  0
 14 15  1  0  0  0  0
 16 15  1  0  0  0  0
 17 16  2  0  0  0  0
 18 17  1  0  0  0  0
 19 18  2  0  0  0  0
 20 19  1  0  0  0  0
 15 20  2  0  0  0  0
 21 14  1  0  0  0  0
  9 21  2  0  0  0  0
  1 22  2  0  0  0  0
M  END
> <ChemID>
100177

> <CAS>
119-12-0

> <Original_SMILES>
CCOP(=S)(OC1C=CC(=O)N(N=1)c1ccccc1)OCC

> <preferred_name>
Pyridaphenthion

> <dsstox_substance_id>
DTXSID2042355

> <dsstox_compound_id>
DTXCID0022355

> <qc_level>
DSSTox_High

> <Canonical_QSARr>
CCOP(=S)(OC1C=CC(=O)N(N=1)C1C=CC=CC=1)OCC

> <InChI_Code_QSARr>
InChI=1S/C14H17N2O4PS/c1-3-18-21(22,19-4-2)20-13-10-11-14(17)16(15-13)12-8-6-5-7-9-12/h5-11H,3-4H2,1-2H3

> <InChI Key_QSARr>
CXJSOEPQXUCJSA-UHFFFAOYSA-N

> <Salt_Solvent>


> <Salt_Solvent_ID>
0

> <MPID>
101811

> <LogKmHL>
-0.7

> <Tr_1_Tst_0>
1

$$$$
100178
  Mrv171c012251910542D          

 25 26  0  0  0  0            999 V2000
    2.8621   -1.6570    0.0000 O   0  0  0  0  0  0  0  0  0  0  0  0
    2.1477   -2.0695    0.0000 C   0  0  0  0  0  0  0  0  0  0  0  0
    1.4332   -1.6570    0.0000 C   0  0  0  0  0  0  0  0  0  0  0  0
    1.4332   -0.8320    0.0000 C   0  0  0  0  0  0  0  0  0  0  0  0
    1.4332   -0.0070    0.0000 C   0  0  0  0  0  0  0  0  0  0  0  0
    0.6082   -0.8320    0.0000 C   0  0  0  0  0  0  0  0  0  0  0  0
    2.2582   -0.8320    0.0000 C   0  0  0  0  0  0  0  0  0  0  0  0
    0.7187   -2.0695    0.0000 C   0  0  0  0  0  0  0  0  0  0  0  0
    0.7187   -2.8945    0.0000 C   0  0  0  0  0  0  0  0  0  0  0  0
    0.0043   -3.3070    0.0000 C   0  0  0  0  0  0  0  0  0  0  0  0
    1.4332   -3.3070    0.0000 C   0  0  0  0  0  0  0  0  0  0  0  0
    2.1477   -2.8945    0.0000 C   0  0  0  0  0  0  0  0  0  0  0  0
    2.8621   -3.3070    0.0000 C   0  0  0  0  0  0  0  0  0  0  0  0
    3.5766   -2.8945    0.0000 C   0  0  0  0  0  0  0  0  0  0  0  0
    4.2911   -3.3070    0.0000 C   0  0  0  0  0  0  0  0  0  0  0  0
    4.2911   -4.1320    0.0000 O   0  0  0  0  0  0  0  0  0  0  0  0
    5.0055   -2.8945    0.0000 C   0  0  0  0  0  0  0  0  0  0  0  0
    5.7200   -3.3070    0.0000 C   0  0  0  0  0  0  0  0  0  0  0  0
    6.4345   -3.7195    0.0000 C   0  0  0  0  0  0  0  0  0  0  0  0
    5.3075   -4.0215    0.0000 C   0  0  0  0  0  0  0  0  0  0  0  0
    6.1325   -2.5926    0.0000 C   0  0  0  0  0  0  0  0  0  0  0  0
    5.0055   -2.0695    0.0000 C   0  0  0  0  0  0  0  0  0  0  0  0
    4.2911   -1.6570    0.0000 C   0  0  0  0  0  0  0  0  0  0  0  0
    4.2911   -0.8320    0.0000 C   0  0  0  0  0  0  0  0  0  0  0  0
    3.5766   -2.0695    0.0000 C   0  0  0  0  0  0  0  0  0  0  0  0
  1  2  1  0  0  0  0
  3  2  1  0  0  0  0
  3  4  1  0  0  0  0
  4  5  1  0  0  0  0
  4  6  1  0  0  0  0
  4  7  1  0  0  0  0
  8  3  2  0  0  0  0
  9  8  1  0  0  0  0
  9 10  1  0  0  0  0
 11  9  2  0  0  0  0
 12 11  1  0  0  0  0
  2 12  2  0  0  0  0
 12 13  1  0  0  0  0
 13 14  1  0  0  0  0
 15 14  1  0  0  0  0
 15 16  1  0  0  0  0
 17 15  2  0  0  0  0
 17 18  1  0  0  0  0
 18 19  1  0  0  0  0
 18 20  1  0  0  0  0
 18 21  1  0  0  0  0
 22 17  1  0  0  0  0
 23 22  2  0  0  0  0
 23 24  1  0  0  0  0
 25 23  1  0  0  0  0
 14 25  2  0  0  0  0
M  END
> <ChemID>
100178

> <CAS>
119-47-1

> <Original_SMILES>
CC(C)(C)c1cc(C)cc(Cc2cc(C)cc(c2O)C(C)(C)C)c1O

> <preferred_name>
2,2'-Methylenebis(4-methyl-6-tert-butylphenol)

> <dsstox_substance_id>
DTXSID4020870

> <dsstox_compound_id>
DTXCID20870

> <qc_level>
DSSTox_Low

> <Canonical_QSARr>
CC(C)(C)C1=CC(C)=CC(CC2=CC(C)=CC(=C2O)C(C)(C)C)=C1O

> <InChI_Code_QSARr>
InChI=1S/C23H32O2/c1-14-9-16(20(24)18(11-14)22(3,4)5)13-17-10-15(2)12-19(21(17)25)23(6,7)8/h9-12,24-25H,13H2,1-8H3

> <InChI Key_QSARr>
KGRVJHAUYBGFFP-UHFFFAOYSA-N

> <Salt_Solvent>


> <Salt_Solvent_ID>
0

> <MPID>
101812

> <LogKmHL>
0.03

> <Tr_1_Tst_0>
1

$$$$
100179
  Mrv171c012251910542D          

 15 16  0  0  0  0            999 V2000
    1.8496   -0.8458    0.0000 C   0  0  0  0  0  0  0  0  0  0  0  0
    2.5641   -1.2583    0.0000 C   0  0  0  0  0  0  0  0  0  0  0  0
    2.5641   -2.0833    0.0000 C   0  0  0  0  0  0  0  0  0  0  0  0
    1.8496   -2.4958    0.0000 C   0  0  0  0  0  0  0  0  0  0  0  0
    1.8496   -3.3208    0.0000 C   0  0  0  0  0  0  0  0  0  0  0  0
    2.5641   -3.7333    0.0000 C   0  0  0  0  0  0  0  0  0  0  0  0
    3.2785   -3.3208    0.0000 C   0  0  0  0  0  0  0  0  0  0  0  0
    3.2785   -2.4958    0.0000 C   0  0  0  0  0  0  0  0  0  0  0  0
    3.2785   -0.8458    0.0000 O   0  0  0  0  0  0  0  0  0  0  0  0
    1.8496   -0.0208    0.0000 C   0  0  0  0  0  0  0  0  0  0  0  0
    1.1351    0.3917    0.0000 C   0  0  0  0  0  0  0  0  0  0  0  0
    0.4207   -0.0208    0.0000 C   0  0  0  0  0  0  0  0  0  0  0  0
   -0.2938    0.3917    0.0000 Cl  0  0  0  0  0  0  0  0  0  0  0  0
    0.4207   -0.8458    0.0000 C   0  0  0  0  0  0  0  0  0  0  0  0
    1.1351   -1.2583    0.0000 C   0  0  0  0  0  0  0  0  0  0  0  0
  1  2  1  0  0  0  0
  2  3  1  0  0  0  0
  4  3  1  0  0  0  0
  5  4  2  0  0  0  0
  6  5  1  0  0  0  0
  7  6  2  0  0  0  0
  8  7  1  0  0  0  0
  3  8  2  0  0  0  0
  2  9  1  0  0  0  0
 10  1  1  0  0  0  0
 11 10  2  0  0  0  0
 12 11  1  0  0  0  0
 12 13  1  0  0  0  0
 14 12  2  0  0  0  0
 15 14  1  0  0  0  0
  1 15  2  0  0  0  0
M  END
> <ChemID>
100179

> <CAS>
119-56-2

> <Original_SMILES>
OC(c1ccccc1)c1ccc(Cl)cc1

> <preferred_name>


> <dsstox_substance_id>
DTXSID50870472

> <dsstox_compound_id>
DTXCID10818193

> <qc_level>


> <Canonical_QSARr>
OC(C1C=CC=CC=1)C1C=CC(Cl)=CC=1

> <InChI_Code_QSARr>
InChI=1S/C13H11ClO/c14-12-8-6-11(7-9-12)13(15)10-4-2-1-3-5-10/h1-9,13,15H

> <InChI Key_QSARr>
AJYOOHCNOXWTKJ-UHFFFAOYSA-N

> <Salt_Solvent>


> <Salt_Solvent_ID>
0

> <MPID>
101813

> <LogKmHL>
-0.89

> <Tr_1_Tst_0>
1

$$$$
100180
  Mrv171c012251910542D          

 14 15  0  0  0  0            999 V2000
    3.4173   -2.3837    0.0000 C   0  0  0  0  0  0  0  0  0  0  0  0
    2.7029   -1.9712    0.0000 C   0  0  0  0  0  0  0  0  0  0  0  0
    2.7029   -1.1462    0.0000 C   0  0  0  0  0  0  0  0  0  0  0  0
    1.9884   -0.7337    0.0000 C   0  0  0  0  0  0  0  0  0  0  0  0
    1.9884    0.0913    0.0000 C   0  0  0  0  0  0  0  0  0  0  0  0
    1.2739    0.5038    0.0000 C   0  0  0  0  0  0  0  0  0  0  0  0
    0.5595    0.0913    0.0000 C   0  0  0  0  0  0  0  0  0  0  0  0
    0.5595   -0.7337    0.0000 C   0  0  0  0  0  0  0  0  0  0  0  0
    1.2739   -1.1462    0.0000 C   0  0  0  0  0  0  0  0  0  0  0  0
    3.4173   -0.7337    0.0000 O   0  0  0  0  0  0  0  0  0  0  0  0
    1.9884   -2.3837    0.0000 C   0  0  0  0  0  0  0  0  0  0  0  0
    1.9884   -3.2087    0.0000 C   0  0  0  0  0  0  0  0  0  0  0  0
    2.7029   -3.6212    0.0000 C   0  0  0  0  0  0  0  0  0  0  0  0
    3.4173   -3.2087    0.0000 C   0  0  0  0  0  0  0  0  0  0  0  0
  2  1  1  0  0  0  0
  2  3  1  0  0  0  0
  3  4  1  0  0  0  0
  5  4  1  0  0  0  0
  6  5  2  0  0  0  0
  7  6  1  0  0  0  0
  8  7  2  0  0  0  0
  9  8  1  0  0  0  0
  4  9  2  0  0  0  0
  3 10  2  0  0  0  0
 11  2  2  0  0  0  0
 12 11  1  0  0  0  0
 13 12  2  0  0  0  0
 14 13  1  0  0  0  0
  1 14  2  0  0  0  0
M  END
> <ChemID>
100180

> <CAS>
119-61-9

> <Original_SMILES>
O=C(c1ccccc1)c1ccccc1

> <preferred_name>
Benzophenone

> <dsstox_substance_id>
DTXSID0021961

> <dsstox_compound_id>
DTXCID101961

> <qc_level>
DSSTox_Low

> <Canonical_QSARr>
O=C(C1C=CC=CC=1)C1C=CC=CC=1

> <InChI_Code_QSARr>
InChI=1S/C13H10O/c14-13(11-7-3-1-4-8-11)12-9-5-2-6-10-12/h1-10H

> <InChI Key_QSARr>
RWCCWEUUXYIKHB-UHFFFAOYSA-N

> <Salt_Solvent>


> <Salt_Solvent_ID>
0

> <MPID>
101814

> <LogKmHL>
-1.17

> <Tr_1_Tst_0>
0

$$$$
100181
  Mrv171c012251910542D          

 10 11  0  0  0  0            999 V2000
    1.4297   -0.4125    0.0000 C   0  0  0  0  0  0  0  0  0  0  0  0
    0.7153    0.0000    0.0000 C   0  0  0  0  0  0  0  0  0  0  0  0
    0.0008   -0.4125    0.0000 C   0  0  0  0  0  0  0  0  0  0  0  0
    0.0008   -1.2375    0.0000 C   0  0  0  0  0  0  0  0  0  0  0  0
    0.7153   -1.6500    0.0000 C   0  0  0  0  0  0  0  0  0  0  0  0
    1.4297   -1.2375    0.0000 C   0  0  0  0  0  0  0  0  0  0  0  0
    2.1442   -1.6500    0.0000 C   0  0  0  0  0  0  0  0  0  0  0  0
    2.8587   -1.2375    0.0000 C   0  0  0  0  0  0  0  0  0  0  0  0
    2.8587   -0.4125    0.0000 C   0  0  0  0  0  0  0  0  0  0  0  0
    2.1442    0.0000    0.0000 C   0  0  0  0  0  0  0  0  0  0  0  0
  2  1  1  0  0  0  0
  3  2  2  0  0  0  0
  4  3  1  0  0  0  0
  5  4  2  0  0  0  0
  6  5  1  0  0  0  0
  6  1  2  0  0  0  0
  7  6  1  0  0  0  0
  8  7  1  0  0  0  0
  9  8  1  0  0  0  0
 10  9  1  0  0  0  0
  1 10  1  0  0  0  0
M  END
> <ChemID>
100181

> <CAS>
119-64-2

> <Original_SMILES>
C1CCCc2ccccc21

> <preferred_name>
Tetralin

> <dsstox_substance_id>
DTXSID1026118

> <dsstox_compound_id>
DTXCID306118

> <qc_level>
DSSTox_Low

> <Canonical_QSARr>
C1CCCC2C=CC=CC=21

> <InChI_Code_QSARr>
InChI=1S/C10H12/c1-2-6-10-8-4-3-7-9(10)5-1/h1-2,5-6H,3-4,7-8H2

> <InChI Key_QSARr>
CXWXQJXEFPUFDZ-UHFFFAOYSA-N

> <Salt_Solvent>


> <Salt_Solvent_ID>
0

> <MPID>
101815

> <LogKmHL>
0.75

> <Tr_1_Tst_0>
1

$$$$
100182
  Mrv171c012251910542D          

 14 16  0  0  0  0            999 V2000
    2.1385   -0.0041    0.0000 C   0  0  0  0  0  0  0  0  0  0  0  0
    2.8530   -0.4166    0.0000 C   0  0  0  0  0  0  0  0  0  0  0  0
    3.5675   -0.0041    0.0000 C   0  0  0  0  0  0  0  0  0  0  0  0
    4.2819   -0.4166    0.0000 C   0  0  0  0  0  0  0  0  0  0  0  0
    4.2819   -1.2416    0.0000 C   0  0  0  0  0  0  0  0  0  0  0  0
    3.5675   -1.6541    0.0000 C   0  0  0  0  0  0  0  0  0  0  0  0
    2.8530   -1.2416    0.0000 C   0  0  0  0  0  0  0  0  0  0  0  0
    2.1385   -1.6541    0.0000 C   0  0  0  0  0  0  0  0  0  0  0  0
    1.4240   -1.2416    0.0000 C   0  0  0  0  0  0  0  0  0  0  0  0
    0.7096   -1.6541    0.0000 C   0  0  0  0  0  0  0  0  0  0  0  0
   -0.0049   -1.2416    0.0000 C   0  0  0  0  0  0  0  0  0  0  0  0
   -0.0049   -0.4166    0.0000 C   0  0  0  0  0  0  0  0  0  0  0  0
    0.7096   -0.0041    0.0000 C   0  0  0  0  0  0  0  0  0  0  0  0
    1.4240   -0.4166    0.0000 C   0  0  0  0  0  0  0  0  0  0  0  0
  2  1  2  0  0  0  0
  2  3  1  0  0  0  0
  3  4  2  0  0  0  0
  4  5  1  0  0  0  0
  5  6  2  0  0  0  0
  6  7  1  0  0  0  0
  7  2  1  0  0  0  0
  8  7  2  0  0  0  0
  9  8  1  0  0  0  0
  9 10  1  0  0  0  0
 10 11  2  0  0  0  0
 11 12  1  0  0  0  0
 12 13  2  0  0  0  0
 13 14  1  0  0  0  0
  1 14  1  0  0  0  0
 14  9  2  0  0  0  0
M  END
> <ChemID>
100182

> <CAS>
120-12-7

> <Original_SMILES>
c1c2ccccc2cc2ccccc21

> <preferred_name>
Anthracene

> <dsstox_substance_id>
DTXSID0023878

> <dsstox_compound_id>
DTXCID203878

> <qc_level>
DSSTox_Low

> <Canonical_QSARr>
C1=C2C=CC=CC2=CC2C=CC=CC=21

> <InChI_Code_QSARr>
InChI=1S/C14H10/c1-2-6-12-10-14-8-4-3-7-13(14)9-11(12)5-1/h1-10H

> <InChI Key_QSARr>
MWPLVEDNUUSJAV-UHFFFAOYSA-N

> <Salt_Solvent>


> <Salt_Solvent_ID>
0

> <MPID>
101816

> <LogKmHL>
0.65

> <Tr_1_Tst_0>
1

$$$$
100183
  Mrv171c012251910542D          

 10 10  0  0  0  0            999 V2000
    3.1277   -0.8182    0.0000 N   0  0  0  0  0  0  0  0  0  0  0  0
    2.4132   -1.2307    0.0000 C   0  0  0  0  0  0  0  0  0  0  0  0
    1.6987   -0.8182    0.0000 C   0  0  0  0  0  0  0  0  0  0  0  0
    1.6987    0.0068    0.0000 O   0  0  0  0  0  0  0  0  0  0  0  0
    0.9843    0.4193    0.0000 C   0  0  0  0  0  0  0  0  0  0  0  0
    0.9843   -1.2307    0.0000 C   0  0  0  0  0  0  0  0  0  0  0  0
    0.9843   -2.0557    0.0000 C   0  0  0  0  0  0  0  0  0  0  0  0
    1.6987   -2.4682    0.0000 C   0  0  0  0  0  0  0  0  0  0  0  0
    1.6987   -3.2932    0.0000 C   0  0  0  0  0  0  0  0  0  0  0  0
    2.4132   -2.0557    0.0000 C   0  0  0  0  0  0  0  0  0  0  0  0
  1  2  1  0  0  0  0
  3  2  1  0  0  0  0
  3  4  1  0  0  0  0
  4  5  1  0  0  0  0
  6  3  2  0  0  0  0
  7  6  1  0  0  0  0
  8  7  2  0  0  0  0
  8  9  1  0  0  0  0
 10  8  1  0  0  0  0
  2 10  2  0  0  0  0
M  END
> <ChemID>
100183

> <CAS>
120-71-8

> <Original_SMILES>
Cc1ccc(OC)c(N)c1

> <preferred_name>
2-Methoxy-5-methylaniline

> <dsstox_substance_id>
DTXSID1020350

> <dsstox_compound_id>
DTXCID30350

> <qc_level>
DSSTox_Low

> <Canonical_QSARr>
CC1C=C(N)C(=CC=1)OC

> <InChI_Code_QSARr>
InChI=1S/C8H11NO/c1-6-3-4-8(10-2)7(9)5-6/h3-5H,9H2,1-2H3

> <InChI Key_QSARr>
WXWCDTXEKCVRRO-UHFFFAOYSA-N

> <Salt_Solvent>


> <Salt_Solvent_ID>
0

> <MPID>
101817

> <LogKmHL>
-1.0

> <Tr_1_Tst_0>
1

$$$$
100184
  Mrv171c012251910542D          

 20 23  0  0  0  0            999 V2000
    2.2120   -2.2065    0.0000 N   0  0  0  0  0  0  0  0  0  0  0  0
    1.4274   -1.9516    0.0000 C   0  0  0  0  0  0  0  0  0  0  0  0
    0.7129   -2.3641    0.0000 C   0  0  0  0  0  0  0  0  0  0  0  0
   -0.0016   -1.9516    0.0000 C   0  0  0  0  0  0  0  0  0  0  0  0
   -0.0016   -1.1266    0.0000 C   0  0  0  0  0  0  0  0  0  0  0  0
    0.7129   -0.7141    0.0000 C   0  0  0  0  0  0  0  0  0  0  0  0
    1.4274   -1.1266    0.0000 C   0  0  0  0  0  0  0  0  0  0  0  0
    2.2120   -0.8716    0.0000 S   0  0  0  0  0  0  0  0  0  0  0  0
    2.6969   -1.5391    0.0000 C   0  0  0  0  0  0  0  0  0  0  0  0
    3.5219   -1.5391    0.0000 S   0  0  0  0  0  0  0  0  0  0  0  0
    3.9344   -0.8246    0.0000 S   0  0  0  0  0  0  0  0  0  0  0  0
    4.7594   -0.8246    0.0000 C   0  0  0  0  0  0  0  0  0  0  0  0
    5.2444   -0.1572    0.0000 S   0  0  0  0  0  0  0  0  0  0  0  0
    6.0290   -0.4121    0.0000 C   0  0  0  0  0  0  0  0  0  0  0  0
    6.7435    0.0004    0.0000 C   0  0  0  0  0  0  0  0  0  0  0  0
    7.4579   -0.4121    0.0000 C   0  0  0  0  0  0  0  0  0  0  0  0
    7.4579   -1.2371    0.0000 C   0  0  0  0  0  0  0  0  0  0  0  0
    6.7435   -1.6496    0.0000 C   0  0  0  0  0  0  0  0  0  0  0  0
    6.0290   -1.2371    0.0000 C   0  0  0  0  0  0  0  0  0  0  0  0
    5.2444   -1.4920    0.0000 N   0  0  0  0  0  0  0  0  0  0  0  0
  2  1  1  0  0  0  0
  2  3  1  0  0  0  0
  3  4  2  0  0  0  0
  4  5  1  0  0  0  0
  5  6  2  0  0  0  0
  6  7  1  0  0  0  0
  7  2  2  0  0  0  0
  8  7  1  0  0  0  0
  9  8  1  0  0  0  0
  1  9  2  0  0  0  0
  9 10  1  0  0  0  0
 10 11  1  0  0  0  0
 11 12  1  0  0  0  0
 13 12  1  0  0  0  0
 14 13  1  0  0  0  0
 14 15  1  0  0  0  0
 15 16  2  0  0  0  0
 16 17  1  0  0  0  0
 17 18  2  0  0  0  0
 18 19  1  0  0  0  0
 19 14  2  0  0  0  0
 20 19  1  0  0  0  0
 12 20  2  0  0  0  0
M  END
> <ChemID>
100184

> <CAS>
120-78-5

> <Original_SMILES>
c1cccc2[s]c([n]c21)SSc1[n]c2ccccc2[s]1

> <preferred_name>
2,2'-Dithiobisbenzothiazole

> <dsstox_substance_id>
DTXSID1020146

> <dsstox_compound_id>
DTXCID70146

> <qc_level>
DSSTox_Low

> <Canonical_QSARr>
C1=CC=CC2SC(=NC=21)SSC1=NC2C=CC=CC=2S1

> <InChI_Code_QSARr>
InChI=1S/C14H8N2S4/c1-3-7-11-9(5-1)15-13(17-11)19-20-14-16-10-6-2-4-8-12(10)18-14/h1-8H

> <InChI Key_QSARr>
AFZSMODLJJCVPP-UHFFFAOYSA-N

> <Salt_Solvent>


> <Salt_Solvent_ID>
0

> <MPID>
101818

> <LogKmHL>
-0.91

> <Tr_1_Tst_0>
0

$$$$
100185
  Mrv171c012251910542D          

  9  9  0  0  0  0            999 V2000
    1.7473   -2.4749    0.0000 Cl  0  0  0  0  0  0  0  0  0  0  0  0
    1.7473   -1.6499    0.0000 C   0  0  0  0  0  0  0  0  0  0  0  0
    2.4618   -1.2374    0.0000 C   0  0  0  0  0  0  0  0  0  0  0  0
    2.4618   -0.4124    0.0000 C   0  0  0  0  0  0  0  0  0  0  0  0
    1.7473    0.0001    0.0000 C   0  0  0  0  0  0  0  0  0  0  0  0
    1.7473    0.8251    0.0000 Cl  0  0  0  0  0  0  0  0  0  0  0  0
    1.0328   -0.4124    0.0000 C   0  0  0  0  0  0  0  0  0  0  0  0
    1.0328   -1.2374    0.0000 C   0  0  0  0  0  0  0  0  0  0  0  0
    0.3184   -1.6499    0.0000 Cl  0  0  0  0  0  0  0  0  0  0  0  0
  1  2  1  0  0  0  0
  3  2  1  0  0  0  0
  4  3  2  0  0  0  0
  5  4  1  0  0  0  0
  5  6  1  0  0  0  0
  7  5  2  0  0  0  0
  8  7  1  0  0  0  0
  2  8  2  0  0  0  0
  8  9  1  0  0  0  0
M  END
> <ChemID>
100185

> <CAS>
120-82-1

> <Original_SMILES>
Clc1cc(Cl)c(Cl)cc1

> <preferred_name>
1,2,4-Trichlorobenzene

> <dsstox_substance_id>
DTXSID0021965

> <dsstox_compound_id>
DTXCID701965

> <qc_level>
DSSTox_High

> <Canonical_QSARr>
ClC1=CC(Cl)=C(Cl)C=C1

> <InChI_Code_QSARr>
InChI=1S/C6H3Cl3/c7-4-1-2-5(8)6(9)3-4/h1-3H

> <InChI Key_QSARr>
PBKONEOXTCPAFI-UHFFFAOYSA-N

> <Salt_Solvent>


> <Salt_Solvent_ID>
0

> <MPID>
101819

> <LogKmHL>
1.2

> <Tr_1_Tst_0>
1

$$$$
100186
  Mrv171c012251910542D          

  9  9  0  0  0  0            999 V2000
    2.5410   -1.6499    0.0000 Cl  0  0  0  0  0  0  0  0  0  0  0  0
    1.8265   -1.2374    0.0000 C   0  0  0  0  0  0  0  0  0  0  0  0
    1.8265   -0.4124    0.0000 C   0  0  0  0  0  0  0  0  0  0  0  0
    1.1121    0.0001    0.0000 C   0  0  0  0  0  0  0  0  0  0  0  0
    1.1121    0.8251    0.0000 Cl  0  0  0  0  0  0  0  0  0  0  0  0
    0.3976   -0.4124    0.0000 C   0  0  0  0  0  0  0  0  0  0  0  0
    0.3976   -1.2374    0.0000 C   0  0  0  0  0  0  0  0  0  0  0  0
    1.1121   -1.6499    0.0000 C   0  0  0  0  0  0  0  0  0  0  0  0
    1.1121   -2.4749    0.0000 O   0  0  0  0  0  0  0  0  0  0  0  0
  1  2  1  0  0  0  0
  3  2  1  0  0  0  0
  4  3  2  0  0  0  0
  4  5  1  0  0  0  0
  6  4  1  0  0  0  0
  7  6  2  0  0  0  0
  8  7  1  0  0  0  0
  2  8  2  0  0  0  0
  8  9  1  0  0  0  0
M  END
> <ChemID>
100186

> <CAS>
120-83-2

> <Original_SMILES>
Oc1ccc(Cl)cc1Cl

> <preferred_name>
2,4-Dichlorophenol

> <dsstox_substance_id>
DTXSID1020439

> <dsstox_compound_id>
DTXCID70439

> <qc_level>
DSSTox_Low

> <Canonical_QSARr>
OC1C=CC(Cl)=CC=1Cl

> <InChI_Code_QSARr>
InChI=1S/C6H4Cl2O/c7-4-1-2-6(9)5(8)3-4/h1-3,9H

> <InChI Key_QSARr>
HFZWRUODUSTPEG-UHFFFAOYSA-N

> <Salt_Solvent>


> <Salt_Solvent_ID>
0

> <MPID>
101820

> <LogKmHL>
-0.94

> <Tr_1_Tst_0>
1

$$$$
100187
  Mrv171c012251910542D          

 13 13  0  0  0  0            999 V2000
    2.6359   -2.9487    0.0000 C   0  0  0  0  0  0  0  0  0  0  0  0
    2.6359   -2.1237    0.0000 C   0  0  0  0  0  0  0  0  0  0  0  0
    3.3504   -1.7112    0.0000 C   0  0  0  0  0  0  0  0  0  0  0  0
    3.3504   -0.8862    0.0000 C   0  0  0  0  0  0  0  0  0  0  0  0
    2.6359   -0.4737    0.0000 C   0  0  0  0  0  0  0  0  0  0  0  0
    2.6359    0.3513    0.0000 N   0  3  0  0  0  0  0  0  0  0  0  0
    1.9215    0.7638    0.0000 O   0  5  0  0  0  0  0  0  0  0  0  0
    3.3504    0.7638    0.0000 O   0  0  0  0  0  0  0  0  0  0  0  0
    1.9215   -0.8862    0.0000 C   0  0  0  0  0  0  0  0  0  0  0  0
    1.9215   -1.7112    0.0000 C   0  0  0  0  0  0  0  0  0  0  0  0
    1.2070   -2.1237    0.0000 N   0  3  0  0  0  0  0  0  0  0  0  0
    1.2070   -2.9487    0.0000 O   0  5  0  0  0  0  0  0  0  0  0  0
    0.4925   -1.7112    0.0000 O   0  0  0  0  0  0  0  0  0  0  0  0
  1  2  1  0  0  0  0
  3  2  1  0  0  0  0
  4  3  2  0  0  0  0
  5  4  1  0  0  0  0
  5  6  1  0  0  0  0
  6  7  1  0  0  0  0
  6  8  2  0  0  0  0
  9  5  2  0  0  0  0
 10  9  1  0  0  0  0
  2 10  2  0  0  0  0
 10 11  1  0  0  0  0
 11 12  1  0  0  0  0
 11 13  2  0  0  0  0
M  CHG  4   6   1   7  -1  11   1  12  -1
M  END
> <ChemID>
100187

> <CAS>
121-14-2

> <Original_SMILES>
Cc1ccc(cc1[N+]([O-])=O)[N+]([O-])=O

> <preferred_name>
2,4-Dinitrotoluene

> <dsstox_substance_id>
DTXSID0020529

> <dsstox_compound_id>
DTXCID60529

> <qc_level>
DSSTox_High

> <Canonical_QSARr>
CC1C=CC(=CC=1[N+]([O-])=O)[N+]([O-])=O

> <InChI_Code_QSARr>
InChI=1S/C7H6N2O4/c1-5-2-3-6(8(10)11)4-7(5)9(12)13/h2-4H,1H3

> <InChI Key_QSARr>
RMBFBMJGBANMMK-UHFFFAOYSA-N

> <Salt_Solvent>


> <Salt_Solvent_ID>
0

> <MPID>
101821

> <LogKmHL>
-0.22

> <Tr_1_Tst_0>
0

$$$$
100188
  Mrv171c012251910542D          

  9  9  0  0  0  0            999 V2000
    2.1337    0.7064    0.0000 C   0  0  0  0  0  0  0  0  0  0  0  0
    1.4193    0.2939    0.0000 N   0  0  0  0  0  0  0  0  0  0  0  0
    0.7048    0.7064    0.0000 C   0  0  0  0  0  0  0  0  0  0  0  0
    1.4193   -0.5311    0.0000 C   0  0  0  0  0  0  0  0  0  0  0  0
    0.7048   -0.9436    0.0000 C   0  0  0  0  0  0  0  0  0  0  0  0
    0.7048   -1.7686    0.0000 C   0  0  0  0  0  0  0  0  0  0  0  0
    1.4193   -2.1811    0.0000 C   0  0  0  0  0  0  0  0  0  0  0  0
    2.1337   -1.7686    0.0000 C   0  0  0  0  0  0  0  0  0  0  0  0
    2.1337   -0.9436    0.0000 C   0  0  0  0  0  0  0  0  0  0  0  0
  1  2  1  0  0  0  0
  2  3  1  0  0  0  0
  2  4  1  0  0  0  0
  5  4  1  0  0  0  0
  6  5  2  0  0  0  0
  7  6  1  0  0  0  0
  8  7  2  0  0  0  0
  9  8  1  0  0  0  0
  4  9  2  0  0  0  0
M  END
> <ChemID>
100188

> <CAS>
121-69-7

> <Original_SMILES>
CN(C)c1ccccc1

> <preferred_name>
N,N-Dimethylaniline

> <dsstox_substance_id>
DTXSID2020507

> <dsstox_compound_id>
DTXCID60507

> <qc_level>
DSSTox_Low

> <Canonical_QSARr>
CN(C)C1C=CC=CC=1

> <InChI_Code_QSARr>
InChI=1S/C8H11N/c1-9(2)8-6-4-3-5-7-8/h3-7H,1-2H3

> <InChI Key_QSARr>
JLTDJTHDQAWBAV-UHFFFAOYSA-N

> <Salt_Solvent>


> <Salt_Solvent_ID>
0

> <MPID>
101822

> <LogKmHL>
-0.96

> <Tr_1_Tst_0>
1

$$$$
100189
  Mrv171c012251910542D          

 19 18  0  0  0  0            999 V2000
    1.8978   -0.9530    0.0000 O   0  0  0  0  0  0  0  0  0  0  0  0
    1.8978   -1.7780    0.0000 C   0  0  0  0  0  0  0  0  0  0  0  0
    1.1833   -2.1905    0.0000 O   0  0  0  0  0  0  0  0  0  0  0  0
    0.4688   -1.7780    0.0000 C   0  0  0  0  0  0  0  0  0  0  0  0
   -0.2456   -2.1905    0.0000 C   0  0  0  0  0  0  0  0  0  0  0  0
    2.6122   -2.1905    0.0000 C   0  0  0  0  0  0  0  0  0  0  0  0
    3.3267   -1.7780    0.0000 C   0  0  0  0  0  0  0  0  0  0  0  0
    4.0412   -2.1905    0.0000 C   0  0  0  0  0  0  0  0  0  0  0  0
    4.7557   -1.7780    0.0000 O   0  0  0  0  0  0  0  0  0  0  0  0
    5.4701   -2.1905    0.0000 C   0  0  0  0  0  0  0  0  0  0  0  0
    6.1846   -1.7780    0.0000 C   0  0  0  0  0  0  0  0  0  0  0  0
    4.0412   -3.0155    0.0000 O   0  0  0  0  0  0  0  0  0  0  0  0
    2.6122   -3.0155    0.0000 S   0  0  0  0  0  0  0  0  0  0  0  0
    1.8978   -3.4280    0.0000 P   0  0  0  0  0  0  0  0  0  0  0  0
    1.4853   -2.7136    0.0000 O   0  0  0  0  0  0  0  0  0  0  0  0
    0.6603   -2.7136    0.0000 C   0  0  0  0  0  0  0  0  0  0  0  0
    1.1833   -3.8405    0.0000 O   0  0  0  0  0  0  0  0  0  0  0  0
    0.4688   -3.4280    0.0000 C   0  0  0  0  0  0  0  0  0  0  0  0
    2.3103   -4.1425    0.0000 S   0  0  0  0  0  0  0  0  0  0  0  0
  1  2  2  0  0  0  0
  2  3  1  0  0  0  0
  3  4  1  0  0  0  0
  4  5  1  0  0  0  0
  2  6  1  0  0  0  0
  6  7  1  0  0  0  0
  7  8  1  0  0  0  0
  8  9  1  0  0  0  0
  9 10  1  0  0  0  0
 10 11  1  0  0  0  0
  8 12  2  0  0  0  0
  6 13  1  0  0  0  0
 13 14  1  0  0  0  0
 14 15  1  0  0  0  0
 15 16  1  0  0  0  0
 14 17  1  0  0  0  0
 17 18  1  0  0  0  0
 14 19  2  0  0  0  0
M  END
> <ChemID>
100189

> <CAS>
121-75-5

> <Original_SMILES>
CCOC(=O)C(CC(=O)OCC)SP(=S)(OC)OC

> <preferred_name>
Malathion

> <dsstox_substance_id>
DTXSID4020791

> <dsstox_compound_id>
DTXCID80791

> <qc_level>
DSSTox_Low

> <Canonical_QSARr>
CCOC(=O)C(CC(=O)OCC)SP(=S)(OC)OC

> <InChI_Code_QSARr>
InChI=1S/C10H19O6PS2/c1-5-15-9(11)7-8(10(12)16-6-2)19-17(18,13-3)14-4/h8H,5-7H2,1-4H3

> <InChI Key_QSARr>
JXSJBGJIGXNWCI-UHFFFAOYSA-N

> <Salt_Solvent>


> <Salt_Solvent_ID>
0

> <MPID>
101823

> <LogKmHL>
0.29

> <Tr_1_Tst_0>
1

$$$$
100190
  Mrv171c012251910542D          

 17 17  0  0  0  0            999 V2000
    2.0185   -2.3363    0.0000 S   0  0  0  0  0  0  0  0  0  0  0  0
    2.4310   -3.0508    0.0000 P   0  0  0  0  0  0  0  0  0  0  0  0
    1.7166   -3.4633    0.0000 O   0  0  0  0  0  0  0  0  0  0  0  0
    1.7166   -4.2883    0.0000 C   0  0  0  0  0  0  0  0  0  0  0  0
    2.8435   -3.7653    0.0000 O   0  0  0  0  0  0  0  0  0  0  0  0
    2.4310   -4.4797    0.0000 C   0  0  0  0  0  0  0  0  0  0  0  0
    3.1455   -2.6383    0.0000 O   0  0  0  0  0  0  0  0  0  0  0  0
    3.1455   -1.8133    0.0000 C   0  0  0  0  0  0  0  0  0  0  0  0
    3.8600   -1.4008    0.0000 C   0  0  0  0  0  0  0  0  0  0  0  0
    3.8600   -0.5758    0.0000 C   0  0  0  0  0  0  0  0  0  0  0  0
    3.1455   -0.1633    0.0000 C   0  0  0  0  0  0  0  0  0  0  0  0
    3.1455    0.6617    0.0000 N   0  3  0  0  0  0  0  0  0  0  0  0
    2.4310    1.0742    0.0000 O   0  5  0  0  0  0  0  0  0  0  0  0
    3.8600    1.0742    0.0000 O   0  0  0  0  0  0  0  0  0  0  0  0
    2.4310   -0.5758    0.0000 C   0  0  0  0  0  0  0  0  0  0  0  0
    1.7166   -0.1633    0.0000 C   0  0  0  0  0  0  0  0  0  0  0  0
    2.4310   -1.4008    0.0000 C   0  0  0  0  0  0  0  0  0  0  0  0
  1  2  2  0  0  0  0
  2  3  1  0  0  0  0
  3  4  1  0  0  0  0
  2  5  1  0  0  0  0
  5  6  1  0  0  0  0
  2  7  1  0  0  0  0
  7  8  1  0  0  0  0
  9  8  2  0  0  0  0
 10  9  1  0  0  0  0
 11 10  2  0  0  0  0
 11 12  1  0  0  0  0
 12 13  1  0  0  0  0
 12 14  2  0  0  0  0
 15 11  1  0  0  0  0
 15 16  1  0  0  0  0
 17 15  2  0  0  0  0
  8 17  1  0  0  0  0
M  CHG  2  12   1  13  -1
M  END
> <ChemID>
100190

> <CAS>
122-14-5

> <Original_SMILES>
Cc1cc(ccc1[N+]([O-])=O)OP(=S)(OC)OC

> <preferred_name>
Fenitrothion

> <dsstox_substance_id>
DTXSID4032613

> <dsstox_compound_id>
DTXCID2012613

> <qc_level>
DSSTox_Low

> <Canonical_QSARr>
CC1=CC(=CC=C1[N+]([O-])=O)OP(=S)(OC)OC

> <InChI_Code_QSARr>
InChI=1S/C9H12NO5PS/c1-7-6-8(4-5-9(7)10(11)12)15-16(17,13-2)14-3/h4-6H,1-3H3

> <InChI Key_QSARr>
ZNOLGFHPUIJIMJ-UHFFFAOYSA-N

> <Salt_Solvent>


> <Salt_Solvent_ID>
0

> <MPID>
101824

> <LogKmHL>
0.03

> <Tr_1_Tst_0>
1

$$$$
100191
  Mrv171c012251910542D          

 13 13  0  0  0  0            999 V2000
    3.8567   -2.9222    0.0000 Cl  0  0  0  0  0  0  0  0  0  0  0  0
    3.1422   -2.5097    0.0000 C   0  0  0  0  0  0  0  0  0  0  0  0
    3.1422   -1.6847    0.0000 N   0  0  0  0  0  0  0  0  0  0  0  0
    2.4277   -1.2722    0.0000 C   0  0  0  0  0  0  0  0  0  0  0  0
    2.4277   -0.4472    0.0000 N   0  0  0  0  0  0  0  0  0  0  0  0
    3.1422   -0.0347    0.0000 C   0  0  0  0  0  0  0  0  0  0  0  0
    3.1422    0.7903    0.0000 C   0  0  0  0  0  0  0  0  0  0  0  0
    1.7133   -1.6847    0.0000 N   0  0  0  0  0  0  0  0  0  0  0  0
    1.7133   -2.5097    0.0000 C   0  0  0  0  0  0  0  0  0  0  0  0
    0.9988   -2.9222    0.0000 N   0  0  0  0  0  0  0  0  0  0  0  0
    0.2843   -2.5097    0.0000 C   0  0  0  0  0  0  0  0  0  0  0  0
   -0.4301   -2.9222    0.0000 C   0  0  0  0  0  0  0  0  0  0  0  0
    2.4277   -2.9222    0.0000 N   0  0  0  0  0  0  0  0  0  0  0  0
  1  2  1  0  0  0  0
  3  2  1  0  0  0  0
  4  3  2  0  0  0  0
  4  5  1  0  0  0  0
  5  6  1  0  0  0  0
  6  7  1  0  0  0  0
  8  4  1  0  0  0  0
  9  8  2  0  0  0  0
  9 10  1  0  0  0  0
 10 11  1  0  0  0  0
 11 12  1  0  0  0  0
 13  9  1  0  0  0  0
  2 13  2  0  0  0  0
M  END
> <ChemID>
100191

> <CAS>
122-34-9

> <Original_SMILES>
CCNc1[n]c(Cl)[n]c(NCC)[n]1

> <preferred_name>
Simazine

> <dsstox_substance_id>
DTXSID4021268

> <dsstox_compound_id>
DTXCID501268

> <qc_level>
DSSTox_Low

> <Canonical_QSARr>
CCNC1=NC(Cl)=NC(NCC)=N1

> <InChI_Code_QSARr>
InChI=1S/C7H12ClN5/c1-3-9-6-11-5(8)12-7(13-6)10-4-2/h3-4H2,1-2H3,(H2,9,10,11,12,13)

> <InChI Key_QSARr>
ODCWYMIRDDJXKW-UHFFFAOYSA-N

> <Salt_Solvent>


> <Salt_Solvent_ID>
0

> <MPID>
101825

> <LogKmHL>
-0.94

> <Tr_1_Tst_0>
0

$$$$
100192
  Mrv171c012251910542D          

 13 14  0  0  0  0            999 V2000
    3.5155   -1.7446    0.0000 C   0  0  0  0  0  0  0  0  0  0  0  0
    2.8010   -1.3321    0.0000 C   0  0  0  0  0  0  0  0  0  0  0  0
    2.8010   -0.5071    0.0000 N   0  0  0  0  0  0  0  0  0  0  0  0
    2.0865   -0.0946    0.0000 C   0  0  0  0  0  0  0  0  0  0  0  0
    2.0865    0.7304    0.0000 C   0  0  0  0  0  0  0  0  0  0  0  0
    1.3721    1.1429    0.0000 C   0  0  0  0  0  0  0  0  0  0  0  0
    0.6576    0.7304    0.0000 C   0  0  0  0  0  0  0  0  0  0  0  0
    0.6576   -0.0946    0.0000 C   0  0  0  0  0  0  0  0  0  0  0  0
    1.3721   -0.5071    0.0000 C   0  0  0  0  0  0  0  0  0  0  0  0
    2.0865   -1.7446    0.0000 C   0  0  0  0  0  0  0  0  0  0  0  0
    2.0865   -2.5696    0.0000 C   0  0  0  0  0  0  0  0  0  0  0  0
    2.8010   -2.9821    0.0000 C   0  0  0  0  0  0  0  0  0  0  0  0
    3.5155   -2.5696    0.0000 C   0  0  0  0  0  0  0  0  0  0  0  0
  2  1  1  0  0  0  0
  2  3  1  0  0  0  0
  3  4  1  0  0  0  0
  5  4  1  0  0  0  0
  6  5  2  0  0  0  0
  7  6  1  0  0  0  0
  8  7  2  0  0  0  0
  9  8  1  0  0  0  0
  4  9  2  0  0  0  0
 10  2  2  0  0  0  0
 11 10  1  0  0  0  0
 12 11  2  0  0  0  0
 13 12  1  0  0  0  0
  1 13  2  0  0  0  0
M  END
> <ChemID>
100192

> <CAS>
122-39-4

> <Original_SMILES>
c1ccccc1Nc1ccccc1

> <preferred_name>
Diphenylamine

> <dsstox_substance_id>
DTXSID4021975

> <dsstox_compound_id>
DTXCID001975

> <qc_level>
DSSTox_Low

> <Canonical_QSARr>
C1=CC=CC=C1NC1C=CC=CC=1

> <InChI_Code_QSARr>
InChI=1S/C12H11N/c1-3-7-11(8-4-1)13-12-9-5-2-6-10-12/h1-10,13H

> <InChI Key_QSARr>
DMBHHRLKUKUOEG-UHFFFAOYSA-N

> <Salt_Solvent>


> <Salt_Solvent_ID>
0

> <MPID>
101826

> <LogKmHL>
0.35

> <Tr_1_Tst_0>
1

$$$$
100193
  Mrv171c012251910542D          

 12 11  0  0  0  0            999 V2000
    1.6500    1.4289    0.0000 C   0  0  0  0  0  0  0  0  0  0  0  0
    1.2375    0.7145    0.0000 C   0  0  0  0  0  0  0  0  0  0  0  0
    0.5230    1.1270    0.0000 C   0  0  0  0  0  0  0  0  0  0  0  0
    1.9520    0.3020    0.0000 C   0  0  0  0  0  0  0  0  0  0  0  0
    0.8250    0.0000    0.0000 C   0  0  0  0  0  0  0  0  0  0  0  0
    0.0000    0.0000    0.0000 C   0  0  0  0  0  0  0  0  0  0  0  0
   -0.4125    0.7145    0.0000 C   0  0  0  0  0  0  0  0  0  0  0  0
   -0.4125   -0.7145    0.0000 C   0  0  0  0  0  0  0  0  0  0  0  0
    0.0000   -1.4289    0.0000 C   0  0  0  0  0  0  0  0  0  0  0  0
    0.4125   -2.1434    0.0000 C   0  0  0  0  0  0  0  0  0  0  0  0
   -0.7145   -1.8414    0.0000 C   0  0  0  0  0  0  0  0  0  0  0  0
    0.7145   -1.0164    0.0000 C   0  0  0  0  0  0  0  0  0  0  0  0
  1  2  1  0  0  0  0
  2  3  1  0  0  0  0
  2  4  1  0  0  0  0
  5  2  1  4  0  0  0
  5  6  2  0  0  0  0
  6  7  1  0  0  0  0
  6  8  1  0  0  0  0
  8  9  1  0  0  0  0
  9 10  1  0  0  0  0
  9 11  1  0  0  0  0
  9 12  1  0  0  0  0
M  END
> <ChemID>
100193

> <CAS>
123-48-8

> <Original_SMILES>
CC(C)(C)C=C(C)CC(C)(C)C

> <preferred_name>
2,2,4,6,6-Pentamethylhept-3-ene

> <dsstox_substance_id>
DTXSID3051628

> <dsstox_compound_id>
DTXCID8030180

> <qc_level>
DSSTox_Low

> <Canonical_QSARr>
CC(C)(C)C=C(C)CC(C)(C)C

> <InChI_Code_QSARr>
InChI=1S/C12H24/c1-10(8-11(2,3)4)9-12(5,6)7/h8H,9H2,1-7H3

> <InChI Key_QSARr>
NBUMCEJRJRRLCA-UHFFFAOYSA-N

> <Salt_Solvent>


> <Salt_Solvent_ID>
0

> <MPID>
101827

> <LogKmHL>
0.7

> <Tr_1_Tst_0>
1

$$$$
100194
  Mrv171c012251910542D          

  9  8  0  0  0  0            999 V2000
    5.8558    2.5559    0.0000 C   0  0  0  0  0  0  0  0  0  0  0  0
    5.1414    2.1434    0.0000 C   0  0  0  0  0  0  0  0  0  0  0  0
    4.4269    2.5559    0.0000 C   0  0  0  0  0  0  0  0  0  0  0  0
    3.7124    2.1434    0.0000 C   0  0  0  0  0  0  0  0  0  0  0  0
    2.9980    2.5559    0.0000 C   0  0  0  0  0  0  0  0  0  0  0  0
    6.5703    2.1434    0.0000 C   0  0  0  0  0  0  0  0  0  0  0  0
    7.2848    2.5559    0.0000 C   0  0  0  0  0  0  0  0  0  0  0  0
    7.9992    2.1434    0.0000 C   0  0  0  0  0  0  0  0  0  0  0  0
    8.7137    2.5559    0.0000 C   0  0  0  0  0  0  0  0  0  0  0  0
  1  2  1  0  0  0  0
  2  3  1  0  0  0  0
  3  4  1  0  0  0  0
  4  5  2  0  0  0  0
  1  6  1  0  0  0  0
  6  7  1  0  0  0  0
  7  8  1  0  0  0  0
  8  9  1  0  0  0  0
M  END
> <ChemID>
100194

> <CAS>
124-11-8

> <Original_SMILES>
CCCCCCCC=C

> <preferred_name>
1-Nonene

> <dsstox_substance_id>
DTXSID2059562

> <dsstox_compound_id>
DTXCID3033806

> <qc_level>
Public_High

> <Canonical_QSARr>
CCCCCCCC=C

> <InChI_Code_QSARr>
InChI=1S/C9H18/c1-3-5-7-9-8-6-4-2/h3H,1,4-9H2,2H3

> <InChI Key_QSARr>
JRZJOMJEPLMPRA-UHFFFAOYSA-N

> <Salt_Solvent>


> <Salt_Solvent_ID>
0

> <MPID>
101828

> <LogKmHL>
0.52

> <Tr_1_Tst_0>
1

$$$$
100195
  Mrv171c012251910542D          

 17 16  0  0  0  0            999 V2000
    0.1316   -3.5849    0.0000 C   0  0  0  0  0  0  0  0  0  0  0  0
    0.5441   -2.8704    0.0000 C   0  0  0  0  0  0  0  0  0  0  0  0
    1.3691   -2.8704    0.0000 C   0  0  0  0  0  0  0  0  0  0  0  0
    1.7816   -2.1559    0.0000 C   0  0  0  0  0  0  0  0  0  0  0  0
    2.6066   -2.1559    0.0000 O   0  0  0  0  0  0  0  0  0  0  0  0
    3.0191   -1.4415    0.0000 P   0  0  0  0  0  0  0  0  0  0  0  0
    3.4316   -0.7270    0.0000 O   0  0  0  0  0  0  0  0  0  0  0  0
    4.2566   -0.7270    0.0000 C   0  0  0  0  0  0  0  0  0  0  0  0
    4.6691   -0.0125    0.0000 C   0  0  0  0  0  0  0  0  0  0  0  0
    5.4941   -0.0125    0.0000 C   0  0  0  0  0  0  0  0  0  0  0  0
    5.9066    0.7019    0.0000 C   0  0  0  0  0  0  0  0  0  0  0  0
    3.7336   -1.8540    0.0000 O   0  0  0  0  0  0  0  0  0  0  0  0
    4.4480   -1.4415    0.0000 C   0  0  0  0  0  0  0  0  0  0  0  0
    5.1625   -1.8540    0.0000 C   0  0  0  0  0  0  0  0  0  0  0  0
    5.8770   -1.4415    0.0000 C   0  0  0  0  0  0  0  0  0  0  0  0
    6.5914   -1.8540    0.0000 C   0  0  0  0  0  0  0  0  0  0  0  0
    2.3046   -1.0290    0.0000 O   0  0  0  0  0  0  0  0  0  0  0  0
  1  2  1  0  0  0  0
  2  3  1  0  0  0  0
  3  4  1  0  0  0  0
  4  5  1  0  0  0  0
  5  6  1  0  0  0  0
  6  7  1  0  0  0  0
  7  8  1  0  0  0  0
  8  9  1  0  0  0  0
  9 10  1  0  0  0  0
 10 11  1  0  0  0  0
  6 12  1  0  0  0  0
 12 13  1  0  0  0  0
 13 14  1  0  0  0  0
 14 15  1  0  0  0  0
 15 16  1  0  0  0  0
  6 17  2  0  0  0  0
M  END
> <ChemID>
100195

> <CAS>
126-73-8

> <Original_SMILES>
CCCCOP(=O)(OCCCC)OCCCC

> <preferred_name>
Tributyl phosphate

> <dsstox_substance_id>
DTXSID3021986

> <dsstox_compound_id>
DTXCID701986

> <qc_level>
DSSTox_Low

> <Canonical_QSARr>
CCCCOP(=O)(OCCCC)OCCCC

> <InChI_Code_QSARr>
InChI=1S/C12H27O4P/c1-4-7-10-14-17(13,15-11-8-5-2)16-12-9-6-3/h4-12H2,1-3H3

> <InChI Key_QSARr>
STCOOQWBFONSKY-UHFFFAOYSA-N

> <Salt_Solvent>


> <Salt_Solvent_ID>
0

> <MPID>
101829

> <LogKmHL>
-0.76

> <Tr_1_Tst_0>
0

$$$$
100196
  Mrv171c012251910542D          

  6  5  0  0  0  0            999 V2000
    1.8554   -1.7855    0.0000 Cl  0  0  0  0  0  0  0  0  0  0  0  0
    1.4429   -1.0710    0.0000 C   0  0  0  0  0  0  0  0  0  0  0  0
    1.8554   -0.3566    0.0000 Cl  0  0  0  0  0  0  0  0  0  0  0  0
    0.6179   -1.0710    0.0000 C   0  0  0  0  0  0  0  0  0  0  0  0
    0.2054   -1.7855    0.0000 Cl  0  0  0  0  0  0  0  0  0  0  0  0
    0.2054   -0.3566    0.0000 Cl  0  0  0  0  0  0  0  0  0  0  0  0
  1  2  1  0  0  0  0
  2  3  1  0  0  0  0
  2  4  2  0  0  0  0
  4  5  1  0  0  0  0
  4  6  1  0  0  0  0
M  END
> <ChemID>
100196

> <CAS>
127-18-4

> <Original_SMILES>
ClC(Cl)=C(Cl)Cl

> <preferred_name>
Tetrachloroethylene

> <dsstox_substance_id>
DTXSID2021319

> <dsstox_compound_id>
DTXCID601319

> <qc_level>
DSSTox_Low

> <Canonical_QSARr>
ClC(Cl)=C(Cl)Cl

> <InChI_Code_QSARr>
InChI=1S/C2Cl4/c3-1(4)2(5)6

> <InChI Key_QSARr>
CYTYCFOTNPOANT-UHFFFAOYSA-N

> <Salt_Solvent>


> <Salt_Solvent_ID>
0

> <MPID>
101830

> <LogKmHL>
-0.88

> <Tr_1_Tst_0>
1

$$$$
100198
  Mrv171c012251910542D          

 16 16  0  0  0  0            999 V2000
    4.0266   -2.2423    0.0000 O   0  0  0  0  0  0  0  0  0  0  0  0
    3.3122   -2.6548    0.0000 C   0  0  0  0  0  0  0  0  0  0  0  0
    2.5977   -2.2423    0.0000 C   0  0  0  0  0  0  0  0  0  0  0  0
    2.5977   -1.4173    0.0000 C   0  0  0  0  0  0  0  0  0  0  0  0
    2.5977   -0.5923    0.0000 C   0  0  0  0  0  0  0  0  0  0  0  0
    1.7727   -1.4173    0.0000 C   0  0  0  0  0  0  0  0  0  0  0  0
    3.4227   -1.4173    0.0000 C   0  0  0  0  0  0  0  0  0  0  0  0
    1.8832   -2.6548    0.0000 C   0  0  0  0  0  0  0  0  0  0  0  0
    1.8832   -3.4798    0.0000 C   0  0  0  0  0  0  0  0  0  0  0  0
    1.1687   -3.8923    0.0000 C   0  0  0  0  0  0  0  0  0  0  0  0
    2.5977   -3.8923    0.0000 C   0  0  0  0  0  0  0  0  0  0  0  0
    3.3122   -3.4798    0.0000 C   0  0  0  0  0  0  0  0  0  0  0  0
    4.0266   -3.8923    0.0000 C   0  0  0  0  0  0  0  0  0  0  0  0
    4.7411   -4.3048    0.0000 C   0  0  0  0  0  0  0  0  0  0  0  0
    3.6141   -4.6067    0.0000 C   0  0  0  0  0  0  0  0  0  0  0  0
    4.4391   -3.1778    0.0000 C   0  0  0  0  0  0  0  0  0  0  0  0
  1  2  1  0  0  0  0
  3  2  1  0  0  0  0
  3  4  1  0  0  0  0
  4  5  1  0  0  0  0
  4  6  1  0  0  0  0
  4  7  1  0  0  0  0
  8  3  2  0  0  0  0
  9  8  1  0  0  0  0
  9 10  1  0  0  0  0
 11  9  2  0  0  0  0
 12 11  1  0  0  0  0
  2 12  2  0  0  0  0
 12 13  1  0  0  0  0
 13 14  1  0  0  0  0
 13 15  1  0  0  0  0
 13 16  1  0  0  0  0
M  END
> <ChemID>
100198

> <CAS>
128-37-0

> <Original_SMILES>
Cc1cc(c(O)c(c1)C(C)(C)C)C(C)(C)C

> <preferred_name>
Butylated hydroxytoluene

> <dsstox_substance_id>
DTXSID2020216

> <dsstox_compound_id>
DTXCID20216

> <qc_level>
DSSTox_Low

> <Canonical_QSARr>
CC1C=C(C(O)=C(C=1)C(C)(C)C)C(C)(C)C

> <InChI_Code_QSARr>
InChI=1S/C15H24O/c1-10-8-11(14(2,3)4)13(16)12(9-10)15(5,6)7/h8-9,16H,1-7H3

> <InChI Key_QSARr>
NLZUEZXRPGMBCV-UHFFFAOYSA-N

> <Salt_Solvent>


> <Salt_Solvent_ID>
0

> <MPID>
101831

> <LogKmHL>
0.32

> <Tr_1_Tst_0>
1

$$$$
100199
  Mrv171c012251910542D          

 16 19  0  0  0  0            999 V2000
    2.2044   -1.4429    0.0000 C   0  0  0  0  0  0  0  0  0  0  0  0
    2.6169   -0.7285    0.0000 C   0  0  0  0  0  0  0  0  0  0  0  0
    2.2044   -0.0140    0.0000 C   0  0  0  0  0  0  0  0  0  0  0  0
    1.3794   -0.0140    0.0000 C   0  0  0  0  0  0  0  0  0  0  0  0
    0.9669   -0.7285    0.0000 C   0  0  0  0  0  0  0  0  0  0  0  0
    0.1419   -0.7285    0.0000 C   0  0  0  0  0  0  0  0  0  0  0  0
   -0.2706   -1.4429    0.0000 C   0  0  0  0  0  0  0  0  0  0  0  0
    0.1419   -2.1574    0.0000 C   0  0  0  0  0  0  0  0  0  0  0  0
    0.9669   -2.1574    0.0000 C   0  0  0  0  0  0  0  0  0  0  0  0
    1.3794   -2.8719    0.0000 C   0  0  0  0  0  0  0  0  0  0  0  0
    2.2044   -2.8719    0.0000 C   0  0  0  0  0  0  0  0  0  0  0  0
    2.6169   -2.1574    0.0000 C   0  0  0  0  0  0  0  0  0  0  0  0
    3.4419   -2.1574    0.0000 C   0  0  0  0  0  0  0  0  0  0  0  0
    3.8544   -1.4429    0.0000 C   0  0  0  0  0  0  0  0  0  0  0  0
    3.4419   -0.7285    0.0000 C   0  0  0  0  0  0  0  0  0  0  0  0
    1.3794   -1.4429    0.0000 C   0  0  0  0  0  0  0  0  0  0  0  0
  2  1  1  0  0  0  0
  2  3  1  0  0  0  0
  3  4  2  0  0  0  0
  4  5  1  0  0  0  0
  5  6  2  0  0  0  0
  6  7  1  0  0  0  0
  7  8  2  0  0  0  0
  8  9  1  0  0  0  0
  9 10  1  0  0  0  0
 10 11  2  0  0  0  0
 11 12  1  0  0  0  0
 12  1  2  0  0  0  0
 12 13  1  0  0  0  0
 13 14  2  0  0  0  0
 14 15  1  0  0  0  0
 15  2  2  0  0  0  0
  9 16  2  0  0  0  0
  1 16  1  0  0  0  0
 16  5  1  0  0  0  0
M  END
> <ChemID>
100199

> <CAS>
129-00-0

> <Original_SMILES>
c1cc2cccc3ccc4cccc1c4c32

> <preferred_name>
Pyrene

> <dsstox_substance_id>
DTXSID3024289

> <dsstox_compound_id>
DTXCID804289

> <qc_level>
DSSTox_Low

> <Canonical_QSARr>
C1=CC2C=CC=C3C=CC4=CC=CC1=C4C=23

> <InChI_Code_QSARr>
InChI=1S/C16H10/c1-3-11-7-9-13-5-2-6-14-10-8-12(4-1)15(11)16(13)14/h1-10H

> <InChI Key_QSARr>
BBEAQIROQSPTKN-UHFFFAOYSA-N

> <Salt_Solvent>


> <Salt_Solvent_ID>
0

> <MPID>
101832

> <LogKmHL>
0.32

> <Tr_1_Tst_0>
1

$$$$
100200
  Mrv171c012251910542D          

 17 19  0  0  0  0            999 V2000
   -0.0003   -1.1416    0.0000 C   0  0  0  0  0  0  0  0  0  0  0  0
    0.7141   -0.7291    0.0000 C   0  0  0  0  0  0  0  0  0  0  0  0
    1.4286   -1.1416    0.0000 C   0  0  0  0  0  0  0  0  0  0  0  0
    2.1431   -0.7291    0.0000 C   0  0  0  0  0  0  0  0  0  0  0  0
    2.1431    0.0959    0.0000 O   0  0  0  0  0  0  0  0  0  0  0  0
    2.8576   -1.1416    0.0000 C   0  0  0  0  0  0  0  0  0  0  0  0
    2.8576   -1.9666    0.0000 C   0  0  0  0  0  0  0  0  0  0  0  0
    2.1431   -2.3791    0.0000 C   0  0  0  0  0  0  0  0  0  0  0  0
    2.1431   -3.2041    0.0000 O   0  0  0  0  0  0  0  0  0  0  0  0
    1.4286   -1.9666    0.0000 C   0  0  0  0  0  0  0  0  0  0  0  0
    0.7141   -2.3791    0.0000 C   0  0  0  0  0  0  0  0  0  0  0  0
   -0.0003   -1.9666    0.0000 C   0  0  0  0  0  0  0  0  0  0  0  0
    3.5720   -2.3791    0.0000 C   0  0  0  0  0  0  0  0  0  0  0  0
    4.2865   -1.9666    0.0000 C   0  0  0  0  0  0  0  0  0  0  0  0
    5.0010   -2.3791    0.0000 Cl  0  0  0  0  0  0  0  0  0  0  0  0
    4.2865   -1.1416    0.0000 C   0  0  0  0  0  0  0  0  0  0  0  0
    3.5720   -0.7291    0.0000 C   0  0  0  0  0  0  0  0  0  0  0  0
  2  1  2  0  0  0  0
  3  2  1  0  0  0  0
  3  4  1  0  0  0  0
  4  5  2  0  0  0  0
  4  6  1  0  0  0  0
  7  6  2  0  0  0  0
  7  8  1  0  0  0  0
  8  9  2  0  0  0  0
  8 10  1  0  0  0  0
 10  3  2  0  0  0  0
 11 10  1  0  0  0  0
 12 11  2  0  0  0  0
  1 12  1  0  0  0  0
 13  7  1  0  0  0  0
 14 13  2  0  0  0  0
 14 15  1  0  0  0  0
 16 14  1  0  0  0  0
 17 16  2  0  0  0  0
  6 17  1  0  0  0  0
M  END
> <ChemID>
100200

> <CAS>
131-09-9

> <Original_SMILES>
O=C1c2cc(Cl)ccc2C(=O)c2ccccc12

> <preferred_name>
2-Chloroanthraquinone

> <dsstox_substance_id>
DTXSID7049213

> <dsstox_compound_id>
DTXCID9029069

> <qc_level>
DSSTox_Low

> <Canonical_QSARr>
O=C1C2C=C(Cl)C=CC=2C(=O)C2C=CC=CC1=2

> <InChI_Code_QSARr>
InChI=1S/C14H7ClO2/c15-8-5-6-11-12(7-8)14(17)10-4-2-1-3-9(10)13(11)16/h1-7H

> <InChI Key_QSARr>
FPKCTSIVDAWGFA-UHFFFAOYSA-N

> <Salt_Solvent>


> <Salt_Solvent_ID>
0

> <MPID>
101833

> <LogKmHL>
-0.36

> <Tr_1_Tst_0>
0

$$$$
100201
  Mrv171c012251910542D          

 13 15  0  0  0  0            999 V2000
    0.5267   -1.6923    0.0000 C   0  0  0  0  0  0  0  0  0  0  0  0
    1.3336   -1.5208    0.0000 C   0  0  0  0  0  0  0  0  0  0  0  0
    2.0011   -2.0057    0.0000 O   0  0  0  0  0  0  0  0  0  0  0  0
    2.6685   -1.5208    0.0000 C   0  0  0  0  0  0  0  0  0  0  0  0
    3.4755   -1.6923    0.0000 C   0  0  0  0  0  0  0  0  0  0  0  0
    4.0275   -1.0792    0.0000 C   0  0  0  0  0  0  0  0  0  0  0  0
    3.7726   -0.2946    0.0000 C   0  0  0  0  0  0  0  0  0  0  0  0
    2.9656   -0.1231    0.0000 C   0  0  0  0  0  0  0  0  0  0  0  0
    2.4136   -0.7361    0.0000 C   0  0  0  0  0  0  0  0  0  0  0  0
    1.5886   -0.7361    0.0000 C   0  0  0  0  0  0  0  0  0  0  0  0
    1.0365   -0.1231    0.0000 C   0  0  0  0  0  0  0  0  0  0  0  0
    0.2296   -0.2946    0.0000 C   0  0  0  0  0  0  0  0  0  0  0  0
   -0.0254   -1.0792    0.0000 C   0  0  0  0  0  0  0  0  0  0  0  0
  2  1  1  0  0  0  0
  2  3  1  0  0  0  0
  3  4  1  0  0  0  0
  5  4  2  0  0  0  0
  6  5  1  0  0  0  0
  7  6  2  0  0  0  0
  8  7  1  0  0  0  0
  9  8  2  0  0  0  0
  4  9  1  0  0  0  0
  9 10  1  0  0  0  0
 10  2  2  0  0  0  0
 11 10  1  0  0  0  0
 12 11  2  0  0  0  0
 13 12  1  0  0  0  0
  1 13  2  0  0  0  0
M  END
> <ChemID>
100201

> <CAS>
132-64-9

> <Original_SMILES>
c1cccc2oc3ccccc3c21

> <preferred_name>
Dibenzofuran

> <dsstox_substance_id>
DTXSID2021993

> <dsstox_compound_id>
DTXCID801993

> <qc_level>
DSSTox_Low

> <Canonical_QSARr>
C1=CC=CC2OC3=CC=CC=C3C=21

> <InChI_Code_QSARr>
InChI=1S/C12H8O/c1-3-7-11-9(5-1)10-6-2-4-8-12(10)13-11/h1-8H

> <InChI Key_QSARr>
TXCDCPKCNAJMEE-UHFFFAOYSA-N

> <Salt_Solvent>


> <Salt_Solvent_ID>
0

> <MPID>
101834

> <LogKmHL>
1.35

> <Tr_1_Tst_0>
1

$$$$
100202
  Mrv171c012251910542D          

 13 15  0  0  0  0            999 V2000
    2.6771   -0.4818    0.0000 C   0  0  0  0  0  0  0  0  0  0  0  0
    3.4841   -0.3102    0.0000 C   0  0  0  0  0  0  0  0  0  0  0  0
    4.0361   -0.9233    0.0000 C   0  0  0  0  0  0  0  0  0  0  0  0
    3.7812   -1.7080    0.0000 C   0  0  0  0  0  0  0  0  0  0  0  0
    2.9742   -1.8795    0.0000 C   0  0  0  0  0  0  0  0  0  0  0  0
    2.4221   -1.2664    0.0000 C   0  0  0  0  0  0  0  0  0  0  0  0
    1.5971   -1.2664    0.0000 C   0  0  0  0  0  0  0  0  0  0  0  0
    1.0451   -1.8795    0.0000 C   0  0  0  0  0  0  0  0  0  0  0  0
    0.2381   -1.7080    0.0000 C   0  0  0  0  0  0  0  0  0  0  0  0
   -0.0168   -0.9233    0.0000 C   0  0  0  0  0  0  0  0  0  0  0  0
    0.5352   -0.3102    0.0000 C   0  0  0  0  0  0  0  0  0  0  0  0
    1.3422   -0.4818    0.0000 C   0  0  0  0  0  0  0  0  0  0  0  0
    2.0096    0.0032    0.0000 S   0  0  0  0  0  0  0  0  0  0  0  0
  2  1  1  0  0  0  0
  3  2  2  0  0  0  0
  4  3  1  0  0  0  0
  5  4  2  0  0  0  0
  6  5  1  0  0  0  0
  6  1  2  0  0  0  0
  7  6  1  0  0  0  0
  7  8  1  0  0  0  0
  8  9  2  0  0  0  0
  9 10  1  0  0  0  0
 10 11  2  0  0  0  0
 11 12  1  0  0  0  0
 12  7  2  0  0  0  0
 13 12  1  0  0  0  0
  1 13  1  0  0  0  0
M  END
> <ChemID>
100202

> <CAS>
132-65-0

> <Original_SMILES>
c1cccc2[s]c3ccccc3c21

> <preferred_name>
Dibenzothiophene

> <dsstox_substance_id>
DTXSID0047741

> <dsstox_compound_id>
DTXCID0027725

> <qc_level>
DSSTox_Low

> <Canonical_QSARr>
C1=CC=CC2SC3C=CC=CC=3C=21

> <InChI_Code_QSARr>
InChI=1S/C12H8S/c1-3-7-11-9(5-1)10-6-2-4-8-12(10)13-11/h1-8H

> <InChI Key_QSARr>
IYYZUPMFVPLQIF-UHFFFAOYSA-N

> <Salt_Solvent>


> <Salt_Solvent_ID>
0

> <MPID>
101835

> <LogKmHL>
0.83

> <Tr_1_Tst_0>
1

$$$$
100203
  Mrv171c012251910542D          

 11 12  0  0  0  0            999 V2000
    1.5577   -0.8473    0.0000 C   0  0  0  0  0  0  0  0  0  0  0  0
    0.8432   -0.4348    0.0000 C   0  0  0  0  0  0  0  0  0  0  0  0
    0.1287   -0.8473    0.0000 C   0  0  0  0  0  0  0  0  0  0  0  0
    0.1287   -1.6723    0.0000 C   0  0  0  0  0  0  0  0  0  0  0  0
    0.8432   -2.0848    0.0000 C   0  0  0  0  0  0  0  0  0  0  0  0
    0.8432   -2.9098    0.0000 N   0  0  0  0  0  0  0  0  0  0  0  0
    1.5577   -1.6723    0.0000 C   0  0  0  0  0  0  0  0  0  0  0  0
    2.2721   -2.0848    0.0000 C   0  0  0  0  0  0  0  0  0  0  0  0
    2.9866   -1.6723    0.0000 C   0  0  0  0  0  0  0  0  0  0  0  0
    2.9866   -0.8473    0.0000 C   0  0  0  0  0  0  0  0  0  0  0  0
    2.2721   -0.4348    0.0000 C   0  0  0  0  0  0  0  0  0  0  0  0
  2  1  1  0  0  0  0
  3  2  2  0  0  0  0
  4  3  1  0  0  0  0
  5  4  2  0  0  0  0
  5  6  1  0  0  0  0
  7  5  1  0  0  0  0
  7  1  2  0  0  0  0
  8  7  1  0  0  0  0
  9  8  2  0  0  0  0
 10  9  1  0  0  0  0
 11 10  2  0  0  0  0
  1 11  1  0  0  0  0
M  END
> <ChemID>
100203

> <CAS>
134-32-7

> <Original_SMILES>
Nc1cccc2ccccc21

> <preferred_name>
1-Naphthylamine

> <dsstox_substance_id>
DTXSID7020920

> <dsstox_compound_id>
DTXCID30920

> <qc_level>
DSSTox_Low

> <Canonical_QSARr>
NC1=CC=CC2C=CC=CC=21

> <InChI_Code_QSARr>
InChI=1S/C10H9N/c11-10-7-3-5-8-4-1-2-6-9(8)10/h1-7H,11H2

> <InChI Key_QSARr>
RUFPHBVGCFYCNW-UHFFFAOYSA-N

> <Salt_Solvent>


> <Salt_Solvent_ID>
0

> <MPID>
101836

> <LogKmHL>
-0.24

> <Tr_1_Tst_0>
1

$$$$
100204
  Mrv171c012251910542D          

 17 19  0  0  0  0            999 V2000
    3.5741   -1.6515    0.0000 C   0  0  0  0  0  0  0  0  0  0  0  0
    2.8596   -1.2390    0.0000 C   0  0  0  0  0  0  0  0  0  0  0  0
    2.1452   -1.6515    0.0000 N   0  0  0  0  0  0  0  0  0  0  0  0
    1.4307   -1.2390    0.0000 C   0  0  0  0  0  0  0  0  0  0  0  0
    1.4307   -0.4140    0.0000 C   0  0  0  0  0  0  0  0  0  0  0  0
    0.7162   -0.0015    0.0000 C   0  0  0  0  0  0  0  0  0  0  0  0
    0.0018   -0.4140    0.0000 C   0  0  0  0  0  0  0  0  0  0  0  0
    0.0018   -1.2390    0.0000 C   0  0  0  0  0  0  0  0  0  0  0  0
    0.7162   -1.6515    0.0000 C   0  0  0  0  0  0  0  0  0  0  0  0
    2.8596   -0.4140    0.0000 C   0  0  0  0  0  0  0  0  0  0  0  0
    3.5741   -0.0015    0.0000 C   0  0  0  0  0  0  0  0  0  0  0  0
    4.2886   -0.4140    0.0000 C   0  0  0  0  0  0  0  0  0  0  0  0
    5.0031   -0.0015    0.0000 C   0  0  0  0  0  0  0  0  0  0  0  0
    5.7175   -0.4140    0.0000 C   0  0  0  0  0  0  0  0  0  0  0  0
    5.7175   -1.2390    0.0000 C   0  0  0  0  0  0  0  0  0  0  0  0
    5.0031   -1.6515    0.0000 C   0  0  0  0  0  0  0  0  0  0  0  0
    4.2886   -1.2390    0.0000 C   0  0  0  0  0  0  0  0  0  0  0  0
  2  1  1  0  0  0  0
  2  3  1  0  0  0  0
  3  4  1  0  0  0  0
  5  4  1  0  0  0  0
  6  5  2  0  0  0  0
  7  6  1  0  0  0  0
  8  7  2  0  0  0  0
  9  8  1  0  0  0  0
  4  9  2  0  0  0  0
 10  2  2  0  0  0  0
 11 10  1  0  0  0  0
 12 11  2  0  0  0  0
 12 13  1  0  0  0  0
 13 14  2  0  0  0  0
 14 15  1  0  0  0  0
 15 16  2  0  0  0  0
 16 17  1  0  0  0  0
  1 17  2  0  0  0  0
 17 12  1  0  0  0  0
M  END
> <ChemID>
100204

> <CAS>
135-88-6

> <Original_SMILES>
c1c(ccc2ccccc21)Nc1ccccc1

> <preferred_name>
N-Phenyl-2-naphthylamine

> <dsstox_substance_id>
DTXSID4021131

> <dsstox_compound_id>
DTXCID601131

> <qc_level>
DSSTox_Low

> <Canonical_QSARr>
C1C(=CC=C2C=CC=CC2=1)NC1C=CC=CC=1

> <InChI_Code_QSARr>
InChI=1S/C16H13N/c1-2-8-15(9-3-1)17-16-11-10-13-6-4-5-7-14(13)12-16/h1-12,17H

> <InChI Key_QSARr>
KEQFTVQCIQJIQW-UHFFFAOYSA-N

> <Salt_Solvent>


> <Salt_Solvent_ID>
0

> <MPID>
101837

> <LogKmHL>
-0.41

> <Tr_1_Tst_0>
0

$$$$
100205
  Mrv171c012251910542D          

 12 11  0  0  0  0            999 V2000
    3.3960   -0.1034    0.0000 S   0  0  0  0  0  0  0  0  0  0  0  0
    3.3960   -0.9284    0.0000 C   0  0  0  0  0  0  0  0  0  0  0  0
    2.6816   -1.3409    0.0000 S   0  0  0  0  0  0  0  0  0  0  0  0
    1.9671   -0.9284    0.0000 S   0  0  0  0  0  0  0  0  0  0  0  0
    1.2526   -1.3409    0.0000 C   0  0  0  0  0  0  0  0  0  0  0  0
    0.5381   -0.9284    0.0000 N   0  0  0  0  0  0  0  0  0  0  0  0
   -0.1763   -1.3409    0.0000 C   0  0  0  0  0  0  0  0  0  0  0  0
    0.5381   -0.1034    0.0000 C   0  0  0  0  0  0  0  0  0  0  0  0
    1.2526   -2.1659    0.0000 S   0  0  0  0  0  0  0  0  0  0  0  0
    4.1105   -1.3409    0.0000 N   0  0  0  0  0  0  0  0  0  0  0  0
    4.8250   -0.9284    0.0000 C   0  0  0  0  0  0  0  0  0  0  0  0
    4.1105   -2.1659    0.0000 C   0  0  0  0  0  0  0  0  0  0  0  0
  1  2  2  0  0  0  0
  2  3  1  0  0  0  0
  3  4  1  0  0  0  0
  4  5  1  0  0  0  0
  5  6  1  0  0  0  0
  6  7  1  0  0  0  0
  6  8  1  0  0  0  0
  5  9  2  0  0  0  0
  2 10  1  0  0  0  0
 10 11  1  0  0  0  0
 10 12  1  0  0  0  0
M  END
> <ChemID>
100205

> <CAS>
137-26-8

> <Original_SMILES>
CN(C)C(=S)SSC(=S)N(C)C

> <preferred_name>
Thiram

> <dsstox_substance_id>
DTXSID5021332

> <dsstox_compound_id>
DTXCID401332

> <qc_level>
DSSTox_Low

> <Canonical_QSARr>
CN(C)C(=S)SSC(=S)N(C)C

> <InChI_Code_QSARr>
InChI=1S/C6H12N2S4/c1-7(2)5(9)11-12-6(10)8(3)4/h1-4H3

> <InChI Key_QSARr>
KUAZQDVKQLNFPE-UHFFFAOYSA-N

> <Salt_Solvent>


> <Salt_Solvent_ID>
0

> <MPID>
101838

> <LogKmHL>
-1.18

> <Tr_1_Tst_0>
1

$$$$
100206
  Mrv171c012251910542D          

 15 15  0  0  0  0            999 V2000
    2.5833   -1.8191    0.0000 C   0  0  0  0  0  0  0  0  0  0  0  0
    3.4083   -1.8191    0.0000 C   0  0  0  0  0  0  0  0  0  0  0  0
    1.7583   -1.8191    0.0000 C   0  0  0  0  0  0  0  0  0  0  0  0
    2.5833   -2.6441    0.0000 C   0  0  0  0  0  0  0  0  0  0  0  0
    1.8689   -3.0566    0.0000 C   0  0  0  0  0  0  0  0  0  0  0  0
    1.1544   -3.4691    0.0000 C   0  0  0  0  0  0  0  0  0  0  0  0
    2.2814   -3.7711    0.0000 C   0  0  0  0  0  0  0  0  0  0  0  0
    1.4564   -2.3421    0.0000 C   0  0  0  0  0  0  0  0  0  0  0  0
    2.5833   -0.9941    0.0000 C   0  0  0  0  0  0  0  0  0  0  0  0
    3.2978   -0.5816    0.0000 C   0  0  0  0  0  0  0  0  0  0  0  0
    3.2978    0.2434    0.0000 C   0  0  0  0  0  0  0  0  0  0  0  0
    2.5833    0.6559    0.0000 C   0  0  0  0  0  0  0  0  0  0  0  0
    2.5833    1.4809    0.0000 O   0  0  0  0  0  0  0  0  0  0  0  0
    1.8689    0.2434    0.0000 C   0  0  0  0  0  0  0  0  0  0  0  0
    1.8689   -0.5816    0.0000 C   0  0  0  0  0  0  0  0  0  0  0  0
  1  2  1  0  0  0  0
  1  3  1  0  0  0  0
  1  4  1  0  0  0  0
  4  5  1  0  0  0  0
  5  6  1  0  0  0  0
  5  7  1  0  0  0  0
  5  8  1  0  0  0  0
  1  9  1  0  0  0  0
 10  9  1  0  0  0  0
 11 10  2  0  0  0  0
 12 11  1  0  0  0  0
 12 13  1  0  0  0  0
 14 12  2  0  0  0  0
 15 14  1  0  0  0  0
  9 15  2  0  0  0  0
M  END
> <ChemID>
100206

> <CAS>
140-66-9

> <Original_SMILES>
CC(C)(C)CC(C)(C)c1ccc(O)cc1

> <preferred_name>
4-(1,1,3,3-Tetramethylbutyl)phenol

> <dsstox_substance_id>
DTXSID9022360

> <dsstox_compound_id>
DTXCID602360

> <qc_level>
DSSTox_Low

> <Canonical_QSARr>
CC(C)(C)CC(C)(C)C1C=CC(O)=CC=1

> <InChI_Code_QSARr>
InChI=1S/C14H22O/c1-13(2,3)10-14(4,5)11-6-8-12(15)9-7-11/h6-9,15H,10H2,1-5H3

> <InChI Key_QSARr>
ISAVYTVYFVQUDY-UHFFFAOYSA-N

> <Salt_Solvent>


> <Salt_Solvent_ID>
0

> <MPID>
101839

> <LogKmHL>
-0.04

> <Tr_1_Tst_0>
1

$$$$
100207
  Mrv171c012251910542D          

 10 10  0  0  0  0            999 V2000
    1.0697   -2.8457    0.0000 C   0  0  0  0  0  0  0  0  0  0  0  0
    1.0697   -2.0207    0.0000 C   0  0  0  0  0  0  0  0  0  0  0  0
    1.7842   -1.6082    0.0000 C   0  0  0  0  0  0  0  0  0  0  0  0
    2.4986   -2.0207    0.0000 C   0  0  0  0  0  0  0  0  0  0  0  0
    3.2131   -1.6082    0.0000 C   0  0  0  0  0  0  0  0  0  0  0  0
    3.2131   -0.7832    0.0000 C   0  0  0  0  0  0  0  0  0  0  0  0
    2.4986   -0.3707    0.0000 C   0  0  0  0  0  0  0  0  0  0  0  0
    2.4986    0.4543    0.0000 C   0  0  0  0  0  0  0  0  0  0  0  0
    1.7842    0.8668    0.0000 C   0  0  0  0  0  0  0  0  0  0  0  0
    1.7842   -0.7832    0.0000 C   0  0  0  0  0  0  0  0  0  0  0  0
  1  2  1  0  0  0  0
  2  3  1  0  0  0  0
  4  3  1  0  0  0  0
  5  4  2  0  0  0  0
  6  5  1  0  0  0  0
  7  6  2  0  0  0  0
  7  8  1  0  0  0  0
  8  9  1  0  0  0  0
 10  7  1  0  0  0  0
  3 10  2  0  0  0  0
M  END
> <ChemID>
100207

> <CAS>
141-93-5

> <Original_SMILES>
CCc1cc(CC)ccc1

> <preferred_name>
1,3-Diethylbenzene

> <dsstox_substance_id>
DTXSID1022003

> <dsstox_compound_id>
DTXCID402003

> <qc_level>
DSSTox_Low

> <Canonical_QSARr>
CCC1C=C(CC)C=CC=1

> <InChI_Code_QSARr>
InChI=1S/C10H14/c1-3-9-6-5-7-10(4-2)8-9/h5-8H,3-4H2,1-2H3

> <InChI Key_QSARr>
AFZZYIJIWUTJFO-UHFFFAOYSA-N

> <Salt_Solvent>


> <Salt_Solvent_ID>
0

> <MPID>
101840

> <LogKmHL>
0.09

> <Tr_1_Tst_0>
1

$$$$
100208
  Mrv171c012251910542D          

  9  8  0  0  0  0            999 V2000
    0.0017   -0.0454    0.0000 C   0  0  0  0  0  0  0  0  0  0  0  0
    0.7161   -0.4579    0.0000 C   0  0  0  0  0  0  0  0  0  0  0  0
    1.4306   -0.0454    0.0000 C   0  0  0  0  0  0  0  0  0  0  0  0
    2.1451   -0.4579    0.0000 C   0  0  0  0  0  0  0  0  0  0  0  0
    2.8595   -0.0454    0.0000 O   0  0  0  0  0  0  0  0  0  0  0  0
    3.5740   -0.4579    0.0000 C   0  0  0  0  0  0  0  0  0  0  0  0
    4.2885   -0.0454    0.0000 C   0  0  0  0  0  0  0  0  0  0  0  0
    5.0030   -0.4579    0.0000 C   0  0  0  0  0  0  0  0  0  0  0  0
    5.7174   -0.0454    0.0000 C   0  0  0  0  0  0  0  0  0  0  0  0
  1  2  1  0  0  0  0
  2  3  1  0  0  0  0
  3  4  1  0  0  0  0
  4  5  1  0  0  0  0
  5  6  1  0  0  0  0
  6  7  1  0  0  0  0
  7  8  1  0  0  0  0
  8  9  1  0  0  0  0
M  END
> <ChemID>
100208

> <CAS>
142-96-1

> <Original_SMILES>
CCCCOCCCC

> <preferred_name>
Butyl ether

> <dsstox_substance_id>
DTXSID1022007

> <dsstox_compound_id>
DTXCID002007

> <qc_level>
DSSTox_Low

> <Canonical_QSARr>
CCCCOCCCC

> <InChI_Code_QSARr>
InChI=1S/C8H18O/c1-3-5-7-9-8-6-4-2/h3-8H2,1-2H3

> <InChI Key_QSARr>
DURPTKYDGMDSBL-UHFFFAOYSA-N

> <Salt_Solvent>


> <Salt_Solvent_ID>
0

> <MPID>
101841

> <LogKmHL>
-0.25

> <Tr_1_Tst_0>
0

$$$$
100209
  Mrv171c012251910542D          

 10  9  0  0  0  0            999 V2000
    1.1841    0.0590    0.0000 C   0  0  0  0  0  0  0  0  0  0  0  0
    1.5966    0.7735    0.0000 O   0  0  0  0  0  0  0  0  0  0  0  0
    1.5966   -0.6554    0.0000 C   0  0  0  0  0  0  0  0  0  0  0  0
    0.8822   -1.0679    0.0000 C   0  0  0  0  0  0  0  0  0  0  0  0
    2.3111   -0.2429    0.0000 C   0  0  0  0  0  0  0  0  0  0  0  0
    2.0091   -1.3699    0.0000 C   0  0  0  0  0  0  0  0  0  0  0  0
    2.8341   -1.3699    0.0000 O   0  0  0  0  0  0  0  0  0  0  0  0
    1.5966   -2.0844    0.0000 C   0  0  0  0  0  0  0  0  0  0  0  0
    2.0091   -2.7989    0.0000 C   0  0  0  0  0  0  0  0  0  0  0  0
    0.7716   -2.0844    0.0000 C   0  0  0  0  0  0  0  0  0  0  0  0
  1  2  1  0  0  0  0
  1  3  1  0  0  0  0
  3  4  1  0  0  0  0
  3  5  1  0  0  0  0
  3  6  1  0  0  0  0
  6  7  1  0  0  0  0
  6  8  1  0  0  0  0
  8  9  1  0  0  0  0
  8 10  1  0  0  0  0
M  END
> <ChemID>
100209

> <CAS>
144-19-4

> <Original_SMILES>
CC(C)C(O)C(C)(C)CO

> <preferred_name>
2,2,4-Trimethyl-1,3-pentanediol

> <dsstox_substance_id>
DTXSID8027113

> <dsstox_compound_id>
DTXCID407113

> <qc_level>
DSSTox_Low

> <Canonical_QSARr>
CC(C)C(O)C(C)(C)CO

> <InChI_Code_QSARr>
InChI=1S/C8H18O2/c1-6(2)7(10)8(3,4)5-9/h6-7,9-10H,5H2,1-4H3

> <InChI Key_QSARr>
JCTXKRPTIMZBJT-UHFFFAOYSA-N

> <Salt_Solvent>


> <Salt_Solvent_ID>
0

> <MPID>
101842

> <LogKmHL>
-1.34

> <Tr_1_Tst_0>
1

$$$$
100210
  Mrv171c012251910542D          

 10 10  0  0  0  0            999 V2000
    2.5326   -1.7271    0.0000 O   0  0  0  0  0  0  0  0  0  0  0  0
    1.8182   -2.1396    0.0000 C   0  0  0  0  0  0  0  0  0  0  0  0
    1.8182   -2.9646    0.0000 C   0  0  0  0  0  0  0  0  0  0  0  0
    2.5326   -0.9021    0.0000 C   0  0  0  0  0  0  0  0  0  0  0  0
    3.2471   -0.4896    0.0000 C   0  0  0  0  0  0  0  0  0  0  0  0
    3.2471    0.3354    0.0000 C   0  0  0  0  0  0  0  0  0  0  0  0
    2.5326    0.7479    0.0000 C   0  0  0  0  0  0  0  0  0  0  0  0
    2.5326    1.5729    0.0000 N   0  0  0  0  0  0  0  0  0  0  0  0
    1.8182    0.3354    0.0000 C   0  0  0  0  0  0  0  0  0  0  0  0
    1.8182   -0.4896    0.0000 C   0  0  0  0  0  0  0  0  0  0  0  0
  1  2  1  0  0  0  0
  2  3  1  0  0  0  0
  1  4  1  0  0  0  0
  5  4  1  0  0  0  0
  6  5  2  0  0  0  0
  7  6  1  0  0  0  0
  7  8  1  0  0  0  0
  9  7  2  0  0  0  0
 10  9  1  0  0  0  0
  4 10  2  0  0  0  0
M  END
> <ChemID>
100210

> <CAS>
156-43-4

> <Original_SMILES>
CCOc1ccc(N)cc1

> <preferred_name>
4-Ethoxyaniline

> <dsstox_substance_id>
DTXSID0025864

> <dsstox_compound_id>
DTXCID505864

> <qc_level>
DSSTox_Low

> <Canonical_QSARr>
CCOC1C=CC(N)=CC=1

> <InChI_Code_QSARr>
InChI=1S/C8H11NO/c1-2-10-8-5-3-7(9)4-6-8/h3-6H,2,9H2,1H3

> <InChI Key_QSARr>
IMPPGHMHELILKG-UHFFFAOYSA-N

> <Salt_Solvent>


> <Salt_Solvent_ID>
0

> <MPID>
101843

> <LogKmHL>
-1.24

> <Tr_1_Tst_0>
1

$$$$
100211
  Mrv171c012251910542D          

 20 24  0  0  0  0            999 V2000
    1.3495   -1.8440    0.0000 C   0  0  0  0  0  0  0  0  0  0  0  0
    0.6351   -2.2565    0.0000 C   0  0  0  0  0  0  0  0  0  0  0  0
   -0.0794   -1.8440    0.0000 C   0  0  0  0  0  0  0  0  0  0  0  0
   -0.0794   -1.0190    0.0000 C   0  0  0  0  0  0  0  0  0  0  0  0
    0.6351   -0.6065    0.0000 C   0  0  0  0  0  0  0  0  0  0  0  0
    0.6351    0.2185    0.0000 C   0  0  0  0  0  0  0  0  0  0  0  0
    1.3495    0.6310    0.0000 C   0  0  0  0  0  0  0  0  0  0  0  0
    2.0640    0.2185    0.0000 C   0  0  0  0  0  0  0  0  0  0  0  0
    2.0640   -0.6065    0.0000 C   0  0  0  0  0  0  0  0  0  0  0  0
    2.7785   -1.0190    0.0000 C   0  0  0  0  0  0  0  0  0  0  0  0
    2.7785   -1.8440    0.0000 C   0  0  0  0  0  0  0  0  0  0  0  0
    3.4929   -2.2565    0.0000 C   0  0  0  0  0  0  0  0  0  0  0  0
    3.4929   -3.0815    0.0000 C   0  0  0  0  0  0  0  0  0  0  0  0
    2.7785   -3.4940    0.0000 C   0  0  0  0  0  0  0  0  0  0  0  0
    2.0640   -3.0815    0.0000 C   0  0  0  0  0  0  0  0  0  0  0  0
    2.0640   -2.2565    0.0000 C   0  0  0  0  0  0  0  0  0  0  0  0
    4.2074   -1.8440    0.0000 C   0  0  0  0  0  0  0  0  0  0  0  0
    4.2074   -1.0190    0.0000 C   0  0  0  0  0  0  0  0  0  0  0  0
    3.4929   -0.6065    0.0000 C   0  0  0  0  0  0  0  0  0  0  0  0
    1.3495   -1.0190    0.0000 C   0  0  0  0  0  0  0  0  0  0  0  0
  2  1  2  0  0  0  0
  3  2  1  0  0  0  0
  4  3  2  0  0  0  0
  5  4  1  0  0  0  0
  5  6  1  0  0  0  0
  6  7  2  0  0  0  0
  7  8  1  0  0  0  0
  8  9  2  0  0  0  0
  9 10  1  0  0  0  0
 11 10  1  0  0  0  0
 11 12  2  0  0  0  0
 12 13  1  0  0  0  0
 13 14  2  0  0  0  0
 14 15  1  0  0  0  0
 15 16  2  0  0  0  0
 16  1  1  0  0  0  0
 16 11  1  0  0  0  0
 17 12  1  0  0  0  0
 18 17  2  0  0  0  0
 19 18  1  0  0  0  0
 10 19  2  0  0  0  0
  9 20  1  0  0  0  0
  1 20  1  0  0  0  0
 20  5  2  0  0  0  0
M  END
> <ChemID>
100211

> <CAS>
198-55-0

> <Original_SMILES>
c1ccc2c3c(cccc31)c1cccc3cccc2c31

> <preferred_name>
Perylene

> <dsstox_substance_id>
DTXSID4047753

> <dsstox_compound_id>
DTXCID9027736

> <qc_level>
DSSTox_Low

> <Canonical_QSARr>
C1=CC=C2C3C(=CC=CC=31)C1=CC=CC3C=CC=C2C=31

> <InChI_Code_QSARr>
InChI=1S/C20H12/c1-5-13-6-2-11-17-18-12-4-8-14-7-3-10-16(20(14)18)15(9-1)19(13)17/h1-12H

> <InChI Key_QSARr>
CSHWQDPOILHKBI-UHFFFAOYSA-N

> <Salt_Solvent>


> <Salt_Solvent_ID>
0

> <MPID>
101844

> <LogKmHL>
-0.06

> <Tr_1_Tst_0>
1

$$$$
100212
  Mrv171c012251910542D          

 16 19  0  0  0  0            999 V2000
    1.7518   -1.4991    0.0000 C   0  0  0  0  0  0  0  0  0  0  0  0
    2.0068   -2.2837    0.0000 C   0  0  0  0  0  0  0  0  0  0  0  0
    2.8318   -2.2837    0.0000 C   0  0  0  0  0  0  0  0  0  0  0  0
    3.0867   -1.4991    0.0000 C   0  0  0  0  0  0  0  0  0  0  0  0
    2.4193   -1.0142    0.0000 C   0  0  0  0  0  0  0  0  0  0  0  0
    2.3330   -0.1937    0.0000 C   0  0  0  0  0  0  0  0  0  0  0  0
    1.5794    0.1419    0.0000 C   0  0  0  0  0  0  0  0  0  0  0  0
    0.9119   -0.3430    0.0000 C   0  0  0  0  0  0  0  0  0  0  0  0
    0.9449   -1.3276    0.0000 C   0  0  0  0  0  0  0  0  0  0  0  0
    0.3928   -1.9407    0.0000 C   0  0  0  0  0  0  0  0  0  0  0  0
    0.6478   -2.7253    0.0000 C   0  0  0  0  0  0  0  0  0  0  0  0
    1.4547   -2.8968    0.0000 C   0  0  0  0  0  0  0  0  0  0  0  0
    3.8937   -1.3276    0.0000 C   0  0  0  0  0  0  0  0  0  0  0  0
    4.4457   -1.9407    0.0000 C   0  0  0  0  0  0  0  0  0  0  0  0
    4.1908   -2.7253    0.0000 C   0  0  0  0  0  0  0  0  0  0  0  0
    3.3838   -2.8968    0.0000 C   0  0  0  0  0  0  0  0  0  0  0  0
  2  1  1  0  0  0  0
  2  3  1  0  0  0  0
  4  3  2  0  0  0  0
  4  5  1  0  0  0  0
  5  1  2  0  0  0  0
  5  6  1  0  0  0  0
  6  7  2  0  0  0  0
  7  8  1  0  0  0  0
  8  9  2  0  0  0  0
  1  9  1  0  0  0  0
  9 10  1  0  0  0  0
 10 11  2  0  0  0  0
 11 12  1  0  0  0  0
 12  2  2  0  0  0  0
 13  4  1  0  0  0  0
 14 13  2  0  0  0  0
 15 14  1  0  0  0  0
 16 15  2  0  0  0  0
  3 16  1  0  0  0  0
M  END
> <ChemID>
100212

> <CAS>
206-44-0

> <Original_SMILES>
c1ccc2c3c(cccc31)-c1ccccc1-2

> <preferred_name>
Fluoranthene

> <dsstox_substance_id>
DTXSID3024104

> <dsstox_compound_id>
DTXCID204104

> <qc_level>
DSSTox_Low

> <Canonical_QSARr>
C1=CC=C2C3=C(C=CC=C31)C1C=CC=CC=12

> <InChI_Code_QSARr>
InChI=1S/C16H10/c1-2-8-13-12(7-1)14-9-3-5-11-6-4-10-15(13)16(11)14/h1-10H

> <InChI Key_QSARr>
GVEPBJHOBDJJJI-UHFFFAOYSA-N

> <Salt_Solvent>


> <Salt_Solvent_ID>
0

> <MPID>
101845

> <LogKmHL>
-0.02

> <Tr_1_Tst_0>
0

$$$$
100213
  Mrv171c012251910542D          

 20 24  0  0  0  0            999 V2000
    2.2055   -1.1779    0.0000 C   0  0  0  0  0  0  0  0  0  0  0  0
    1.3841   -1.1007    0.0000 C   0  0  0  0  0  0  0  0  0  0  0  0
    0.9066   -1.7735    0.0000 C   0  0  0  0  0  0  0  0  0  0  0  0
    1.2504   -2.5234    0.0000 C   0  0  0  0  0  0  0  0  0  0  0  0
    2.0718   -2.6006    0.0000 C   0  0  0  0  0  0  0  0  0  0  0  0
    2.5493   -1.9278    0.0000 C   0  0  0  0  0  0  0  0  0  0  0  0
    3.3688   -1.8326    0.0000 C   0  0  0  0  0  0  0  0  0  0  0  0
    3.9880   -2.3778    0.0000 C   0  0  0  0  0  0  0  0  0  0  0  0
    4.7697   -2.1142    0.0000 C   0  0  0  0  0  0  0  0  0  0  0  0
    5.3889   -2.6595    0.0000 C   0  0  0  0  0  0  0  0  0  0  0  0
    6.1706   -2.3959    0.0000 C   0  0  0  0  0  0  0  0  0  0  0  0
    6.3332   -1.5871    0.0000 C   0  0  0  0  0  0  0  0  0  0  0  0
    5.7141   -1.0418    0.0000 C   0  0  0  0  0  0  0  0  0  0  0  0
    4.9323   -1.3054    0.0000 C   0  0  0  0  0  0  0  0  0  0  0  0
    4.3132   -0.7602    0.0000 C   0  0  0  0  0  0  0  0  0  0  0  0
    3.5314   -1.0237    0.0000 C   0  0  0  0  0  0  0  0  0  0  0  0
    2.8125   -0.6191    0.0000 C   0  0  0  0  0  0  0  0  0  0  0  0
    2.6320    0.1859    0.0000 C   0  0  0  0  0  0  0  0  0  0  0  0
    1.8447    0.4322    0.0000 C   0  0  0  0  0  0  0  0  0  0  0  0
    1.2377   -0.1266    0.0000 C   0  0  0  0  0  0  0  0  0  0  0  0
  2  1  1  0  0  0  0
  2  3  2  0  0  0  0
  3  4  1  0  0  0  0
  4  5  2  0  0  0  0
  5  6  1  0  0  0  0
  6  1  2  0  0  0  0
  6  7  1  0  0  0  0
  8  7  1  0  0  0  0
  9  8  2  0  0  0  0
  9 10  1  0  0  0  0
 10 11  2  0  0  0  0
 11 12  1  0  0  0  0
 12 13  2  0  0  0  0
 13 14  1  0  0  0  0
 14  9  1  0  0  0  0
 15 14  2  0  0  0  0
 16 15  1  0  0  0  0
  7 16  2  0  0  0  0
 16 17  1  0  0  0  0
  1 17  1  0  0  0  0
 17 18  2  0  0  0  0
 18 19  1  0  0  0  0
 19 20  2  0  0  0  0
 20  2  1  0  0  0  0
M  END
> <ChemID>
100213

> <CAS>
207-08-9

> <Original_SMILES>
c1c2-c3cccc4cccc(c43)-c2cc2ccccc21

> <preferred_name>
Benzo(k)fluoranthene

> <dsstox_substance_id>
DTXSID0023909

> <dsstox_compound_id>
DTXCID703909

> <qc_level>
DSSTox_Low

> <Canonical_QSARr>
C1C2C3C=CC=C4C=CC=C(C4=3)C=2C=C2C=CC=CC2=1

> <InChI_Code_QSARr>
InChI=1S/C20H12/c1-2-6-15-12-19-17-10-4-8-13-7-3-9-16(20(13)17)18(19)11-14(15)5-1/h1-12H

> <InChI Key_QSARr>
HAXBIWFMXWRORI-UHFFFAOYSA-N

> <Salt_Solvent>


> <Salt_Solvent_ID>
0

> <MPID>
101846

> <LogKmHL>
-0.06

> <Tr_1_Tst_0>
1

$$$$
100214
  Mrv171c012251910542D          

 12 14  0  0  0  0            999 V2000
    1.0219   -0.0469    0.0000 C   0  0  0  0  0  0  0  0  0  0  0  0
    0.7670   -0.8315    0.0000 C   0  0  0  0  0  0  0  0  0  0  0  0
    1.4344   -1.3165    0.0000 C   0  0  0  0  0  0  0  0  0  0  0  0
    1.3482   -2.1369    0.0000 C   0  0  0  0  0  0  0  0  0  0  0  0
    0.5945   -2.4725    0.0000 C   0  0  0  0  0  0  0  0  0  0  0  0
   -0.0729   -1.9876    0.0000 C   0  0  0  0  0  0  0  0  0  0  0  0
    0.0133   -1.1671    0.0000 C   0  0  0  0  0  0  0  0  0  0  0  0
    2.2743   -2.4725    0.0000 C   0  0  0  0  0  0  0  0  0  0  0  0
    2.9418   -1.9876    0.0000 C   0  0  0  0  0  0  0  0  0  0  0  0
    2.8555   -1.1671    0.0000 C   0  0  0  0  0  0  0  0  0  0  0  0
    2.1019   -0.8315    0.0000 C   0  0  0  0  0  0  0  0  0  0  0  0
    1.8469   -0.0469    0.0000 C   0  0  0  0  0  0  0  0  0  0  0  0
  2  1  1  0  0  0  0
  2  3  2  0  0  0  0
  3  4  1  0  0  0  0
  4  5  2  0  0  0  0
  5  6  1  0  0  0  0
  6  7  2  0  0  0  0
  7  2  1  0  0  0  0
  4  8  1  0  0  0  0
  8  9  2  0  0  0  0
  9 10  1  0  0  0  0
 10 11  2  0  0  0  0
 11  3  1  0  0  0  0
 12 11  1  0  0  0  0
  1 12  2  0  0  0  0
M  END
> <ChemID>
100214

> <CAS>
208-96-8

> <Original_SMILES>
c1ccc2C=Cc3cccc1c32

> <preferred_name>
Acenaphthylene

> <dsstox_substance_id>
DTXSID3023845

> <dsstox_compound_id>
DTXCID103845

> <qc_level>
DSSTox_Low

> <Canonical_QSARr>
C1=CC=C2C=CC=C3C=CC1=C32

> <InChI_Code_QSARr>
InChI=1S/C12H8/c1-3-9-4-2-6-11-8-7-10(5-1)12(9)11/h1-8H

> <InChI Key_QSARr>
HXGDTGSAIMULJN-UHFFFAOYSA-N

> <Salt_Solvent>


> <Salt_Solvent_ID>
0

> <MPID>
101847

> <LogKmHL>
0.52

> <Tr_1_Tst_0>
1

$$$$
100215
  Mrv171c012251910542D          

 22 26  0  0  0  0            999 V2000
    5.2536   -0.1315    0.0000 C   0  0  0  0  0  0  0  0  0  0  0  0
    5.4517   -0.9324    0.0000 C   0  0  0  0  0  0  0  0  0  0  0  0
    6.2444   -1.1612    0.0000 C   0  0  0  0  0  0  0  0  0  0  0  0
    6.8389   -0.5892    0.0000 C   0  0  0  0  0  0  0  0  0  0  0  0
    7.6315   -0.8180    0.0000 C   0  0  0  0  0  0  0  0  0  0  0  0
    8.2260   -0.2459    0.0000 C   0  0  0  0  0  0  0  0  0  0  0  0
    8.0278    0.5549    0.0000 C   0  0  0  0  0  0  0  0  0  0  0  0
    7.2352    0.7837    0.0000 C   0  0  0  0  0  0  0  0  0  0  0  0
    6.6407    0.2117    0.0000 C   0  0  0  0  0  0  0  0  0  0  0  0
    5.8481    0.4405    0.0000 C   0  0  0  0  0  0  0  0  0  0  0  0
    5.6499    1.2413    0.0000 C   0  0  0  0  0  0  0  0  0  0  0  0
    4.8573    1.4702    0.0000 C   0  0  0  0  0  0  0  0  0  0  0  0
    4.2628    0.8981    0.0000 C   0  0  0  0  0  0  0  0  0  0  0  0
    3.4702    1.1269    0.0000 C   0  0  0  0  0  0  0  0  0  0  0  0
    2.8757    0.5549    0.0000 C   0  0  0  0  0  0  0  0  0  0  0  0
    2.0831    0.7837    0.0000 C   0  0  0  0  0  0  0  0  0  0  0  0
    1.4886    0.2117    0.0000 C   0  0  0  0  0  0  0  0  0  0  0  0
    1.6867   -0.5892    0.0000 C   0  0  0  0  0  0  0  0  0  0  0  0
    2.4794   -0.8180    0.0000 C   0  0  0  0  0  0  0  0  0  0  0  0
    3.0738   -0.2459    0.0000 C   0  0  0  0  0  0  0  0  0  0  0  0
    3.8665   -0.4748    0.0000 C   0  0  0  0  0  0  0  0  0  0  0  0
    4.4610    0.0973    0.0000 C   0  0  0  0  0  0  0  0  0  0  0  0
  2  1  1  0  0  0  0
  3  2  2  0  0  0  0
  4  3  1  0  0  0  0
  4  5  2  0  0  0  0
  5  6  1  0  0  0  0
  6  7  2  0  0  0  0
  7  8  1  0  0  0  0
  8  9  2  0  0  0  0
  9  4  1  0  0  0  0
 10  9  1  0  0  0  0
 10  1  2  0  0  0  0
 11 10  1  0  0  0  0
 12 11  2  0  0  0  0
 13 12  1  0  0  0  0
 13 14  2  0  0  0  0
 14 15  1  0  0  0  0
 16 15  2  0  0  0  0
 17 16  1  0  0  0  0
 18 17  2  0  0  0  0
 19 18  1  0  0  0  0
 20 19  2  0  0  0  0
 15 20  1  0  0  0  0
 20 21  1  0  0  0  0
 21 22  2  0  0  0  0
  1 22  1  0  0  0  0
 22 13  1  0  0  0  0
M  END
> <ChemID>
100215

> <CAS>
214-17-5

> <Original_SMILES>
c1c2c3ccc4ccccc4c3ccc2cc2ccccc21

> <preferred_name>
Benzo(b)chrysene

> <dsstox_substance_id>
DTXSID80175664

> <dsstox_compound_id>
DTXCID3098155

> <qc_level>
Public_Medium

> <Canonical_QSARr>
C1=C2C3C=CC4=CC=CC=C4C=3C=CC2=CC2=CC=CC=C21

> <InChI_Code_QSARr>
InChI=1S/C22H14/c1-2-7-17-14-22-18(13-16(17)6-1)10-12-20-19-8-4-3-5-15(19)9-11-21(20)22/h1-14H

> <InChI Key_QSARr>
YYGRIGYJXSQDQB-UHFFFAOYSA-N

> <Salt_Solvent>


> <Salt_Solvent_ID>
0

> <MPID>
101848

> <LogKmHL>
0.58

> <Tr_1_Tst_0>
1

$$$$
100216
  Mrv171c012251910542D          

 18 21  0  0  0  0            999 V2000
   -0.6039    0.6039    0.0000 C   0  0  0  0  0  0  0  0  0  0  0  0
   -1.0164    1.3184    0.0000 C   0  0  0  0  0  0  0  0  0  0  0  0
   -0.6039    2.0329    0.0000 C   0  0  0  0  0  0  0  0  0  0  0  0
    0.2211    2.0329    0.0000 C   0  0  0  0  0  0  0  0  0  0  0  0
    0.6336    1.3184    0.0000 C   0  0  0  0  0  0  0  0  0  0  0  0
    0.2211    0.6039    0.0000 C   0  0  0  0  0  0  0  0  0  0  0  0
    0.6336   -0.1105    0.0000 C   0  0  0  0  0  0  0  0  0  0  0  0
    1.4586   -0.1105    0.0000 C   0  0  0  0  0  0  0  0  0  0  0  0
    1.8711   -0.8250    0.0000 C   0  0  0  0  0  0  0  0  0  0  0  0
    1.4586   -1.5395    0.0000 C   0  0  0  0  0  0  0  0  0  0  0  0
    0.6336   -1.5395    0.0000 C   0  0  0  0  0  0  0  0  0  0  0  0
    0.2211   -0.8250    0.0000 C   0  0  0  0  0  0  0  0  0  0  0  0
   -0.6039   -0.8250    0.0000 C   0  0  0  0  0  0  0  0  0  0  0  0
   -1.0164   -1.5395    0.0000 C   0  0  0  0  0  0  0  0  0  0  0  0
   -1.8414   -1.5395    0.0000 C   0  0  0  0  0  0  0  0  0  0  0  0
   -2.2539   -0.8250    0.0000 C   0  0  0  0  0  0  0  0  0  0  0  0
   -1.8414   -0.1105    0.0000 C   0  0  0  0  0  0  0  0  0  0  0  0
   -1.0164   -0.1105    0.0000 C   0  0  0  0  0  0  0  0  0  0  0  0
  2  1  2  0  0  0  0
  3  2  1  0  0  0  0
  4  3  2  0  0  0  0
  5  4  1  0  0  0  0
  6  5  2  0  0  0  0
  6  1  1  0  0  0  0
  7  6  1  0  0  0  0
  7  8  2  0  0  0  0
  8  9  1  0  0  0  0
  9 10  2  0  0  0  0
 10 11  1  0  0  0  0
 11 12  2  0  0  0  0
 12  7  1  0  0  0  0
 13 12  1  0  0  0  0
 13 14  2  0  0  0  0
 14 15  1  0  0  0  0
 15 16  2  0  0  0  0
 16 17  1  0  0  0  0
 17 18  2  0  0  0  0
  1 18  1  0  0  0  0
 18 13  1  0  0  0  0
M  END
> <ChemID>
100216

> <CAS>
217-59-4

> <Original_SMILES>
c1cccc2c1c1ccccc1c1ccccc12

> <preferred_name>
Triphenylene

> <dsstox_substance_id>
DTXSID9059757

> <dsstox_compound_id>
DTXCID7036537

> <qc_level>
Public_High

> <Canonical_QSARr>
C1C=CC=C2C=1C1=CC=CC=C1C1=CC=CC=C12

> <InChI_Code_QSARr>
InChI=1S/C18H12/c1-2-8-14-13(7-1)15-9-3-4-11-17(15)18-12-6-5-10-16(14)18/h1-12H

> <InChI Key_QSARr>
SLGBZMMZGDRARJ-UHFFFAOYSA-N

> <Salt_Solvent>


> <Salt_Solvent_ID>
0

> <MPID>
101849

> <LogKmHL>
-0.08

> <Tr_1_Tst_0>
0

$$$$
100217
  Mrv171c012251910542D          

 18 21  0  0  0  0            999 V2000
    2.9488   -1.3848    0.0000 C   0  0  0  0  0  0  0  0  0  0  0  0
    3.7589   -1.2289    0.0000 C   0  0  0  0  0  0  0  0  0  0  0  0
    4.2990   -1.8525    0.0000 C   0  0  0  0  0  0  0  0  0  0  0  0
    5.1091   -1.6966    0.0000 C   0  0  0  0  0  0  0  0  0  0  0  0
    5.3792   -0.9171    0.0000 C   0  0  0  0  0  0  0  0  0  0  0  0
    4.8391   -0.2934    0.0000 C   0  0  0  0  0  0  0  0  0  0  0  0
    4.0290   -0.4493    0.0000 C   0  0  0  0  0  0  0  0  0  0  0  0
    3.4889    0.1743    0.0000 C   0  0  0  0  0  0  0  0  0  0  0  0
    2.6787    0.0184    0.0000 C   0  0  0  0  0  0  0  0  0  0  0  0
    2.4087   -0.7612    0.0000 C   0  0  0  0  0  0  0  0  0  0  0  0
    1.5985   -0.9171    0.0000 C   0  0  0  0  0  0  0  0  0  0  0  0
    1.3285   -1.6966    0.0000 C   0  0  0  0  0  0  0  0  0  0  0  0
    0.5184   -1.8525    0.0000 C   0  0  0  0  0  0  0  0  0  0  0  0
   -0.0217   -1.2289    0.0000 C   0  0  0  0  0  0  0  0  0  0  0  0
    0.2483   -0.4493    0.0000 C   0  0  0  0  0  0  0  0  0  0  0  0
    1.0585   -0.2934    0.0000 C   0  0  0  0  0  0  0  0  0  0  0  0
    1.8686   -2.3203    0.0000 C   0  0  0  0  0  0  0  0  0  0  0  0
    2.6787   -2.1643    0.0000 C   0  0  0  0  0  0  0  0  0  0  0  0
  2  1  1  0  0  0  0
  2  3  1  0  0  0  0
  3  4  2  0  0  0  0
  4  5  1  0  0  0  0
  5  6  2  0  0  0  0
  6  7  1  0  0  0  0
  7  2  2  0  0  0  0
  8  7  1  0  0  0  0
  9  8  2  0  0  0  0
 10  9  1  0  0  0  0
 10  1  2  0  0  0  0
 11 10  1  0  0  0  0
 11 12  2  0  0  0  0
 12 13  1  0  0  0  0
 13 14  2  0  0  0  0
 14 15  1  0  0  0  0
 15 16  2  0  0  0  0
 16 11  1  0  0  0  0
 17 12  1  0  0  0  0
 18 17  2  0  0  0  0
  1 18  1  0  0  0  0
M  END
> <ChemID>
100217

> <CAS>
218-01-9

> <Original_SMILES>
c1cc2c3ccccc3ccc2c2ccccc21

> <preferred_name>
Chrysene

> <dsstox_substance_id>
DTXSID0022432

> <dsstox_compound_id>
DTXCID702432

> <qc_level>
DSSTox_Low

> <Canonical_QSARr>
C1=CC2C3C=CC=CC=3C=CC=2C2C=CC=CC=21

> <InChI_Code_QSARr>
InChI=1S/C18H12/c1-3-7-15-13(5-1)9-11-18-16-8-4-2-6-14(16)10-12-17(15)18/h1-12H

> <InChI Key_QSARr>
WDECIBYCCFPHNR-UHFFFAOYSA-N

> <Salt_Solvent>


> <Salt_Solvent_ID>
0

> <MPID>
101850

> <LogKmHL>
0.59

> <Tr_1_Tst_0>
1

$$$$
100218
  Mrv171c012251910542D          

 22 26  0  0  0  0            999 V2000
    2.3644    0.4125    0.0000 C   0  0  0  0  0  0  0  0  0  0  0  0
    2.7769    1.1270    0.0000 C   0  0  0  0  0  0  0  0  0  0  0  0
    3.6019    1.1270    0.0000 C   0  0  0  0  0  0  0  0  0  0  0  0
    4.0144    0.4125    0.0000 C   0  0  0  0  0  0  0  0  0  0  0  0
    4.8394    0.4125    0.0000 C   0  0  0  0  0  0  0  0  0  0  0  0
    5.2519   -0.3020    0.0000 C   0  0  0  0  0  0  0  0  0  0  0  0
    6.0769   -0.3020    0.0000 C   0  0  0  0  0  0  0  0  0  0  0  0
    6.4894    0.4125    0.0000 C   0  0  0  0  0  0  0  0  0  0  0  0
    6.0769    1.1270    0.0000 C   0  0  0  0  0  0  0  0  0  0  0  0
    5.2519    1.1270    0.0000 C   0  0  0  0  0  0  0  0  0  0  0  0
    4.8394    1.8414    0.0000 C   0  0  0  0  0  0  0  0  0  0  0  0
    4.0144    1.8414    0.0000 C   0  0  0  0  0  0  0  0  0  0  0  0
    3.6019   -0.3020    0.0000 N   0  0  0  0  0  0  0  0  0  0  0  0
    2.7769   -0.3020    0.0000 C   0  0  0  0  0  0  0  0  0  0  0  0
    2.3644   -1.0164    0.0000 C   0  0  0  0  0  0  0  0  0  0  0  0
    1.5394   -1.0164    0.0000 C   0  0  0  0  0  0  0  0  0  0  0  0
    1.1269   -0.3020    0.0000 C   0  0  0  0  0  0  0  0  0  0  0  0
    0.3019   -0.3020    0.0000 C   0  0  0  0  0  0  0  0  0  0  0  0
   -0.1106    0.4125    0.0000 C   0  0  0  0  0  0  0  0  0  0  0  0
    0.3019    1.1270    0.0000 C   0  0  0  0  0  0  0  0  0  0  0  0
    1.1269    1.1270    0.0000 C   0  0  0  0  0  0  0  0  0  0  0  0
    1.5394    0.4125    0.0000 C   0  0  0  0  0  0  0  0  0  0  0  0
  2  1  1  0  0  0  0
  3  2  2  0  0  0  0
  3  4  1  0  0  0  0
  4  5  1  0  0  0  0
  6  5  2  0  0  0  0
  7  6  1  0  0  0  0
  8  7  2  0  0  0  0
  9  8  1  0  0  0  0
 10  9  2  0  0  0  0
  5 10  1  0  0  0  0
 10 11  1  0  0  0  0
 11 12  2  0  0  0  0
 12  3  1  0  0  0  0
 13  4  2  0  0  0  0
 14 13  1  0  0  0  0
 14  1  2  0  0  0  0
 15 14  1  0  0  0  0
 16 15  2  0  0  0  0
 17 16  1  0  0  0  0
 17 18  2  0  0  0  0
 18 19  1  0  0  0  0
 19 20  2  0  0  0  0
 20 21  1  0  0  0  0
 21 22  2  0  0  0  0
  1 22  1  0  0  0  0
 22 17  1  0  0  0  0
M  END
> <ChemID>
100218

> <CAS>
226-36-8

> <Original_SMILES>
c1c2c(ccc3ccccc32)[n]c2c3ccccc3ccc21

> <preferred_name>
Dibenz[a,h]acridine

> <dsstox_substance_id>
DTXSID3059761

> <dsstox_compound_id>
DTXCID9036725

> <qc_level>
Public_High

> <Canonical_QSARr>
C1C2C3=CC=CC=C3C=CC=2N=C2C3=CC=CC=C3C=CC2=1

> <InChI_Code_QSARr>
InChI=1S/C21H13N/c1-3-7-17-14(5-1)11-12-20-19(17)13-16-10-9-15-6-2-4-8-18(15)21(16)22-20/h1-13H

> <InChI Key_QSARr>
JNCSIWAONQTVCF-UHFFFAOYSA-N

> <Salt_Solvent>


> <Salt_Solvent_ID>
0

> <MPID>
101851

> <LogKmHL>
-0.14

> <Tr_1_Tst_0>
1

$$$$
100219
  Mrv171c012251910542D          

 17 20  0  0  0  0            999 V2000
    2.3723   -0.9145    0.0000 C   0  0  0  0  0  0  0  0  0  0  0  0
    2.9915   -0.3693    0.0000 C   0  0  0  0  0  0  0  0  0  0  0  0
    3.7732   -0.6329    0.0000 C   0  0  0  0  0  0  0  0  0  0  0  0
    4.3924   -0.0876    0.0000 C   0  0  0  0  0  0  0  0  0  0  0  0
    5.1742   -0.3512    0.0000 C   0  0  0  0  0  0  0  0  0  0  0  0
    5.3368   -1.1600    0.0000 C   0  0  0  0  0  0  0  0  0  0  0  0
    4.7176   -1.7052    0.0000 C   0  0  0  0  0  0  0  0  0  0  0  0
    3.9359   -1.4417    0.0000 C   0  0  0  0  0  0  0  0  0  0  0  0
    3.3167   -1.9869    0.0000 C   0  0  0  0  0  0  0  0  0  0  0  0
    2.5350   -1.7233    0.0000 C   0  0  0  0  0  0  0  0  0  0  0  0
    1.8160   -2.1279    0.0000 C   0  0  0  0  0  0  0  0  0  0  0  0
    1.2090   -1.5692    0.0000 C   0  0  0  0  0  0  0  0  0  0  0  0
    0.3876   -1.6464    0.0000 C   0  0  0  0  0  0  0  0  0  0  0  0
   -0.0899   -0.9736    0.0000 C   0  0  0  0  0  0  0  0  0  0  0  0
    0.2539   -0.2237    0.0000 C   0  0  0  0  0  0  0  0  0  0  0  0
    1.0753   -0.1465    0.0000 C   0  0  0  0  0  0  0  0  0  0  0  0
    1.5529   -0.8192    0.0000 C   0  0  0  0  0  0  0  0  0  0  0  0
  2  1  1  0  0  0  0
  3  2  2  0  0  0  0
  3  4  1  0  0  0  0
  4  5  2  0  0  0  0
  5  6  1  0  0  0  0
  6  7  2  0  0  0  0
  7  8  1  0  0  0  0
  8  3  1  0  0  0  0
  9  8  2  0  0  0  0
 10  9  1  0  0  0  0
 10  1  2  0  0  0  0
 11 10  1  0  0  0  0
 12 11  1  0  0  0  0
 12 13  2  0  0  0  0
 13 14  1  0  0  0  0
 14 15  2  0  0  0  0
 15 16  1  0  0  0  0
 16 17  2  0  0  0  0
  1 17  1  0  0  0  0
 17 12  1  0  0  0  0
M  END
> <ChemID>
100219

> <CAS>
243-17-4

> <Original_SMILES>
C1c2ccccc2-c2cc3ccccc3cc21

> <preferred_name>
2,3-Benzofluorene

> <dsstox_substance_id>
DTXSID1022477

> <dsstox_compound_id>
DTXCID902477

> <qc_level>
DSSTox_Low

> <Canonical_QSARr>
C1C2=CC=CC=C2C2C=C3C=CC=CC3=CC=21

> <InChI_Code_QSARr>
InChI=1S/C17H12/c1-2-6-13-11-17-15(9-12(13)5-1)10-14-7-3-4-8-16(14)17/h1-9,11H,10H2

> <InChI Key_QSARr>
HAPOJKSPCGLOOD-UHFFFAOYSA-N

> <Salt_Solvent>


> <Salt_Solvent_ID>
0

> <MPID>
101852

> <LogKmHL>
-0.39

> <Tr_1_Tst_0>
1

$$$$
100220
  Mrv171c012251910542D          

 12 12  0  0  0  0            999 V2000
    2.1416   -0.4108    0.0000 C   0  0  0  0  0  0  0  0  0  0  0  0
    1.4271   -0.8233    0.0000 C   0  0  0  0  0  0  0  0  0  0  0  0
    0.7127   -0.4108    0.0000 C   0  0  0  0  0  0  0  0  0  0  0  0
   -0.0018   -0.8233    0.0000 C   0  0  0  0  0  0  0  0  0  0  0  0
   -0.0018   -1.6483    0.0000 C   0  0  0  0  0  0  0  0  0  0  0  0
    0.7127   -2.0608    0.0000 C   0  0  0  0  0  0  0  0  0  0  0  0
    0.7127   -2.8858    0.0000 C   0  0  0  0  0  0  0  0  0  0  0  0
    1.4271   -3.2983    0.0000 C   0  0  0  0  0  0  0  0  0  0  0  0
    2.1416   -2.8858    0.0000 C   0  0  0  0  0  0  0  0  0  0  0  0
    2.1416   -2.0608    0.0000 C   0  0  0  0  0  0  0  0  0  0  0  0
    2.8561   -1.6483    0.0000 C   0  0  0  0  0  0  0  0  0  0  0  0
    2.8561   -0.8233    0.0000 C   0  0  0  0  0  0  0  0  0  0  0  0
  2  1  1  0  0  0  0
  3  2  1  0  0  0  0
  4  3  1  0  0  0  0
  5  4  1  0  0  0  0
  6  5  1  0  0  0  0
  7  6  1  0  0  0  0
  8  7  1  0  0  0  0
  9  8  1  0  0  0  0
 10  9  1  0  0  0  0
 11 10  1  0  0  0  0
 12 11  1  0  0  0  0
  1 12  1  0  0  0  0
M  END
> <ChemID>
100220

> <CAS>
294-62-2

> <Original_SMILES>
C1CCCCCCCCCCC1

> <preferred_name>
Cyclododecane

> <dsstox_substance_id>
DTXSID9021552

> <dsstox_compound_id>
DTXCID401552

> <qc_level>
DSSTox_Low

> <Canonical_QSARr>
C1CCCCCCCCCCC1

> <InChI_Code_QSARr>
InChI=1S/C12H24/c1-2-4-6-8-10-12-11-9-7-5-3-1/h1-12H2

> <InChI Key_QSARr>
DDTBPAQBQHZRDW-UHFFFAOYSA-N

> <Salt_Solvent>


> <Salt_Solvent_ID>
0

> <MPID>
101853

> <LogKmHL>
1.33

> <Tr_1_Tst_0>
0

$$$$
100221
  Mrv171c012251910542D          

 16 16  0  0  0  0            999 V2000
    1.9978   -1.7106    0.0000 S   0  0  0  0  0  0  0  0  0  0  0  0
    2.4103   -2.4251    0.0000 P   0  0  0  0  0  0  0  0  0  0  0  0
    1.6958   -2.8376    0.0000 O   0  0  0  0  0  0  0  0  0  0  0  0
    1.6958   -3.6626    0.0000 C   0  0  0  0  0  0  0  0  0  0  0  0
    2.8228   -3.1396    0.0000 O   0  0  0  0  0  0  0  0  0  0  0  0
    2.4103   -3.8540    0.0000 C   0  0  0  0  0  0  0  0  0  0  0  0
    3.1247   -2.0126    0.0000 O   0  0  0  0  0  0  0  0  0  0  0  0
    3.1247   -1.1876    0.0000 C   0  0  0  0  0  0  0  0  0  0  0  0
    3.8392   -0.7751    0.0000 C   0  0  0  0  0  0  0  0  0  0  0  0
    3.8392    0.0499    0.0000 C   0  0  0  0  0  0  0  0  0  0  0  0
    3.1247    0.4624    0.0000 C   0  0  0  0  0  0  0  0  0  0  0  0
    3.1247    1.2874    0.0000 N   0  3  0  0  0  0  0  0  0  0  0  0
    2.4103    1.6999    0.0000 O   0  5  0  0  0  0  0  0  0  0  0  0
    3.8392    1.6999    0.0000 O   0  0  0  0  0  0  0  0  0  0  0  0
    2.4103    0.0499    0.0000 C   0  0  0  0  0  0  0  0  0  0  0  0
    2.4103   -0.7751    0.0000 C   0  0  0  0  0  0  0  0  0  0  0  0
  1  2  2  0  0  0  0
  2  3  1  0  0  0  0
  3  4  1  0  0  0  0
  2  5  1  0  0  0  0
  5  6  1  0  0  0  0
  2  7  1  0  0  0  0
  7  8  1  0  0  0  0
  9  8  1  0  0  0  0
 10  9  2  0  0  0  0
 11 10  1  0  0  0  0
 11 12  1  0  0  0  0
 12 13  1  0  0  0  0
 12 14  2  0  0  0  0
 15 11  2  0  0  0  0
 16 15  1  0  0  0  0
  8 16  2  0  0  0  0
M  CHG  2  12   1  13  -1
M  END
> <ChemID>
100221

> <CAS>
298-00-0

> <Original_SMILES>
COP(=S)(Oc1ccc(cc1)[N+]([O-])=O)OC

> <preferred_name>
Methyl parathion

> <dsstox_substance_id>
DTXSID1020855

> <dsstox_compound_id>
DTXCID30855

> <qc_level>
DSSTox_Low

> <Canonical_QSARr>
COP(=S)(OC1C=CC(=CC=1)[N+]([O-])=O)OC

> <InChI_Code_QSARr>
InChI=1S/C8H10NO5PS/c1-12-15(16,13-2)14-8-5-3-7(4-6-8)9(10)11/h3-6H,1-2H3

> <InChI Key_QSARr>
RLBIQVVOMOPOHC-UHFFFAOYSA-N

> <Salt_Solvent>


> <Salt_Solvent_ID>
0

> <MPID>
101854

> <LogKmHL>
0.55

> <Tr_1_Tst_0>
1

$$$$
100222
  Mrv171c012251910542D          

 14 13  0  0  0  0            999 V2000
    3.7882   -0.5279    0.0000 C   0  0  0  0  0  0  0  0  0  0  0  0
    3.0737   -0.9404    0.0000 C   0  0  0  0  0  0  0  0  0  0  0  0
    3.0737   -1.7654    0.0000 O   0  0  0  0  0  0  0  0  0  0  0  0
    2.3593   -2.1779    0.0000 P   0  0  0  0  0  0  0  0  0  0  0  0
    1.6448   -2.5904    0.0000 S   0  0  0  0  0  0  0  0  0  0  0  0
    0.9303   -2.1779    0.0000 C   0  0  0  0  0  0  0  0  0  0  0  0
    0.9303   -1.3529    0.0000 C   0  0  0  0  0  0  0  0  0  0  0  0
    0.2158   -0.9404    0.0000 S   0  0  0  0  0  0  0  0  0  0  0  0
    0.2158   -0.1154    0.0000 C   0  0  0  0  0  0  0  0  0  0  0  0
   -0.4986    0.2971    0.0000 C   0  0  0  0  0  0  0  0  0  0  0  0
    1.9468   -1.4634    0.0000 S   0  0  0  0  0  0  0  0  0  0  0  0
    2.7718   -2.8924    0.0000 O   0  0  0  0  0  0  0  0  0  0  0  0
    2.3593   -3.6069    0.0000 C   0  0  0  0  0  0  0  0  0  0  0  0
    1.5343   -3.6069    0.0000 C   0  0  0  0  0  0  0  0  0  0  0  0
  1  2  1  0  0  0  0
  2  3  1  0  0  0  0
  3  4  1  0  0  0  0
  4  5  1  0  0  0  0
  5  6  1  0  0  0  0
  6  7  1  0  0  0  0
  7  8  1  0  0  0  0
  8  9  1  0  0  0  0
  9 10  1  0  0  0  0
  4 11  2  0  0  0  0
  4 12  1  0  0  0  0
 12 13  1  0  0  0  0
 13 14  1  0  0  0  0
M  END
> <ChemID>
100222

> <CAS>
298-04-4

> <Original_SMILES>
CCSCCSP(=S)(OCC)OCC

> <preferred_name>
Disulfoton

> <dsstox_substance_id>
DTXSID0022018

> <dsstox_compound_id>
DTXCID702018

> <qc_level>
DSSTox_Low

> <Canonical_QSARr>
CCSCCSP(=S)(OCC)OCC

> <InChI_Code_QSARr>
InChI=1S/C8H19O2PS3/c1-4-9-11(12,10-5-2)14-8-7-13-6-3/h4-8H2,1-3H3

> <InChI Key_QSARr>
DOFZAZXDOSGAJZ-UHFFFAOYSA-N

> <Salt_Solvent>


> <Salt_Solvent_ID>
0

> <MPID>
101855

> <LogKmHL>
0.03

> <Tr_1_Tst_0>
1

$$$$
100223
  Mrv171c012251910542D          

 16 16  0  0  0  0            999 V2000
    3.5726   -0.8607    0.0000 P   0  0  0  0  0  0  0  0  0  0  0  0
    4.2870   -1.2732    0.0000 O   0  0  0  0  0  0  0  0  0  0  0  0
    5.0015   -0.8607    0.0000 C   0  0  0  0  0  0  0  0  0  0  0  0
    3.9851   -0.1463    0.0000 O   0  0  0  0  0  0  0  0  0  0  0  0
    3.5726    0.5682    0.0000 C   0  0  0  0  0  0  0  0  0  0  0  0
    3.1601   -1.5752    0.0000 S   0  0  0  0  0  0  0  0  0  0  0  0
    2.8581   -0.4482    0.0000 O   0  0  0  0  0  0  0  0  0  0  0  0
    2.1436   -0.8607    0.0000 C   0  0  0  0  0  0  0  0  0  0  0  0
    1.4292   -0.4482    0.0000 C   0  0  0  0  0  0  0  0  0  0  0  0
    1.4292    0.3768    0.0000 Cl  0  0  0  0  0  0  0  0  0  0  0  0
    0.7147   -0.8607    0.0000 C   0  0  0  0  0  0  0  0  0  0  0  0
    0.7147   -1.6857    0.0000 C   0  0  0  0  0  0  0  0  0  0  0  0
    0.0002   -2.0982    0.0000 Cl  0  0  0  0  0  0  0  0  0  0  0  0
    1.4292   -2.0982    0.0000 C   0  0  0  0  0  0  0  0  0  0  0  0
    1.4292   -2.9232    0.0000 Cl  0  0  0  0  0  0  0  0  0  0  0  0
    2.1436   -1.6857    0.0000 C   0  0  0  0  0  0  0  0  0  0  0  0
  1  2  1  0  0  0  0
  2  3  1  0  0  0  0
  1  4  1  0  0  0  0
  4  5  1  0  0  0  0
  1  6  2  0  0  0  0
  1  7  1  0  0  0  0
  7  8  1  0  0  0  0
  9  8  2  0  0  0  0
  9 10  1  0  0  0  0
 11  9  1  0  0  0  0
 12 11  2  0  0  0  0
 12 13  1  0  0  0  0
 14 12  1  0  0  0  0
 14 15  1  0  0  0  0
 16 14  2  0  0  0  0
  8 16  1  0  0  0  0
M  END
> <ChemID>
100223

> <CAS>
299-84-3

> <Original_SMILES>
COP(=S)(Oc1cc(Cl)c(Cl)cc1Cl)OC

> <preferred_name>
Fenchlorphos

> <dsstox_substance_id>
DTXSID2034885

> <dsstox_compound_id>
DTXCID0014885

> <qc_level>
DSSTox_Low

> <Canonical_QSARr>
COP(=S)(OC1C=C(Cl)C(Cl)=CC=1Cl)OC

> <InChI_Code_QSARr>
InChI=1S/C8H8Cl3O3PS/c1-12-15(16,13-2)14-8-4-6(10)5(9)3-7(8)11/h3-4H,1-2H3

> <InChI Key_QSARr>
JHJOOSLFWRRSGU-UHFFFAOYSA-N

> <Salt_Solvent>


> <Salt_Solvent_ID>
0

> <MPID>
101856

> <LogKmHL>
0.95

> <Tr_1_Tst_0>
1

$$$$
100224
  Mrv171c012251910542D          

 18 21  0  0  0  0            999 V2000
   -0.3589    0.4477    0.0000 C   0  0  0  0  0  0  0  0  0  0  0  0
    0.4683    0.8300    0.0000 C   0  0  0  0  0  0  0  0  0  0  0  0
    0.6746    0.0050    0.0000 C   0  0  0  0  0  0  0  0  0  0  0  0
    0.0262    0.8109    0.0000 Cl  0  0  0  0  0  0  0  0  0  0  0  0
    0.0153   -0.8830    0.0000 Cl  0  0  0  0  0  0  0  0  0  0  0  0
    0.4683   -0.8200    0.0000 C   0  0  0  0  0  0  0  0  0  0  0  0
    0.6568   -1.6979    0.0000 Cl  0  0  0  0  0  0  0  0  0  0  0  0
    1.1828   -0.4075    0.0000 C   0  0  0  0  0  0  0  0  0  0  0  0
    1.1828    0.4175    0.0000 C   0  0  0  0  0  0  0  0  0  0  0  0
    1.9390    0.8445    0.0000 Cl  0  0  0  0  0  0  0  0  0  0  0  0
    1.9455   -0.8253    0.0000 Cl  0  0  0  0  0  0  0  0  0  0  0  0
   -0.2462   -0.4075    0.0000 C   0  0  0  0  0  0  0  0  0  0  0  0
   -0.9606   -0.8200    0.0000 C   0  0  0  0  0  0  0  0  0  0  0  0
   -1.1669    0.0050    0.0000 C   0  0  0  0  0  0  0  0  0  0  0  0
   -0.9606    0.8300    0.0000 C   0  0  0  0  0  0  0  0  0  0  0  0
   -1.6751    0.4175    0.0000 C   0  0  0  0  0  0  0  0  0  0  0  0
   -1.6751   -0.4075    0.0000 C   0  0  0  0  0  0  0  0  0  0  0  0
    0.5213    1.7138    0.0000 Cl  0  0  0  0  0  0  0  0  0  0  0  0
  2  1  1  0  0  0  0
  2  3  1  0  0  0  0
  3  4  1  0  0  0  0
  3  5  1  0  0  0  0
  3  6  1  0  0  0  0
  6  7  1  0  0  0  0
  6  8  1  0  0  0  0
  8  9  2  0  0  0  0
  9  2  1  0  0  0  0
  9 10  1  0  0  0  0
  8 11  1  0  0  0  0
 12  6  1  0  0  0  0
 12  1  1  0  0  0  0
 13 12  1  0  0  0  0
 13 14  1  0  0  0  0
 14 15  1  0  0  0  0
  1 15  1  0  0  0  0
 15 16  1  0  0  0  0
 16 17  2  0  0  0  0
 17 13  1  0  0  0  0
  2 18  1  0  0  0  0
M  END
> <ChemID>
100224

> <CAS>
309-00-2

> <Original_SMILES>
ClC1(Cl)[C@@]2(Cl)[C@@H]3[C@@H]4C[C@@H](C=C4)[C@@H]3[C@]1(Cl)C(Cl)=C2Cl

> <preferred_name>
Aldrin

> <dsstox_substance_id>
DTXSID8020040

> <dsstox_compound_id>
DTXCID10819882

> <qc_level>
DSSTox_High

> <Canonical_QSARr>
ClC1(Cl)C2(Cl)C3C4CC(C=C4)C3C1(Cl)C(Cl)=C2Cl

> <InChI_Code_QSARr>
InChI=1S/C12H8Cl6/c13-8-9(14)11(16)7-5-2-1-4(3-5)6(7)10(8,15)12(11,17)18/h1-2,4-7H,3H2

> <InChI Key_QSARr>
QBYJBZPUGVGKQQ-UHFFFAOYSA-N

> <Salt_Solvent>


> <Salt_Solvent_ID>
0

> <MPID>
101857

> <LogKmHL>
1.37

> <Tr_1_Tst_0>
0

$$$$
100225
  Mrv171c012251910542D          

 14 14  0  0  0  0            999 V2000
    1.5310    0.3536    0.0000 N   0  0  0  0  0  0  0  0  0  0  0  0
    0.8165    0.7661    0.0000 C   0  0  0  0  0  0  0  0  0  0  0  0
    0.8165    1.5911    0.0000 O   0  0  0  0  0  0  0  0  0  0  0  0
    0.1021    0.3536    0.0000 N   0  0  0  0  0  0  0  0  0  0  0  0
   -0.6124    0.7661    0.0000 C   0  0  0  0  0  0  0  0  0  0  0  0
   -1.3269    0.3536    0.0000 C   0  0  0  0  0  0  0  0  0  0  0  0
   -2.0413    0.7661    0.0000 C   0  0  0  0  0  0  0  0  0  0  0  0
   -0.6124    1.5911    0.0000 C   0  0  0  0  0  0  0  0  0  0  0  0
    0.1021   -0.4714    0.0000 C   0  0  0  0  0  0  0  0  0  0  0  0
   -0.6124   -0.8839    0.0000 O   0  0  0  0  0  0  0  0  0  0  0  0
    0.8165   -0.8839    0.0000 C   0  0  0  0  0  0  0  0  0  0  0  0
    0.8165   -1.7089    0.0000 Br  0  0  0  0  0  0  0  0  0  0  0  0
    1.5310   -0.4714    0.0000 C   0  0  0  0  0  0  0  0  0  0  0  0
    2.2455   -0.8839    0.0000 C   0  0  0  0  0  0  0  0  0  0  0  0
  2  1  1  0  0  0  0
  2  3  2  0  0  0  0
  4  2  1  0  0  0  0
  4  5  1  0  0  0  0
  5  6  1  0  0  0  0
  6  7  1  0  0  0  0
  5  8  1  0  0  0  0
  9  4  1  0  0  0  0
  9 10  2  0  0  0  0
 11  9  1  0  0  0  0
 11 12  1  0  0  0  0
 13 11  1  0  0  0  0
  1 13  2  0  0  0  0
 13 14  1  0  0  0  0
M  END
> <ChemID>
100225

> <CAS>
314-40-9

> <Original_SMILES>
CC1NC(=O)N(C(C)CC)C(=O)C=1Br

> <preferred_name>
Bromacil

> <dsstox_substance_id>
DTXSID4022020

> <dsstox_compound_id>
DTXCID802020

> <qc_level>
DSSTox_High

> <Canonical_QSARr>
CC1=NC(=O)N(C(C)CC)C(=O)C1Br

> <InChI_Code_QSARr>
InChI=1S/C9H13BrN2O2/c1-4-5(2)12-8(13)7(10)6(3)11-9(12)14/h5,7H,4H2,1-3H3

> <InChI Key_QSARr>
OSOBMCTWSONQHC-UHFFFAOYSA-N

> <Salt_Solvent>


> <Salt_Solvent_ID>
0

> <MPID>
101858

> <LogKmHL>
-1.33

> <Tr_1_Tst_0>
1

$$$$
100229
  Mrv171c012251910542D          

 12 12  0  0  0  0            999 V2000
    2.8510   -0.3495    0.0000 C   0  0  0  0  0  0  0  0  0  0  0  0
    2.1365    0.0630    0.0000 C   0  0  0  0  0  0  0  0  0  0  0  0
    2.1365    0.8880    0.0000 Cl  0  0  0  0  0  0  0  0  0  0  0  0
    1.4220   -0.3495    0.0000 C   0  0  0  0  0  0  0  0  0  0  0  0
    1.4220   -1.1745    0.0000 C   0  0  0  0  0  0  0  0  0  0  0  0
    2.1365   -1.5870    0.0000 C   0  0  0  0  0  0  0  0  0  0  0  0
    2.1365   -2.4120    0.0000 C   0  0  0  0  0  0  0  0  0  0  0  0
    2.1365   -3.2370    0.0000 F   0  0  0  0  0  0  0  0  0  0  0  0
    1.3115   -2.4120    0.0000 F   0  0  0  0  0  0  0  0  0  0  0  0
    2.9615   -2.4120    0.0000 F   0  0  0  0  0  0  0  0  0  0  0  0
    2.8510   -1.1745    0.0000 C   0  0  0  0  0  0  0  0  0  0  0  0
    3.5654   -1.5870    0.0000 Cl  0  0  0  0  0  0  0  0  0  0  0  0
  2  1  1  0  0  0  0
  2  3  1  0  0  0  0
  4  2  2  0  0  0  0
  5  4  1  0  0  0  0
  6  5  2  0  0  0  0
  6  7  1  0  0  0  0
  7  8  1  0  0  0  0
  7  9  1  0  0  0  0
  7 10  1  0  0  0  0
 11  6  1  0  0  0  0
  1 11  2  0  0  0  0
 11 12  1  0  0  0  0
M  END
> <ChemID>
100229

> <CAS>
320-60-5

> <Original_SMILES>
FC(F)(F)c1ccc(Cl)cc1Cl

> <preferred_name>
2,4-Dichlorobenzotrifluoride

> <dsstox_substance_id>
DTXSID0047959

> <dsstox_compound_id>
DTXCID0027935

> <qc_level>
DSSTox_Low

> <Canonical_QSARr>
FC(F)(F)C1=CC=C(Cl)C=C1Cl

> <InChI_Code_QSARr>
InChI=1S/C7H3Cl2F3/c8-4-1-2-5(6(9)3-4)7(10,11)12/h1-3H

> <InChI Key_QSARr>
KALSHRGEFLVFHE-UHFFFAOYSA-N

> <Salt_Solvent>


> <Salt_Solvent_ID>
0

> <MPID>
101862

> <LogKmHL>
1.81

> <Tr_1_Tst_0>
1

$$$$
100230
  Mrv171c012251910542D          

 12 12  0  0  0  0            999 V2000
    2.0755   -1.5482    0.0000 C   0  0  0  0  0  0  0  0  0  0  0  0
    2.7900   -1.1357    0.0000 Cl  0  0  0  0  0  0  0  0  0  0  0  0
    1.3611   -1.1357    0.0000 C   0  0  0  0  0  0  0  0  0  0  0  0
    1.3611   -0.3107    0.0000 Cl  0  0  0  0  0  0  0  0  0  0  0  0
    0.6466   -1.5482    0.0000 C   0  0  0  0  0  0  0  0  0  0  0  0
    0.6466   -2.3732    0.0000 C   0  0  0  0  0  0  0  0  0  0  0  0
   -0.0679   -2.7857    0.0000 C   0  0  0  0  0  0  0  0  0  0  0  0
   -0.7824   -3.1982    0.0000 F   0  0  0  0  0  0  0  0  0  0  0  0
   -0.4804   -2.0712    0.0000 F   0  0  0  0  0  0  0  0  0  0  0  0
    0.3446   -3.5002    0.0000 F   0  0  0  0  0  0  0  0  0  0  0  0
    1.3611   -2.7857    0.0000 C   0  0  0  0  0  0  0  0  0  0  0  0
    2.0755   -2.3732    0.0000 C   0  0  0  0  0  0  0  0  0  0  0  0
  1  2  1  0  0  0  0
  3  1  1  0  0  0  0
  3  4  1  0  0  0  0
  5  3  2  0  0  0  0
  6  5  1  0  0  0  0
  6  7  1  0  0  0  0
  7  8  1  0  0  0  0
  7  9  1  0  0  0  0
  7 10  1  0  0  0  0
 11  6  2  0  0  0  0
 12 11  1  0  0  0  0
  1 12  2  0  0  0  0
M  END
> <ChemID>
100230

> <CAS>
328-84-7

> <Original_SMILES>
FC(F)(F)c1cc(Cl)c(Cl)cc1

> <preferred_name>
1,2-Dichloro-4-(trifluoromethyl)benzene

> <dsstox_substance_id>
DTXSID5027142

> <dsstox_compound_id>
DTXCID907142

> <qc_level>
DSSTox_Low

> <Canonical_QSARr>
FC(F)(F)C1C=C(Cl)C(Cl)=CC=1

> <InChI_Code_QSARr>
InChI=1S/C7H3Cl2F3/c8-5-2-1-4(3-6(5)9)7(10,11)12/h1-3H

> <InChI Key_QSARr>
XILPLWOGHPSJBK-UHFFFAOYSA-N

> <Salt_Solvent>


> <Salt_Solvent_ID>
0

> <MPID>
101863

> <LogKmHL>
1.52

> <Tr_1_Tst_0>
1

$$$$
100231
  Mrv171c012251910542D          

 14 14  0  0  0  0            999 V2000
    3.7744   -2.5334    0.0000 Cl  0  0  0  0  0  0  0  0  0  0  0  0
    3.0599   -2.1209    0.0000 C   0  0  0  0  0  0  0  0  0  0  0  0
    3.0599   -1.2959    0.0000 C   0  0  0  0  0  0  0  0  0  0  0  0
    2.3454   -0.8834    0.0000 C   0  0  0  0  0  0  0  0  0  0  0  0
    2.3454   -0.0584    0.0000 N   0  0  0  0  0  0  0  0  0  0  0  0
    1.6310    0.3541    0.0000 C   0  0  0  0  0  0  0  0  0  0  0  0
    1.6310    1.1791    0.0000 N   0  0  0  0  0  0  0  0  0  0  0  0
    0.9165    1.5916    0.0000 C   0  0  0  0  0  0  0  0  0  0  0  0
    2.3454    1.5916    0.0000 C   0  0  0  0  0  0  0  0  0  0  0  0
    0.9165   -0.0584    0.0000 O   0  0  0  0  0  0  0  0  0  0  0  0
    1.6310   -1.2959    0.0000 C   0  0  0  0  0  0  0  0  0  0  0  0
    1.6310   -2.1209    0.0000 C   0  0  0  0  0  0  0  0  0  0  0  0
    2.3454   -2.5334    0.0000 C   0  0  0  0  0  0  0  0  0  0  0  0
    2.3454   -3.3584    0.0000 Cl  0  0  0  0  0  0  0  0  0  0  0  0
  1  2  1  0  0  0  0
  3  2  1  0  0  0  0
  4  3  2  0  0  0  0
  4  5  1  0  0  0  0
  5  6  1  0  0  0  0
  6  7  1  0  0  0  0
  7  8  1  0  0  0  0
  7  9  1  0  0  0  0
  6 10  2  0  0  0  0
 11  4  1  0  0  0  0
 12 11  2  0  0  0  0
 13 12  1  0  0  0  0
  2 13  2  0  0  0  0
 13 14  1  0  0  0  0
M  END
> <ChemID>
100231

> <CAS>
330-54-1

> <Original_SMILES>
CN(C)C(=O)Nc1cc(Cl)c(Cl)cc1

> <preferred_name>
Diuron

> <dsstox_substance_id>
DTXSID0020446

> <dsstox_compound_id>
DTXCID00446

> <qc_level>
DSSTox_Low

> <Canonical_QSARr>
CN(C)C(=O)NC1=CC(Cl)=C(Cl)C=C1

> <InChI_Code_QSARr>
InChI=1S/C9H10Cl2N2O/c1-13(2)9(14)12-6-3-4-7(10)8(11)5-6/h3-5H,1-2H3,(H,12,14)

> <InChI Key_QSARr>
XMTQQYYKAHVGBJ-UHFFFAOYSA-N

> <Salt_Solvent>


> <Salt_Solvent_ID>
0

> <MPID>
101864

> <LogKmHL>
-1.45

> <Tr_1_Tst_0>
0

$$$$
100232
  Mrv171c012251910542D          

 15 15  0  0  0  0            999 V2000
    1.5026   -1.2918    0.0000 C   0  0  0  0  0  0  0  0  0  0  0  0
    1.5026   -0.4668    0.0000 O   0  0  0  0  0  0  0  0  0  0  0  0
    0.7881   -1.7043    0.0000 N   0  0  0  0  0  0  0  0  0  0  0  0
    0.7881   -2.5293    0.0000 C   0  0  0  0  0  0  0  0  0  0  0  0
    0.0737   -1.2918    0.0000 O   0  0  0  0  0  0  0  0  0  0  0  0
   -0.6408   -1.7043    0.0000 C   0  0  0  0  0  0  0  0  0  0  0  0
    2.2171   -1.7043    0.0000 N   0  0  0  0  0  0  0  0  0  0  0  0
    2.9315   -1.2918    0.0000 C   0  0  0  0  0  0  0  0  0  0  0  0
    3.6460   -1.7043    0.0000 C   0  0  0  0  0  0  0  0  0  0  0  0
    4.3605   -1.2918    0.0000 C   0  0  0  0  0  0  0  0  0  0  0  0
    4.3605   -0.4668    0.0000 C   0  0  0  0  0  0  0  0  0  0  0  0
    5.0750   -0.0543    0.0000 Cl  0  0  0  0  0  0  0  0  0  0  0  0
    3.6460   -0.0543    0.0000 C   0  0  0  0  0  0  0  0  0  0  0  0
    3.6460    0.7707    0.0000 Cl  0  0  0  0  0  0  0  0  0  0  0  0
    2.9315   -0.4668    0.0000 C   0  0  0  0  0  0  0  0  0  0  0  0
  1  2  2  0  0  0  0
  1  3  1  0  0  0  0
  3  4  1  0  0  0  0
  3  5  1  0  0  0  0
  5  6  1  0  0  0  0
  1  7  1  0  0  0  0
  7  8  1  0  0  0  0
  9  8  2  0  0  0  0
 10  9  1  0  0  0  0
 11 10  2  0  0  0  0
 11 12  1  0  0  0  0
 13 11  1  0  0  0  0
 13 14  1  0  0  0  0
 15 13  2  0  0  0  0
  8 15  1  0  0  0  0
M  END
> <ChemID>
100232

> <CAS>
330-55-2

> <Original_SMILES>
CON(C)C(=O)Nc1cc(Cl)c(Cl)cc1

> <preferred_name>
Linuron

> <dsstox_substance_id>
DTXSID2024163

> <dsstox_compound_id>
DTXCID604163

> <qc_level>
DSSTox_Low

> <Canonical_QSARr>
CON(C)C(=O)NC1C=C(Cl)C(Cl)=CC=1

> <InChI_Code_QSARr>
InChI=1S/C9H10Cl2N2O2/c1-13(15-2)9(14)12-6-3-4-7(10)8(11)5-6/h3-5H,1-2H3,(H,12,14)

> <InChI Key_QSARr>
XKJMBINCVNINCA-UHFFFAOYSA-N

> <Salt_Solvent>


> <Salt_Solvent_ID>
0

> <MPID>
101865

> <LogKmHL>
-0.97

> <Tr_1_Tst_0>
1

$$$$
100233
  Mrv171c012251910542D          

 19 19  0  0  0  0            999 V2000
    4.2721   -2.8811    0.0000 S   0  0  0  0  0  0  0  0  0  0  0  0
    3.8596   -2.1666    0.0000 P   0  0  0  0  0  0  0  0  0  0  0  0
    4.5741   -1.7541    0.0000 O   0  0  0  0  0  0  0  0  0  0  0  0
    5.2885   -2.1666    0.0000 C   0  0  0  0  0  0  0  0  0  0  0  0
    6.0030   -1.7541    0.0000 C   0  0  0  0  0  0  0  0  0  0  0  0
    3.4471   -1.4522    0.0000 O   0  0  0  0  0  0  0  0  0  0  0  0
    3.8596   -0.7377    0.0000 C   0  0  0  0  0  0  0  0  0  0  0  0
    4.6846   -0.7377    0.0000 C   0  0  0  0  0  0  0  0  0  0  0  0
    3.1451   -2.5791    0.0000 O   0  0  0  0  0  0  0  0  0  0  0  0
    2.4307   -2.1666    0.0000 C   0  0  0  0  0  0  0  0  0  0  0  0
    2.4307   -1.3416    0.0000 C   0  0  0  0  0  0  0  0  0  0  0  0
    1.7162   -0.9291    0.0000 C   0  0  0  0  0  0  0  0  0  0  0  0
    1.7162   -0.1041    0.0000 C   0  0  0  0  0  0  0  0  0  0  0  0
    1.0017   -1.3416    0.0000 N   0  0  0  0  0  0  0  0  0  0  0  0
    1.0017   -2.1666    0.0000 C   0  0  0  0  0  0  0  0  0  0  0  0
    0.2872   -2.5791    0.0000 C   0  0  0  0  0  0  0  0  0  0  0  0
    0.2872   -3.4041    0.0000 C   0  0  0  0  0  0  0  0  0  0  0  0
   -0.4272   -2.1666    0.0000 C   0  0  0  0  0  0  0  0  0  0  0  0
    1.7162   -2.5791    0.0000 N   0  0  0  0  0  0  0  0  0  0  0  0
  1  2  2  0  0  0  0
  2  3  1  0  0  0  0
  3  4  1  0  0  0  0
  4  5  1  0  0  0  0
  2  6  1  0  0  0  0
  6  7  1  0  0  0  0
  7  8  1  0  0  0  0
  2  9  1  0  0  0  0
  9 10  1  0  0  0  0
 11 10  1  0  0  0  0
 12 11  2  0  0  0  0
 12 13  1  0  0  0  0
 14 12  1  0  0  0  0
 15 14  2  0  0  0  0
 15 16  1  0  0  0  0
 16 17  1  0  0  0  0
 16 18  1  0  0  0  0
 19 15  1  0  0  0  0
 10 19  2  0  0  0  0
M  END
> <ChemID>
100233

> <CAS>
333-41-5

> <Original_SMILES>
Cc1cc([n]c([n]1)C(C)C)OP(=S)(OCC)OCC

> <preferred_name>
Diazinon

> <dsstox_substance_id>
DTXSID9020407

> <dsstox_compound_id>
DTXCID50407

> <qc_level>
DSSTox_Low

> <Canonical_QSARr>
CC1=CC(=NC(=N1)C(C)C)OP(=S)(OCC)OCC

> <InChI_Code_QSARr>
InChI=1S/C12H21N2O3PS/c1-6-15-18(19,16-7-2)17-11-8-10(5)13-12(14-11)9(3)4/h8-9H,6-7H2,1-5H3

> <InChI Key_QSARr>
FHIVAFMUCKRCQO-UHFFFAOYSA-N

> <Salt_Solvent>


> <Salt_Solvent_ID>
0

> <MPID>
101866

> <LogKmHL>
0.07

> <Tr_1_Tst_0>
1

$$$$
100234
  Mrv171c012251910542D          

 19 22  0  0  0  0            999 V2000
    1.3692   -1.7952    0.0000 C   0  0  0  0  0  0  0  0  0  0  0  0
    1.6495   -2.5711    0.0000 C   0  0  0  0  0  0  0  0  0  0  0  0
    0.8374   -2.4259    0.0000 C   0  0  0  0  0  0  0  0  0  0  0  0
    0.0252   -2.2807    0.0000 C   0  0  0  0  0  0  0  0  0  0  0  0
   -0.2551   -1.5048    0.0000 C   0  0  0  0  0  0  0  0  0  0  0  0
    0.2768   -0.8740    0.0000 C   0  0  0  0  0  0  0  0  0  0  0  0
    1.0889   -1.0193    0.0000 C   0  0  0  0  0  0  0  0  0  0  0  0
    1.6207   -0.3885    0.0000 C   0  0  0  0  0  0  0  0  0  0  0  0
    2.4328   -0.5338    0.0000 C   0  0  0  0  0  0  0  0  0  0  0  0
    2.7131   -1.3097    0.0000 C   0  0  0  0  0  0  0  0  0  0  0  0
    3.5252   -1.4549    0.0000 C   0  0  0  0  0  0  0  0  0  0  0  0
    4.1766   -0.9485    0.0000 C   0  0  0  0  0  0  0  0  0  0  0  0
    4.8594   -1.4115    0.0000 C   0  0  0  0  0  0  0  0  0  0  0  0
    4.6301   -2.2040    0.0000 C   0  0  0  0  0  0  0  0  0  0  0  0
    3.8055   -2.2308    0.0000 C   0  0  0  0  0  0  0  0  0  0  0  0
    4.1654   -2.9732    0.0000 C   0  0  0  0  0  0  0  0  0  0  0  0
    3.2737   -2.8615    0.0000 C   0  0  0  0  0  0  0  0  0  0  0  0
    2.4616   -2.7163    0.0000 C   0  0  0  0  0  0  0  0  0  0  0  0
    2.1813   -1.9404    0.0000 C   0  0  0  0  0  0  0  0  0  0  0  0
  1  2  1  0  0  0  0
  3  1  1  0  0  0  0
  4  3  1  0  0  0  0
  5  4  1  0  0  0  0
  6  5  1  0  0  0  0
  7  6  1  0  0  0  0
  7  1  1  0  0  0  0
  8  7  1  0  0  0  0
  9  8  1  0  0  0  0
 10  9  1  0  0  0  0
 10 11  1  0  0  0  0
 12 11  1  0  0  0  0
 13 12  1  0  0  0  0
 14 13  1  0  0  0  0
 15 14  1  0  0  0  0
 11 15  1  0  0  0  0
 15 16  1  0  0  0  0
 15 17  1  0  0  0  0
 17 18  1  0  0  0  0
 18 19  1  0  0  0  0
  1 19  1  0  0  0  0
 19 10  1  0  0  0  0
M  END
> <ChemID>
100234

> <CAS>
438-22-2

> <Original_SMILES>
C[C@@]12CCC[C@H]1[C@@H]1CC[C@H]3CCCC[C@]3(C)[C@H]1CC2

> <preferred_name>
5alpha-Androstane

> <dsstox_substance_id>
DTXSID2036532

> <dsstox_compound_id>
DTXCID0016532

> <qc_level>
DSSTox_Low

> <Canonical_QSARr>
CC12CCCC1C1CCC3CCCCC3(C)C1CC2

> <InChI_Code_QSARr>
InChI=1S/C19H32/c1-18-11-5-7-16(18)15-9-8-14-6-3-4-12-19(14,2)17(15)10-13-18/h14-17H,3-13H2,1-2H3

> <InChI Key_QSARr>
QZLYKIGBANMMBK-UHFFFAOYSA-N

> <Salt_Solvent>


> <Salt_Solvent_ID>
0

> <MPID>
101867

> <LogKmHL>
1.67

> <Tr_1_Tst_0>
1

$$$$
100235
  Mrv171c012251910542D          

 13 14  0  0  0  0            999 V2000
    2.0393   -1.1106    0.0000 C   0  0  0  0  0  0  0  0  0  0  0  0
    1.3249   -0.6981    0.0000 C   0  0  0  0  0  0  0  0  0  0  0  0
    1.8552   -0.0661    0.0000 C   0  0  0  0  0  0  0  0  0  0  0  0
    0.7946   -0.0661    0.0000 C   0  0  0  0  0  0  0  0  0  0  0  0
    0.6104   -1.1106    0.0000 C   0  0  0  0  0  0  0  0  0  0  0  0
    0.6104   -1.9356    0.0000 C   0  0  0  0  0  0  0  0  0  0  0  0
    1.3249   -2.3481    0.0000 C   0  0  0  0  0  0  0  0  0  0  0  0
    2.0393   -1.9356    0.0000 C   0  0  0  0  0  0  0  0  0  0  0  0
    2.7538   -2.3481    0.0000 C   0  0  0  0  0  0  0  0  0  0  0  0
    3.4683   -1.9356    0.0000 C   0  0  0  0  0  0  0  0  0  0  0  0
    4.1828   -2.3481    0.0000 C   0  0  0  0  0  0  0  0  0  0  0  0
    3.4683   -1.1106    0.0000 C   0  0  0  0  0  0  0  0  0  0  0  0
    2.7538   -0.6981    0.0000 C   0  0  0  0  0  0  0  0  0  0  0  0
  2  1  1  0  0  0  0
  2  3  1  0  0  0  0
  2  4  1  0  0  0  0
  5  2  1  0  0  0  0
  6  5  1  0  0  0  0
  7  6  1  0  0  0  0
  8  7  1  0  0  0  0
  8  1  1  0  0  0  0
  9  8  2  0  0  0  0
 10  9  1  0  0  0  0
 10 11  1  0  0  0  0
 12 10  2  0  0  0  0
 13 12  1  0  0  0  0
  1 13  2  0  0  0  0
M  END
> <ChemID>
100235

> <CAS>
475-03-6

> <Original_SMILES>
Cc1ccc2c(CCCC2(C)C)c1

> <preferred_name>
1,2,3,4-Tetrahydro-1,1,6-trimethylnaphthalene

> <dsstox_substance_id>
DTXSID0052120

> <dsstox_compound_id>
DTXCID8030689

> <qc_level>
DSSTox_Low

> <Canonical_QSARr>
CC1C=C2CCCC(C)(C)C2=CC=1

> <InChI_Code_QSARr>
InChI=1S/C13H18/c1-10-6-7-12-11(9-10)5-4-8-13(12,2)3/h6-7,9H,4-5,8H2,1-3H3

> <InChI Key_QSARr>
LTMQZVLXCLQPCT-UHFFFAOYSA-N

> <Salt_Solvent>


> <Salt_Solvent_ID>
0

> <MPID>
101868

> <LogKmHL>
0.83

> <Tr_1_Tst_0>
0

$$$$
100236
  Mrv171c012251910542D          

 12 13  0  0  0  0            999 V2000
    1.4238   -1.2289    0.0000 C   0  0  0  0  0  0  0  0  0  0  0  0
    0.7093   -0.8164    0.0000 C   0  0  0  0  0  0  0  0  0  0  0  0
    0.7093    0.0086    0.0000 N   0  0  0  0  0  0  0  0  0  0  0  0
   -0.0051   -1.2289    0.0000 C   0  0  0  0  0  0  0  0  0  0  0  0
   -0.0051   -2.0539    0.0000 C   0  0  0  0  0  0  0  0  0  0  0  0
    0.7093   -2.4664    0.0000 C   0  0  0  0  0  0  0  0  0  0  0  0
    1.4238   -2.0539    0.0000 C   0  0  0  0  0  0  0  0  0  0  0  0
    2.1383   -2.4664    0.0000 C   0  0  0  0  0  0  0  0  0  0  0  0
    2.8527   -2.0539    0.0000 C   0  0  0  0  0  0  0  0  0  0  0  0
    2.8527   -1.2289    0.0000 C   0  0  0  0  0  0  0  0  0  0  0  0
    2.1383   -0.8164    0.0000 C   0  0  0  0  0  0  0  0  0  0  0  0
    2.1383    0.0086    0.0000 N   0  0  0  0  0  0  0  0  0  0  0  0
  2  1  1  0  0  0  0
  2  3  1  0  0  0  0
  4  2  2  0  0  0  0
  5  4  1  0  0  0  0
  6  5  2  0  0  0  0
  7  6  1  0  0  0  0
  7  1  2  0  0  0  0
  8  7  1  0  0  0  0
  9  8  2  0  0  0  0
 10  9  1  0  0  0  0
 11 10  2  0  0  0  0
  1 11  1  0  0  0  0
 11 12  1  0  0  0  0
M  END
> <ChemID>
100236

> <CAS>
479-27-6

> <Original_SMILES>
Nc1cccc2cccc(N)c12

> <preferred_name>
1,8-Naphthalenediamine

> <dsstox_substance_id>
DTXSID6044432

> <dsstox_compound_id>
DTXCID4024432

> <qc_level>
DSSTox_Low

> <Canonical_QSARr>
NC1=CC=CC2C=CC=C(N)C1=2

> <InChI_Code_QSARr>
InChI=1S/C10H10N2/c11-8-5-1-3-7-4-2-6-9(12)10(7)8/h1-6H,11-12H2

> <InChI Key_QSARr>
YFOOEYJGMMJJLS-UHFFFAOYSA-N

> <Salt_Solvent>


> <Salt_Solvent_ID>
0

> <MPID>
101869

> <LogKmHL>
-0.73

> <Tr_1_Tst_0>
1

$$$$
100237
  Mrv171c012251910542D          

 10 10  0  0  0  0            999 V2000
    1.2860    1.0725    0.0000 C   0  0  0  0  0  0  0  0  0  0  0  0
    2.0005    1.4850    0.0000 C   0  0  0  0  0  0  0  0  0  0  0  0
    0.5716    1.4850    0.0000 C   0  0  0  0  0  0  0  0  0  0  0  0
    0.5716    2.3100    0.0000 C   0  0  0  0  0  0  0  0  0  0  0  0
   -0.1429    1.0725    0.0000 C   0  0  0  0  0  0  0  0  0  0  0  0
   -0.1429    0.2475    0.0000 C   0  0  0  0  0  0  0  0  0  0  0  0
    0.5716   -0.1650    0.0000 C   0  0  0  0  0  0  0  0  0  0  0  0
    0.5716   -0.9900    0.0000 C   0  0  0  0  0  0  0  0  0  0  0  0
    1.2860    0.2475    0.0000 C   0  0  0  0  0  0  0  0  0  0  0  0
    2.0005   -0.1650    0.0000 C   0  0  0  0  0  0  0  0  0  0  0  0
  1  2  1  0  0  0  0
  3  1  1  0  0  0  0
  3  4  1  0  0  0  0
  5  3  2  0  0  0  0
  6  5  1  0  0  0  0
  7  6  2  0  0  0  0
  7  8  1  0  0  0  0
  9  7  1  0  0  0  0
  1  9  2  0  0  0  0
  9 10  1  0  0  0  0
M  END
> <ChemID>
100237

> <CAS>
488-23-3

> <Original_SMILES>
Cc1ccc(C)c(C)c1C

> <preferred_name>
1,2,3,4-Tetramethylbenzene

> <dsstox_substance_id>
DTXSID4060072

> <dsstox_compound_id>
DTXCID3040645

> <qc_level>
Public_High

> <Canonical_QSARr>
CC1=CC=C(C)C(C)=C1C

> <InChI_Code_QSARr>
InChI=1S/C10H14/c1-7-5-6-8(2)10(4)9(7)3/h5-6H,1-4H3

> <InChI Key_QSARr>
UOHMMEJUHBCKEE-UHFFFAOYSA-N

> <Salt_Solvent>


> <Salt_Solvent_ID>
0

> <MPID>
101870

> <LogKmHL>
1.17

> <Tr_1_Tst_0>
1

$$$$
100240
  Mrv171c012251910542D          

 17 17  0  0  0  0            999 V2000
    2.3624   -3.1519    0.0000 N   0  3  0  0  0  0  0  0  0  0  0  0
    1.6480   -3.5644    0.0000 O   0  0  0  0  0  0  0  0  0  0  0  0
    3.0769   -3.5644    0.0000 O   0  5  0  0  0  0  0  0  0  0  0  0
    2.3624   -2.3269    0.0000 C   0  0  0  0  0  0  0  0  0  0  0  0
    3.0769   -1.9144    0.0000 C   0  0  0  0  0  0  0  0  0  0  0  0
    3.0769   -1.0894    0.0000 C   0  0  0  0  0  0  0  0  0  0  0  0
    2.3624   -0.6769    0.0000 C   0  0  0  0  0  0  0  0  0  0  0  0
    2.3624    0.1481    0.0000 O   0  0  0  0  0  0  0  0  0  0  0  0
    3.0769    0.5606    0.0000 P   0  0  0  0  0  0  0  0  0  0  0  0
    3.7914    0.9731    0.0000 O   0  0  0  0  0  0  0  0  0  0  0  0
    3.7914    1.7981    0.0000 C   0  0  0  0  0  0  0  0  0  0  0  0
    3.4894   -0.1538    0.0000 O   0  0  0  0  0  0  0  0  0  0  0  0
    4.3144   -0.1538    0.0000 C   0  0  0  0  0  0  0  0  0  0  0  0
    2.6644    1.2751    0.0000 S   0  0  0  0  0  0  0  0  0  0  0  0
    1.6480   -1.0894    0.0000 C   0  0  0  0  0  0  0  0  0  0  0  0
    1.6480   -1.9144    0.0000 C   0  0  0  0  0  0  0  0  0  0  0  0
    0.9335   -2.3269    0.0000 Cl  0  0  0  0  0  0  0  0  0  0  0  0
  1  2  2  0  0  0  0
  1  3  1  0  0  0  0
  1  4  1  0  0  0  0
  5  4  2  0  0  0  0
  6  5  1  0  0  0  0
  7  6  2  0  0  0  0
  7  8  1  0  0  0  0
  8  9  1  0  0  0  0
  9 10  1  0  0  0  0
 10 11  1  0  0  0  0
  9 12  1  0  0  0  0
 12 13  1  0  0  0  0
  9 14  2  0  0  0  0
 15  7  1  0  0  0  0
 16 15  2  0  0  0  0
  4 16  1  0  0  0  0
 16 17  1  0  0  0  0
M  CHG  2   1   1   3  -1
M  END
> <ChemID>
100240

> <CAS>
500-28-7

> <Original_SMILES>
COP(=S)(Oc1cc(Cl)c(cc1)[N+]([O-])=O)OC

> <preferred_name>
Chlorthion

> <dsstox_substance_id>
DTXSID9041784

> <dsstox_compound_id>
DTXCID7021784

> <qc_level>
DSSTox_Low

> <Canonical_QSARr>
COP(=S)(OC1C=C(Cl)C(=CC=1)[N+]([O-])=O)OC

> <InChI_Code_QSARr>
InChI=1S/C8H9ClNO5PS/c1-13-16(17,14-2)15-6-3-4-8(10(11)12)7(9)5-6/h3-5H,1-2H3

> <InChI Key_QSARr>
NZNRRXXETLSZRO-UHFFFAOYSA-N

> <Salt_Solvent>


> <Salt_Solvent_ID>
0

> <MPID>
101871

> <LogKmHL>
-0.47

> <Tr_1_Tst_0>
1

$$$$
100241
  Mrv171c012251910542D          

 21 22  0  0  0  0            999 V2000
    0.3563   -2.9393    0.0000 O   0  0  0  0  0  0  0  0  0  0  0  0
    1.1813   -2.9393    0.0000 C   0  0  0  0  0  0  0  0  0  0  0  0
    2.0063   -2.9393    0.0000 C   0  0  0  0  0  0  0  0  0  0  0  0
    2.4188   -3.6538    0.0000 O   0  0  0  0  0  0  0  0  0  0  0  0
    3.2438   -3.6538    0.0000 C   0  0  0  0  0  0  0  0  0  0  0  0
    3.6563   -4.3683    0.0000 C   0  0  0  0  0  0  0  0  0  0  0  0
    2.4188   -2.2249    0.0000 O   0  0  0  0  0  0  0  0  0  0  0  0
    1.1813   -2.1143    0.0000 C   0  0  0  0  0  0  0  0  0  0  0  0
    1.8958   -1.7018    0.0000 C   0  0  0  0  0  0  0  0  0  0  0  0
    1.8958   -0.8768    0.0000 C   0  0  0  0  0  0  0  0  0  0  0  0
    1.1813   -0.4643    0.0000 C   0  0  0  0  0  0  0  0  0  0  0  0
    1.1813    0.3607    0.0000 Cl  0  0  0  0  0  0  0  0  0  0  0  0
    0.4668   -0.8768    0.0000 C   0  0  0  0  0  0  0  0  0  0  0  0
    0.4668   -1.7018    0.0000 C   0  0  0  0  0  0  0  0  0  0  0  0
    1.1813   -3.7643    0.0000 C   0  0  0  0  0  0  0  0  0  0  0  0
    0.4668   -4.1768    0.0000 C   0  0  0  0  0  0  0  0  0  0  0  0
    0.4668   -5.0018    0.0000 C   0  0  0  0  0  0  0  0  0  0  0  0
    1.1813   -5.4143    0.0000 C   0  0  0  0  0  0  0  0  0  0  0  0
    1.1813   -6.2393    0.0000 Cl  0  0  0  0  0  0  0  0  0  0  0  0
    1.8958   -5.0018    0.0000 C   0  0  0  0  0  0  0  0  0  0  0  0
    1.8958   -4.1768    0.0000 C   0  0  0  0  0  0  0  0  0  0  0  0
  1  2  1  0  0  0  0
  2  3  1  0  0  0  0
  3  4  1  0  0  0  0
  4  5  1  0  0  0  0
  5  6  1  0  0  0  0
  3  7  2  0  0  0  0
  2  8  1  0  0  0  0
  9  8  1  0  0  0  0
 10  9  2  0  0  0  0
 11 10  1  0  0  0  0
 11 12  1  0  0  0  0
 13 11  2  0  0  0  0
 14 13  1  0  0  0  0
  8 14  2  0  0  0  0
  2 15  1  0  0  0  0
 16 15  1  0  0  0  0
 17 16  2  0  0  0  0
 18 17  1  0  0  0  0
 18 19  1  0  0  0  0
 20 18  2  0  0  0  0
 21 20  1  0  0  0  0
 15 21  2  0  0  0  0
M  END
> <ChemID>
100241

> <CAS>
510-15-6

> <Original_SMILES>
CCOC(=O)C(O)(c1ccc(Cl)cc1)c1ccc(Cl)cc1

> <preferred_name>
Chlorobenzilate

> <dsstox_substance_id>
DTXSID9020299

> <dsstox_compound_id>
DTXCID70299

> <qc_level>
DSSTox_Low

> <Canonical_QSARr>
CCOC(=O)C(O)(C1C=CC(Cl)=CC=1)C1C=CC(Cl)=CC=1

> <InChI_Code_QSARr>
InChI=1S/C16H14Cl2O3/c1-2-21-15(19)16(20,11-3-7-13(17)8-4-11)12-5-9-14(18)10-6-12/h3-10,20H,2H2,1H3

> <InChI Key_QSARr>
RAPBNVDSDCTNRC-UHFFFAOYSA-N

> <Salt_Solvent>


> <Salt_Solvent_ID>
0

> <MPID>
101872

> <LogKmHL>
-0.08

> <Tr_1_Tst_0>
0

$$$$
100242
  Mrv171c012251910542D          

  9  9  0  0  0  0            999 V2000
    2.1436   -1.2419    0.0000 C   0  0  0  0  0  0  0  0  0  0  0  0
    2.8581   -0.8294    0.0000 C   0  0  0  0  0  0  0  0  0  0  0  0
    1.4292   -0.8294    0.0000 C   0  0  0  0  0  0  0  0  0  0  0  0
    1.4292   -0.0044    0.0000 C   0  0  0  0  0  0  0  0  0  0  0  0
    0.7147   -1.2419    0.0000 C   0  0  0  0  0  0  0  0  0  0  0  0
    0.0002   -0.8294    0.0000 C   0  0  0  0  0  0  0  0  0  0  0  0
    0.7147   -2.0669    0.0000 C   0  0  0  0  0  0  0  0  0  0  0  0
    1.4292   -2.4794    0.0000 C   0  0  0  0  0  0  0  0  0  0  0  0
    2.1436   -2.0669    0.0000 C   0  0  0  0  0  0  0  0  0  0  0  0
  1  2  1  0  0  0  0
  3  1  1  0  0  0  0
  3  4  1  0  0  0  0
  5  3  2  0  0  0  0
  5  6  1  0  0  0  0
  7  5  1  0  0  0  0
  8  7  2  0  0  0  0
  9  8  1  0  0  0  0
  1  9  2  0  0  0  0
M  END
> <ChemID>
100242

> <CAS>
526-73-8

> <Original_SMILES>
Cc1c(C)cccc1C

> <preferred_name>
1,2,3-Trimethylbenzene

> <dsstox_substance_id>
DTXSID8047769

> <dsstox_compound_id>
DTXCID7027750

> <qc_level>
DSSTox_Low

> <Canonical_QSARr>
CC1C=CC=C(C)C=1C

> <InChI_Code_QSARr>
InChI=1S/C9H12/c1-7-5-4-6-8(2)9(7)3/h4-6H,1-3H3

> <InChI Key_QSARr>
FYGHSUNMUKGBRK-UHFFFAOYSA-N

> <Salt_Solvent>


> <Salt_Solvent_ID>
0

> <MPID>
101873

> <LogKmHL>
-0.22

> <Tr_1_Tst_0>
1

$$$$
100243
  Mrv171c012251910542D          

 10 10  0  0  0  0            999 V2000
    3.1010   -0.6863    0.0000 O   0  0  0  0  0  0  0  0  0  0  0  0
    2.3865   -1.0988    0.0000 C   0  0  0  0  0  0  0  0  0  0  0  0
    1.6721   -0.6863    0.0000 C   0  0  0  0  0  0  0  0  0  0  0  0
    1.6721    0.1387    0.0000 C   0  0  0  0  0  0  0  0  0  0  0  0
    0.9576   -1.0988    0.0000 C   0  0  0  0  0  0  0  0  0  0  0  0
    0.9576   -1.9238    0.0000 C   0  0  0  0  0  0  0  0  0  0  0  0
    0.2431   -2.3363    0.0000 C   0  0  0  0  0  0  0  0  0  0  0  0
    1.6721   -2.3363    0.0000 C   0  0  0  0  0  0  0  0  0  0  0  0
    2.3865   -1.9238    0.0000 C   0  0  0  0  0  0  0  0  0  0  0  0
    3.1010   -2.3363    0.0000 C   0  0  0  0  0  0  0  0  0  0  0  0
  1  2  1  0  0  0  0
  3  2  1  0  0  0  0
  3  4  1  0  0  0  0
  5  3  2  0  0  0  0
  6  5  1  0  0  0  0
  6  7  1  0  0  0  0
  8  6  2  0  0  0  0
  9  8  1  0  0  0  0
  2  9  2  0  0  0  0
  9 10  1  0  0  0  0
M  END
> <ChemID>
100243

> <CAS>
527-60-6

> <Original_SMILES>
Cc1cc(C)c(O)c(C)c1

> <preferred_name>
2,4,6-Trimethylphenol

> <dsstox_substance_id>
DTXSID7022049

> <dsstox_compound_id>
DTXCID002049

> <qc_level>
DSSTox_Low

> <Canonical_QSARr>
CC1C=C(C)C=C(C)C=1O

> <InChI_Code_QSARr>
InChI=1S/C9H12O/c1-6-4-7(2)9(10)8(3)5-6/h4-5,10H,1-3H3

> <InChI Key_QSARr>
BPRYUXCVCCNUFE-UHFFFAOYSA-N

> <Salt_Solvent>


> <Salt_Solvent_ID>
0

> <MPID>
101874

> <LogKmHL>
-1.3

> <Tr_1_Tst_0>
1

$$$$
100244
  Mrv171c012251910542D          

 10 10  0  0  0  0            999 V2000
    0.6430    0.6188    0.0000 C   0  0  0  0  0  0  0  0  0  0  0  0
   -0.0715    0.2063    0.0000 C   0  0  0  0  0  0  0  0  0  0  0  0
   -0.7859    0.6188    0.0000 C   0  0  0  0  0  0  0  0  0  0  0  0
   -0.0715   -0.6187    0.0000 C   0  0  0  0  0  0  0  0  0  0  0  0
    1.3575    0.2062    0.0000 C   0  0  0  0  0  0  0  0  0  0  0  0
    2.0720    0.6187    0.0000 C   0  0  0  0  0  0  0  0  0  0  0  0
    2.0720    1.4437    0.0000 C   0  0  0  0  0  0  0  0  0  0  0  0
    1.3575    1.8562    0.0000 C   0  0  0  0  0  0  0  0  0  0  0  0
    1.3575    2.6812    0.0000 C   0  0  0  0  0  0  0  0  0  0  0  0
    0.6430    1.4438    0.0000 C   0  0  0  0  0  0  0  0  0  0  0  0
  1  2  1  0  0  0  0
  2  3  1  0  0  0  0
  2  4  1  0  0  0  0
  5  1  1  0  0  0  0
  6  5  2  0  0  0  0
  7  6  1  0  0  0  0
  8  7  2  0  0  0  0
  8  9  1  0  0  0  0
 10  8  1  0  0  0  0
  1 10  2  0  0  0  0
M  END
> <ChemID>
100244

> <CAS>
535-77-3

> <Original_SMILES>
Cc1cccc(c1)C(C)C

> <preferred_name>
m-Cymene

> <dsstox_substance_id>
DTXSID2060206

> <dsstox_compound_id>
DTXCID9041449

> <qc_level>
Public_High

> <Canonical_QSARr>
CC1C=C(C=CC=1)C(C)C

> <InChI_Code_QSARr>
InChI=1S/C10H14/c1-8(2)10-6-4-5-9(3)7-10/h4-8H,1-3H3

> <InChI Key_QSARr>
XCYJPXQACVEIOS-UHFFFAOYSA-N

> <Salt_Solvent>


> <Salt_Solvent_ID>
0

> <MPID>
101875

> <LogKmHL>
0.07

> <Tr_1_Tst_0>
1

$$$$
100245
  Mrv171c012251910542D          

 24 24  0  0  0  0            999 V2000
    2.9660   -1.1247    0.0000 O   0  0  0  0  0  0  0  0  0  0  0  0
    2.2515   -1.5372    0.0000 Si  0  0  0  0  0  0  0  0  0  0  0  0
    2.5337   -0.7620    0.0000 C   0  0  0  0  0  0  0  0  0  0  0  0
    1.9694   -0.7620    0.0000 C   0  0  0  0  0  0  0  0  0  0  0  0
    1.5371   -1.1247    0.0000 O   0  0  0  0  0  0  0  0  0  0  0  0
    0.8226   -1.5372    0.0000 Si  0  0  0  0  0  0  0  0  0  0  0  0
    0.5404   -0.7620    0.0000 C   0  0  0  0  0  0  0  0  0  0  0  0
    0.0101   -1.6805    0.0000 C   0  0  0  0  0  0  0  0  0  0  0  0
    0.8226   -2.3622    0.0000 O   0  0  0  0  0  0  0  0  0  0  0  0
    1.5371   -2.7747    0.0000 Si  0  0  0  0  0  0  0  0  0  0  0  0
    0.7246   -2.9180    0.0000 C   0  0  0  0  0  0  0  0  0  0  0  0
    1.0068   -3.4067    0.0000 C   0  0  0  0  0  0  0  0  0  0  0  0
    1.5371   -3.5997    0.0000 O   0  0  0  0  0  0  0  0  0  0  0  0
    2.2515   -4.0122    0.0000 Si  0  0  0  0  0  0  0  0  0  0  0  0
    1.7212   -4.6442    0.0000 C   0  0  0  0  0  0  0  0  0  0  0  0
    2.7818   -4.6442    0.0000 C   0  0  0  0  0  0  0  0  0  0  0  0
    2.9660   -3.5997    0.0000 O   0  0  0  0  0  0  0  0  0  0  0  0
    2.9660   -2.7747    0.0000 Si  0  0  0  0  0  0  0  0  0  0  0  0
    3.4963   -3.4067    0.0000 C   0  0  0  0  0  0  0  0  0  0  0  0
    3.7785   -2.9180    0.0000 C   0  0  0  0  0  0  0  0  0  0  0  0
    3.6805   -2.3622    0.0000 O   0  0  0  0  0  0  0  0  0  0  0  0
    3.6805   -1.5372    0.0000 Si  0  0  0  0  0  0  0  0  0  0  0  0
    4.5050   -1.5084    0.0000 C   0  0  0  0  0  0  0  0  0  0  0  0
    4.1177   -0.8376    0.0000 C   0  0  0  0  0  0  0  0  0  0  0  0
  2  1  1  0  0  0  0
  2  3  1  0  0  0  0
  2  4  1  0  0  0  0
  5  2  1  0  0  0  0
  6  5  1  0  0  0  0
  6  7  1  0  0  0  0
  6  8  1  0  0  0  0
  9  6  1  0  0  0  0
 10  9  1  0  0  0  0
 10 11  1  0  0  0  0
 10 12  1  0  0  0  0
 13 10  1  0  0  0  0
 14 13  1  0  0  0  0
 14 15  1  0  0  0  0
 14 16  1  0  0  0  0
 17 14  1  0  0  0  0
 18 17  1  0  0  0  0
 18 19  1  0  0  0  0
 18 20  1  0  0  0  0
 21 18  1  0  0  0  0
 22 21  1  0  0  0  0
  1 22  1  0  0  0  0
 22 23  1  0  0  0  0
 22 24  1  0  0  0  0
M  END
> <ChemID>
100245

> <CAS>
540-97-6

> <Original_SMILES>
C[Si]1(C)O[Si](C)(C)O[Si](C)(C)O[Si](C)(C)O[Si](C)(C)O[Si](C)(C)O1

> <preferred_name>
Dodecamethylcyclohexasiloxane

> <dsstox_substance_id>
DTXSID6027183

> <dsstox_compound_id>
DTXCID507183

> <qc_level>
DSSTox_Low

> <Canonical_QSARr>
C[Si]1(C)O[Si](C)(C)O[Si](C)(C)O[Si](C)(C)O[Si](C)(C)O[Si](C)(C)O1

> <InChI_Code_QSARr>
InChI=1S/C12H36O6Si6/c1-19(2)13-20(3,4)15-22(7,8)17-24(11,12)18-23(9,10)16-21(5,6)14-19/h1-12H3

> <InChI Key_QSARr>
IUMSDRXLFWAGNT-UHFFFAOYSA-N

> <Salt_Solvent>


> <Salt_Solvent_ID>
0

> <MPID>
101876

> <LogKmHL>
2.34

> <Tr_1_Tst_0>
0

$$$$
100246
  Mrv171c012251910542D          

 20 20  0  0  0  0            999 V2000
    2.8631   -0.8489    0.0000 O   0  0  0  0  0  0  0  0  0  0  0  0
    2.0530   -1.0048    0.0000 Si  0  0  0  0  0  0  0  0  0  0  0  0
    2.0401   -0.1799    0.0000 C   0  0  0  0  0  0  0  0  0  0  0  0
    1.2384   -0.8743    0.0000 C   0  0  0  0  0  0  0  0  0  0  0  0
    1.7829   -1.7844    0.0000 O   0  0  0  0  0  0  0  0  0  0  0  0
    0.9728   -1.9403    0.0000 Si  0  0  0  0  0  0  0  0  0  0  0  0
    0.9599   -1.1154    0.0000 C   0  0  0  0  0  0  0  0  0  0  0  0
    0.1582   -1.8097    0.0000 C   0  0  0  0  0  0  0  0  0  0  0  0
    0.7028   -2.7199    0.0000 O   0  0  0  0  0  0  0  0  0  0  0  0
    1.2428   -3.3435    0.0000 Si  0  0  0  0  0  0  0  0  0  0  0  0
    0.5349   -3.7671    0.0000 C   0  0  0  0  0  0  0  0  0  0  0  0
    1.5371   -4.1142    0.0000 C   0  0  0  0  0  0  0  0  0  0  0  0
    2.0530   -3.1876    0.0000 O   0  0  0  0  0  0  0  0  0  0  0  0
    2.3230   -2.4080    0.0000 Si  0  0  0  0  0  0  0  0  0  0  0  0
    2.6172   -3.1788    0.0000 C   0  0  0  0  0  0  0  0  0  0  0  0
    3.0438   -2.8093    0.0000 C   0  0  0  0  0  0  0  0  0  0  0  0
    3.1332   -2.2521    0.0000 O   0  0  0  0  0  0  0  0  0  0  0  0
    3.4032   -1.4726    0.0000 Si  0  0  0  0  0  0  0  0  0  0  0  0
    4.1917   -1.7152    0.0000 C   0  0  0  0  0  0  0  0  0  0  0  0
    4.0453   -0.9546    0.0000 C   0  0  0  0  0  0  0  0  0  0  0  0
  2  1  1  0  0  0  0
  2  3  1  0  0  0  0
  2  4  1  0  0  0  0
  5  2  1  0  0  0  0
  6  5  1  0  0  0  0
  6  7  1  0  0  0  0
  6  8  1  0  0  0  0
  9  6  1  0  0  0  0
 10  9  1  0  0  0  0
 10 11  1  0  0  0  0
 10 12  1  0  0  0  0
 13 10  1  0  0  0  0
 14 13  1  0  0  0  0
 14 15  1  0  0  0  0
 14 16  1  0  0  0  0
 17 14  1  0  0  0  0
 18 17  1  0  0  0  0
  1 18  1  0  0  0  0
 18 19  1  0  0  0  0
 18 20  1  0  0  0  0
M  END
> <ChemID>
100246

> <CAS>
541-02-6

> <Original_SMILES>
C[Si]1(C)O[Si](C)(C)O[Si](C)(C)O[Si](C)(C)O[Si](C)(C)O1

> <preferred_name>
Decamethylcyclopentasiloxane

> <dsstox_substance_id>
DTXSID1027184

> <dsstox_compound_id>
DTXCID907184

> <qc_level>
DSSTox_Low

> <Canonical_QSARr>
C[Si]1(C)O[Si](C)(C)O[Si](C)(C)O[Si](C)(C)O[Si](C)(C)O1

> <InChI_Code_QSARr>
InChI=1S/C10H30O5Si5/c1-16(2)11-17(3,4)13-19(7,8)15-20(9,10)14-18(5,6)12-16/h1-10H3

> <InChI Key_QSARr>
XMSXQFUHVRWGNA-UHFFFAOYSA-N

> <Salt_Solvent>


> <Salt_Solvent_ID>
0

> <MPID>
101877

> <LogKmHL>
2.74

> <Tr_1_Tst_0>
1

$$$$
100247
  Mrv171c012251910542D          

  8  8  0  0  0  0            999 V2000
    0.1795   -1.9594    0.0000 Cl  0  0  0  0  0  0  0  0  0  0  0  0
    0.8940   -1.5469    0.0000 C   0  0  0  0  0  0  0  0  0  0  0  0
    1.6084   -1.9594    0.0000 C   0  0  0  0  0  0  0  0  0  0  0  0
    2.3229   -1.5469    0.0000 C   0  0  0  0  0  0  0  0  0  0  0  0
    2.3229   -0.7219    0.0000 C   0  0  0  0  0  0  0  0  0  0  0  0
    1.6084   -0.3094    0.0000 C   0  0  0  0  0  0  0  0  0  0  0  0
    1.6084    0.5156    0.0000 Cl  0  0  0  0  0  0  0  0  0  0  0  0
    0.8940   -0.7219    0.0000 C   0  0  0  0  0  0  0  0  0  0  0  0
  1  2  1  0  0  0  0
  3  2  1  0  0  0  0
  4  3  2  0  0  0  0
  5  4  1  0  0  0  0
  6  5  2  0  0  0  0
  6  7  1  0  0  0  0
  8  6  1  0  0  0  0
  2  8  2  0  0  0  0
M  END
> <ChemID>
100247

> <CAS>
541-73-1

> <Original_SMILES>
Clc1cc(Cl)ccc1

> <preferred_name>
1,3-Dichlorobenzene

> <dsstox_substance_id>
DTXSID6022056

> <dsstox_compound_id>
DTXCID102056

> <qc_level>
DSSTox_Low

> <Canonical_QSARr>
ClC1=CC(Cl)=CC=C1

> <InChI_Code_QSARr>
InChI=1S/C6H4Cl2/c7-5-2-1-3-6(8)4-5/h1-4H

> <InChI Key_QSARr>
ZPQOPVIELGIULI-UHFFFAOYSA-N

> <Salt_Solvent>


> <Salt_Solvent_ID>
0

> <MPID>
101878

> <LogKmHL>
-0.21

> <Tr_1_Tst_0>
1

$$$$
100248
  Mrv171c012251910542D          

  7  7  0  0  0  0            999 V2000
    0.9202   -0.1214    0.0000 C   0  0  0  0  0  0  0  0  0  0  0  0
    0.9202    0.7036    0.0000 Cl  0  0  0  0  0  0  0  0  0  0  0  0
    0.2057   -0.5339    0.0000 C   0  0  0  0  0  0  0  0  0  0  0  0
    0.2057   -1.3589    0.0000 C   0  0  0  0  0  0  0  0  0  0  0  0
    0.9202   -1.7714    0.0000 C   0  0  0  0  0  0  0  0  0  0  0  0
    1.6346   -1.3589    0.0000 C   0  0  0  0  0  0  0  0  0  0  0  0
    1.6346   -0.5339    0.0000 C   0  0  0  0  0  0  0  0  0  0  0  0
  1  2  1  0  0  0  0
  3  1  1  0  0  0  0
  4  3  1  0  0  0  0
  5  4  1  0  0  0  0
  6  5  1  0  0  0  0
  7  6  1  0  0  0  0
  1  7  1  0  0  0  0
M  END
> <ChemID>
100248

> <CAS>
542-18-7

> <Original_SMILES>
ClC1CCCCC1

> <preferred_name>
Chlorocyclohexane

> <dsstox_substance_id>
DTXSID3052193

> <dsstox_compound_id>
DTXCID8030764

> <qc_level>
DSSTox_High

> <Canonical_QSARr>
ClC1CCCCC1

> <InChI_Code_QSARr>
InChI=1S/C6H11Cl/c7-6-4-2-1-3-5-6/h6H,1-5H2

> <InChI Key_QSARr>
UNFUYWDGSFDHCW-UHFFFAOYSA-N

> <Salt_Solvent>


> <Salt_Solvent_ID>
0

> <MPID>
101879

> <LogKmHL>
0.41

> <Tr_1_Tst_0>
1

$$$$
100249
  Mrv171c012251910542D          

 11 10  0  0  0  0            999 V2000
    0.7301   -0.9035    0.0000 C   0  0  0  0  0  0  0  0  0  0  0  0
    0.0156   -0.4910    0.0000 C   0  0  0  0  0  0  0  0  0  0  0  0
    0.7301   -1.7285    0.0000 C   0  0  0  0  0  0  0  0  0  0  0  0
    1.4446   -0.4910    0.0000 C   0  0  0  0  0  0  0  0  0  0  0  0
    2.1590   -0.9035    0.0000 C   0  0  0  0  0  0  0  0  0  0  0  0
    2.8735   -0.4910    0.0000 O   0  0  0  0  0  0  0  0  0  0  0  0
    3.5880   -0.9035    0.0000 C   0  0  0  0  0  0  0  0  0  0  0  0
    4.3024   -0.4910    0.0000 C   0  0  0  0  0  0  0  0  0  0  0  0
    5.0169   -0.9035    0.0000 C   0  0  0  0  0  0  0  0  0  0  0  0
    5.7314   -0.4910    0.0000 C   0  0  0  0  0  0  0  0  0  0  0  0
    5.0169   -1.7285    0.0000 C   0  0  0  0  0  0  0  0  0  0  0  0
  1  2  1  0  0  0  0
  1  3  1  0  0  0  0
  1  4  1  0  0  0  0
  4  5  1  0  0  0  0
  5  6  1  0  0  0  0
  6  7  1  0  0  0  0
  7  8  1  0  0  0  0
  8  9  1  0  0  0  0
  9 10  1  0  0  0  0
  9 11  1  0  0  0  0
M  END
> <ChemID>
100249

> <CAS>
544-01-4

> <Original_SMILES>
CC(C)CCOCCC(C)C

> <preferred_name>
Isoamyl ether

> <dsstox_substance_id>
DTXSID8052198

> <dsstox_compound_id>
DTXCID3030769

> <qc_level>
DSSTox_Low

> <Canonical_QSARr>
CC(C)CCOCCC(C)C

> <InChI_Code_QSARr>
InChI=1S/C10H22O/c1-9(2)5-7-11-8-6-10(3)4/h9-10H,5-8H2,1-4H3

> <InChI Key_QSARr>
AQZGPSLYZOOYQP-UHFFFAOYSA-N

> <Salt_Solvent>


> <Salt_Solvent_ID>
0

> <MPID>
101880

> <LogKmHL>
-0.45

> <Tr_1_Tst_0>
0

$$$$
100250
  Mrv171c012251910542D          

  9  9  0  0  0  0            999 V2000
    2.8587   -0.1833    0.0000 Cl  0  0  0  0  0  0  0  0  0  0  0  0
    2.1442   -0.5958    0.0000 C   0  0  0  0  0  0  0  0  0  0  0  0
    1.4298   -0.1833    0.0000 C   0  0  0  0  0  0  0  0  0  0  0  0
    1.4298    0.6417    0.0000 N   0  0  0  0  0  0  0  0  0  0  0  0
    0.7153   -0.5958    0.0000 C   0  0  0  0  0  0  0  0  0  0  0  0
    0.7153   -1.4208    0.0000 C   0  0  0  0  0  0  0  0  0  0  0  0
    1.4298   -1.8333    0.0000 C   0  0  0  0  0  0  0  0  0  0  0  0
    1.4298   -2.6583    0.0000 Cl  0  0  0  0  0  0  0  0  0  0  0  0
    2.1442   -1.4208    0.0000 C   0  0  0  0  0  0  0  0  0  0  0  0
  1  2  1  0  0  0  0
  3  2  1  0  0  0  0
  3  4  1  0  0  0  0
  5  3  2  0  0  0  0
  6  5  1  0  0  0  0
  7  6  2  0  0  0  0
  7  8  1  0  0  0  0
  9  7  1  0  0  0  0
  2  9  2  0  0  0  0
M  END
> <ChemID>
100250

> <CAS>
554-00-7

> <Original_SMILES>
Nc1ccc(Cl)cc1Cl

> <preferred_name>
2,4-Dichloroaniline

> <dsstox_substance_id>
DTXSID1024966

> <dsstox_compound_id>
DTXCID404966

> <qc_level>
DSSTox_Low

> <Canonical_QSARr>
NC1=CC=C(Cl)C=C1Cl

> <InChI_Code_QSARr>
InChI=1S/C6H5Cl2N/c7-4-1-2-6(9)5(8)3-4/h1-3H,9H2

> <InChI Key_QSARr>
KQCMTOWTPBNWDB-UHFFFAOYSA-N

> <Salt_Solvent>


> <Salt_Solvent_ID>
0

> <MPID>
101881

> <LogKmHL>
-0.65

> <Tr_1_Tst_0>
1

$$$$
100251
  Mrv171c012251910542D          

 10 10  0  0  0  0            999 V2000
    2.8524   -2.6048    0.0000 O   0  0  0  0  0  0  0  0  0  0  0  0
    2.1380   -2.1923    0.0000 C   0  0  0  0  0  0  0  0  0  0  0  0
    2.1380   -1.3673    0.0000 C   0  0  0  0  0  0  0  0  0  0  0  0
    1.4235   -0.9548    0.0000 C   0  0  0  0  0  0  0  0  0  0  0  0
    1.4235   -0.1298    0.0000 N   0  3  0  0  0  0  0  0  0  0  0  0
    0.7090    0.2827    0.0000 O   0  0  0  0  0  0  0  0  0  0  0  0
    2.1380    0.2827    0.0000 O   0  5  0  0  0  0  0  0  0  0  0  0
    0.7090   -1.3673    0.0000 C   0  0  0  0  0  0  0  0  0  0  0  0
    0.7090   -2.1923    0.0000 C   0  0  0  0  0  0  0  0  0  0  0  0
    1.4235   -2.6048    0.0000 C   0  0  0  0  0  0  0  0  0  0  0  0
  1  2  1  0  0  0  0
  3  2  1  0  0  0  0
  4  3  2  0  0  0  0
  4  5  1  0  0  0  0
  5  6  2  0  0  0  0
  5  7  1  0  0  0  0
  8  4  1  0  0  0  0
  9  8  2  0  0  0  0
 10  9  1  0  0  0  0
  2 10  2  0  0  0  0
M  CHG  2   5   1   7  -1
M  END
> <ChemID>
100251

> <CAS>
554-84-7

> <Original_SMILES>
[O-][N+](=O)c1cccc(O)c1

> <preferred_name>
3-Nitrophenol

> <dsstox_substance_id>
DTXSID2025765

> <dsstox_compound_id>
DTXCID705765

> <qc_level>
DSSTox_Low

> <Canonical_QSARr>
[O-][N+](=O)C1C=CC=C(O)C=1

> <InChI_Code_QSARr>
InChI=1S/C6H5NO3/c8-6-3-1-2-5(4-6)7(9)10/h1-4,8H

> <InChI Key_QSARr>
RTZZCYNQPHTPPL-UHFFFAOYSA-N

> <Salt_Solvent>


> <Salt_Solvent_ID>
0

> <MPID>
101882

> <LogKmHL>
-0.49

> <Tr_1_Tst_0>
1

$$$$
100252
  Mrv171c012251910542D          

 11 11  0  0  0  0            999 V2000
    0.7794    0.2250    0.0000 C   0  0  0  0  0  0  0  0  0  0  0  0
    0.0649   -0.1875    0.0000 N   0  3  0  0  0  0  0  0  0  0  0  0
    0.0649   -1.0125    0.0000 O   0  5  0  0  0  0  0  0  0  0  0  0
   -0.6495    0.2250    0.0000 O   0  0  0  0  0  0  0  0  0  0  0  0
    1.4939   -0.1875    0.0000 C   0  0  0  0  0  0  0  0  0  0  0  0
    2.2084    0.2250    0.0000 C   0  0  0  0  0  0  0  0  0  0  0  0
    2.2084    1.0500    0.0000 C   0  0  0  0  0  0  0  0  0  0  0  0
    1.4939    1.4625    0.0000 C   0  0  0  0  0  0  0  0  0  0  0  0
    1.4939    2.2875    0.0000 O   0  0  0  0  0  0  0  0  0  0  0  0
    0.7794    2.7000    0.0000 C   0  0  0  0  0  0  0  0  0  0  0  0
    0.7794    1.0500    0.0000 C   0  0  0  0  0  0  0  0  0  0  0  0
  1  2  1  0  0  0  0
  2  3  1  0  0  0  0
  2  4  2  0  0  0  0
  5  1  1  0  0  0  0
  6  5  2  0  0  0  0
  7  6  1  0  0  0  0
  8  7  2  0  0  0  0
  8  9  1  0  0  0  0
  9 10  1  0  0  0  0
 11  8  1  0  0  0  0
  1 11  2  0  0  0  0
M  CHG  2   2   1   3  -1
M  END
> <ChemID>
100252

> <CAS>
555-03-3

> <Original_SMILES>
COc1cc(ccc1)[N+]([O-])=O

> <preferred_name>
Benzene, 1-methoxy-3-nitro-

> <dsstox_substance_id>
DTXSID3060295

> <dsstox_compound_id>
DTXCID3041900

> <qc_level>
Public_High

> <Canonical_QSARr>
COC1C=C(C=CC=1)[N+]([O-])=O

> <InChI_Code_QSARr>
InChI=1S/C7H7NO3/c1-11-7-4-2-3-6(5-7)8(9)10/h2-5H,1H3

> <InChI Key_QSARr>
WGYFINWERLNPHR-UHFFFAOYSA-N

> <Salt_Solvent>


> <Salt_Solvent_ID>
0

> <MPID>
101883

> <LogKmHL>
-1.04

> <Tr_1_Tst_0>
1

$$$$
100253
  Mrv171c012251910542D          

 16 16  0  0  0  0            999 V2000
    2.5687   -1.0490    0.0000 O   0  0  0  0  0  0  0  0  0  0  0  0
    1.8065   -0.7333    0.0000 Si  0  0  0  0  0  0  0  0  0  0  0  0
    2.3087   -0.0788    0.0000 C   0  0  0  0  0  0  0  0  0  0  0  0
    1.3042   -0.0788    0.0000 C   0  0  0  0  0  0  0  0  0  0  0  0
    1.0443   -1.0490    0.0000 O   0  0  0  0  0  0  0  0  0  0  0  0
    0.7285   -1.8112    0.0000 Si  0  0  0  0  0  0  0  0  0  0  0  0
    0.0740   -1.3090    0.0000 C   0  0  0  0  0  0  0  0  0  0  0  0
    0.0740   -2.3135    0.0000 C   0  0  0  0  0  0  0  0  0  0  0  0
    1.0443   -2.5734    0.0000 O   0  0  0  0  0  0  0  0  0  0  0  0
    1.8065   -2.8892    0.0000 Si  0  0  0  0  0  0  0  0  0  0  0  0
    1.3042   -3.5437    0.0000 C   0  0  0  0  0  0  0  0  0  0  0  0
    2.3087   -3.5437    0.0000 C   0  0  0  0  0  0  0  0  0  0  0  0
    2.5687   -2.5734    0.0000 O   0  0  0  0  0  0  0  0  0  0  0  0
    2.8844   -1.8112    0.0000 Si  0  0  0  0  0  0  0  0  0  0  0  0
    3.6243   -2.1761    0.0000 C   0  0  0  0  0  0  0  0  0  0  0  0
    3.6243   -1.4464    0.0000 C   0  0  0  0  0  0  0  0  0  0  0  0
  2  1  1  0  0  0  0
  2  3  1  0  0  0  0
  2  4  1  0  0  0  0
  5  2  1  0  0  0  0
  6  5  1  0  0  0  0
  6  7  1  0  0  0  0
  6  8  1  0  0  0  0
  9  6  1  0  0  0  0
 10  9  1  0  0  0  0
 10 11  1  0  0  0  0
 10 12  1  0  0  0  0
 13 10  1  0  0  0  0
 14 13  1  0  0  0  0
  1 14  1  0  0  0  0
 14 15  1  0  0  0  0
 14 16  1  0  0  0  0
M  END
> <ChemID>
100253

> <CAS>
556-67-2

> <Original_SMILES>
C[Si]1(C)O[Si](C)(C)O[Si](C)(C)O[Si](C)(C)O1

> <preferred_name>
Octamethylcyclotetrasiloxane

> <dsstox_substance_id>
DTXSID7027205

> <dsstox_compound_id>
DTXCID107205

> <qc_level>
DSSTox_Low

> <Canonical_QSARr>
C[Si]1(C)O[Si](C)(C)O[Si](C)(C)O[Si](C)(C)O1

> <InChI_Code_QSARr>
InChI=1S/C8H24O4Si4/c1-13(2)9-14(3,4)11-16(7,8)12-15(5,6)10-13/h1-8H3

> <InChI Key_QSARr>
HMMGMWAXVFQUOA-UHFFFAOYSA-N

> <Salt_Solvent>


> <Salt_Solvent_ID>
0

> <MPID>
101884

> <LogKmHL>
1.88

> <Tr_1_Tst_0>
0

$$$$
100254
  Mrv171c012251910542D          

 12 13  0  0  0  0            999 V2000
    0.2382   -0.5500    0.0000 C   0  0  0  0  0  0  0  0  0  0  0  0
   -0.4763   -0.1375    0.0000 C   0  0  0  0  0  0  0  0  0  0  0  0
   -1.1908   -0.5500    0.0000 C   0  0  0  0  0  0  0  0  0  0  0  0
   -1.1908   -1.3750    0.0000 C   0  0  0  0  0  0  0  0  0  0  0  0
   -0.4763   -1.7875    0.0000 C   0  0  0  0  0  0  0  0  0  0  0  0
    0.2382   -1.3750    0.0000 C   0  0  0  0  0  0  0  0  0  0  0  0
    0.9526   -1.7875    0.0000 C   0  0  0  0  0  0  0  0  0  0  0  0
    1.6671   -1.3750    0.0000 C   0  0  0  0  0  0  0  0  0  0  0  0
    2.3816   -1.7875    0.0000 C   0  0  0  0  0  0  0  0  0  0  0  0
    1.6671   -0.5500    0.0000 C   0  0  0  0  0  0  0  0  0  0  0  0
    0.9526   -0.1375    0.0000 C   0  0  0  0  0  0  0  0  0  0  0  0
    0.9526    0.6875    0.0000 C   0  0  0  0  0  0  0  0  0  0  0  0
  2  1  1  0  0  0  0
  3  2  2  0  0  0  0
  4  3  1  0  0  0  0
  5  4  2  0  0  0  0
  6  5  1  0  0  0  0
  6  1  1  0  0  0  0
  7  6  2  0  0  0  0
  8  7  1  0  0  0  0
  8  9  1  0  0  0  0
 10  8  2  0  0  0  0
 11 10  1  0  0  0  0
  1 11  2  0  0  0  0
 11 12  1  0  0  0  0
M  END
> <ChemID>
100254

> <CAS>
575-41-7

> <Original_SMILES>
Cc1cc2ccccc2c(C)c1

> <preferred_name>
1,3-Dimethylnaphthalene

> <dsstox_substance_id>
DTXSID9060360

> <dsstox_compound_id>
DTXCID2042226

> <qc_level>
Public_High

> <Canonical_QSARr>
CC1C=C2C=CC=CC2=C(C)C=1

> <InChI_Code_QSARr>
InChI=1S/C12H12/c1-9-7-10(2)12-6-4-3-5-11(12)8-9/h3-8H,1-2H3

> <InChI Key_QSARr>
QHJMFSMPSZREIF-UHFFFAOYSA-N

> <Salt_Solvent>


> <Salt_Solvent_ID>
0

> <MPID>
101885

> <LogKmHL>
0.51

> <Tr_1_Tst_0>
1

$$$$
100255
  Mrv171c012251910542D          

 11 11  0  0  0  0            999 V2000
    0.3248    1.2375    0.0000 C   0  0  0  0  0  0  0  0  0  0  0  0
   -0.3897    0.8250    0.0000 C   0  0  0  0  0  0  0  0  0  0  0  0
   -0.3897   -0.0000    0.0000 C   0  0  0  0  0  0  0  0  0  0  0  0
    0.3248   -0.4125    0.0000 C   0  0  0  0  0  0  0  0  0  0  0  0
    1.0392    0.0000    0.0000 C   0  0  0  0  0  0  0  0  0  0  0  0
    1.0392    0.8250    0.0000 C   0  0  0  0  0  0  0  0  0  0  0  0
    0.3248    2.0625    0.0000 N   0  0  0  0  0  0  0  0  0  0  0  0
   -0.3897    2.4750    0.0000 C   0  0  0  0  0  0  0  0  0  0  0  0
    1.0392    2.4750    0.0000 C   0  0  0  0  0  0  0  0  0  0  0  0
    1.0392    3.3000    0.0000 O   0  0  0  0  0  0  0  0  0  0  0  0
    1.7537    2.0625    0.0000 C   0  0  0  0  0  0  0  0  0  0  0  0
  2  1  1  0  0  0  0
  3  2  2  0  0  0  0
  4  3  1  0  0  0  0
  5  4  2  0  0  0  0
  6  5  1  0  0  0  0
  1  6  2  0  0  0  0
  1  7  1  0  0  0  0
  7  8  1  0  0  0  0
  7  9  1  0  0  0  0
  9 10  2  0  0  0  0
  9 11  1  0  0  0  0
M  END
> <ChemID>
100255

> <CAS>
579-10-2

> <Original_SMILES>
CC(=O)N(C)c1ccccc1

> <preferred_name>
Acetamide, N-methyl-N-phenyl-

> <dsstox_substance_id>
DTXSID8060373

> <dsstox_compound_id>
DTXCID7042279

> <qc_level>
Public_High

> <Canonical_QSARr>
CC(=O)N(C)C1C=CC=CC=1

> <InChI_Code_QSARr>
InChI=1S/C9H11NO/c1-8(11)10(2)9-6-4-3-5-7-9/h3-7H,1-2H3

> <InChI Key_QSARr>
LMTGCJANOQOGPI-UHFFFAOYSA-N

> <Salt_Solvent>


> <Salt_Solvent_ID>
0

> <MPID>
101886

> <LogKmHL>
-1.12

> <Tr_1_Tst_0>
1

$$$$
100256
  Mrv171c012251910542D          

 12 13  0  0  0  0            999 V2000
   -0.0000   -0.4125    0.0000 C   0  0  0  0  0  0  0  0  0  0  0  0
   -0.7145    0.0000    0.0000 C   0  0  0  0  0  0  0  0  0  0  0  0
   -1.4289   -0.4125    0.0000 C   0  0  0  0  0  0  0  0  0  0  0  0
   -1.4289   -1.2375    0.0000 C   0  0  0  0  0  0  0  0  0  0  0  0
   -0.7145   -1.6500    0.0000 C   0  0  0  0  0  0  0  0  0  0  0  0
   -0.0000   -1.2375    0.0000 C   0  0  0  0  0  0  0  0  0  0  0  0
    0.7145   -1.6500    0.0000 C   0  0  0  0  0  0  0  0  0  0  0  0
    1.4289   -1.2375    0.0000 C   0  0  0  0  0  0  0  0  0  0  0  0
    2.1434   -1.6500    0.0000 C   0  0  0  0  0  0  0  0  0  0  0  0
    1.4289   -0.4125    0.0000 C   0  0  0  0  0  0  0  0  0  0  0  0
    2.1434    0.0000    0.0000 C   0  0  0  0  0  0  0  0  0  0  0  0
    0.7145    0.0000    0.0000 C   0  0  0  0  0  0  0  0  0  0  0  0
  2  1  1  0  0  0  0
  3  2  2  0  0  0  0
  4  3  1  0  0  0  0
  5  4  2  0  0  0  0
  6  5  1  0  0  0  0
  6  1  1  0  0  0  0
  7  6  2  0  0  0  0
  8  7  1  0  0  0  0
  8  9  1  0  0  0  0
 10  8  2  0  0  0  0
 10 11  1  0  0  0  0
 12 10  1  0  0  0  0
  1 12  2  0  0  0  0
M  END
> <ChemID>
100256

> <CAS>
581-40-8

> <Original_SMILES>
Cc1cc2ccccc2cc1C

> <preferred_name>
2,3-Dimethylnaphthalene

> <dsstox_substance_id>
DTXSID2060383

> <dsstox_compound_id>
DTXCID6042317

> <qc_level>
Public_High

> <Canonical_QSARr>
CC1C=C2C=CC=CC2=CC=1C

> <InChI_Code_QSARr>
InChI=1S/C12H12/c1-9-7-11-5-3-4-6-12(11)8-10(9)2/h3-8H,1-2H3

> <InChI Key_QSARr>
WWGUMAYGTYQSGA-UHFFFAOYSA-N

> <Salt_Solvent>


> <Salt_Solvent_ID>
0

> <MPID>
101887

> <LogKmHL>
0.03

> <Tr_1_Tst_0>
1

$$$$
100257
  Mrv171c012251910542D          

  8  8  0  0  0  0            999 V2000
    1.4289    0.8250    0.0000 C   0  0  0  0  0  0  0  0  0  0  0  0
    0.7145    1.2375    0.0000 C   0  0  0  0  0  0  0  0  0  0  0  0
    0.7145    2.0625    0.0000 Br  0  0  0  0  0  0  0  0  0  0  0  0
   -0.0000    0.8250    0.0000 C   0  0  0  0  0  0  0  0  0  0  0  0
   -0.0000    0.0000    0.0000 C   0  0  0  0  0  0  0  0  0  0  0  0
    0.7145   -0.4125    0.0000 C   0  0  0  0  0  0  0  0  0  0  0  0
    1.4289   -0.0000    0.0000 C   0  0  0  0  0  0  0  0  0  0  0  0
    2.1434   -0.4125    0.0000 O   0  0  0  0  0  0  0  0  0  0  0  0
  2  1  1  0  0  0  0
  2  3  1  0  0  0  0
  4  2  2  0  0  0  0
  5  4  1  0  0  0  0
  6  5  2  0  0  0  0
  7  6  1  0  0  0  0
  1  7  2  0  0  0  0
  7  8  1  0  0  0  0
M  END
> <ChemID>
100257

> <CAS>
591-20-8

> <Original_SMILES>
Oc1cc(Br)ccc1

> <preferred_name>
Phenol, 3-bromo-

> <dsstox_substance_id>
DTXSID9060449

> <dsstox_compound_id>
DTXCID4042541

> <qc_level>
Public_High

> <Canonical_QSARr>
OC1=CC(Br)=CC=C1

> <InChI_Code_QSARr>
InChI=1S/C6H5BrO/c7-5-2-1-3-6(8)4-5/h1-4,8H

> <InChI Key_QSARr>
MNOJRWOWILAHAV-UHFFFAOYSA-N

> <Salt_Solvent>


> <Salt_Solvent_ID>
0

> <MPID>
101888

> <LogKmHL>
-0.95

> <Tr_1_Tst_0>
0

$$$$
100258
  Mrv171c012251910542D          

  9  9  0  0  0  0            999 V2000
    2.3656   -1.8422    0.0000 C   0  0  0  0  0  0  0  0  0  0  0  0
    3.0801   -2.2547    0.0000 O   0  0  0  0  0  0  0  0  0  0  0  0
    2.3656   -1.0172    0.0000 C   0  0  0  0  0  0  0  0  0  0  0  0
    1.6512   -0.6047    0.0000 C   0  0  0  0  0  0  0  0  0  0  0  0
    1.6512    0.2203    0.0000 Cl  0  0  0  0  0  0  0  0  0  0  0  0
    0.9367   -1.0172    0.0000 C   0  0  0  0  0  0  0  0  0  0  0  0
    0.9367   -1.8422    0.0000 C   0  0  0  0  0  0  0  0  0  0  0  0
    0.2222   -2.2547    0.0000 Cl  0  0  0  0  0  0  0  0  0  0  0  0
    1.6512   -2.2547    0.0000 C   0  0  0  0  0  0  0  0  0  0  0  0
  1  2  1  0  0  0  0
  3  1  2  0  0  0  0
  4  3  1  0  0  0  0
  4  5  1  0  0  0  0
  6  4  2  0  0  0  0
  7  6  1  0  0  0  0
  7  8  1  0  0  0  0
  9  7  2  0  0  0  0
  1  9  1  0  0  0  0
M  END
> <ChemID>
100258

> <CAS>
591-35-5

> <Original_SMILES>
Oc1cc(Cl)cc(Cl)c1

> <preferred_name>
3,5-Dichlorophenol

> <dsstox_substance_id>
DTXSID2025006

> <dsstox_compound_id>
DTXCID905006

> <qc_level>
DSSTox_Low

> <Canonical_QSARr>
OC1C=C(Cl)C=C(Cl)C=1

> <InChI_Code_QSARr>
InChI=1S/C6H4Cl2O/c7-4-1-5(8)3-6(9)2-4/h1-3,9H

> <InChI Key_QSARr>
VPOMSPZBQMDLTM-UHFFFAOYSA-N

> <Salt_Solvent>


> <Salt_Solvent_ID>
0

> <MPID>
101889

> <LogKmHL>
-0.91

> <Tr_1_Tst_0>
1

$$$$
100259
  Mrv171c012251910542D          

 15 15  0  0  0  0            999 V2000
    0.6192   -1.2375    0.0000 O   0  0  0  0  0  0  0  0  0  0  0  0
    0.6192   -0.4125    0.0000 C   0  0  0  0  0  0  0  0  0  0  0  0
    1.3337    0.0000    0.0000 C   0  0  0  0  0  0  0  0  0  0  0  0
    2.0481   -0.4125    0.0000 C   0  0  0  0  0  0  0  0  0  0  0  0
    2.7626   -0.0000    0.0000 C   0  0  0  0  0  0  0  0  0  0  0  0
    2.7626    0.8250    0.0000 C   0  0  0  0  0  0  0  0  0  0  0  0
    2.0481    1.2375    0.0000 C   0  0  0  0  0  0  0  0  0  0  0  0
    2.0481    2.0625    0.0000 N   0  3  0  0  0  0  0  0  0  0  0  0
    1.3337    2.4750    0.0000 O   0  0  0  0  0  0  0  0  0  0  0  0
    2.7626    2.4750    0.0000 O   0  5  0  0  0  0  0  0  0  0  0  0
    1.3337    0.8250    0.0000 C   0  0  0  0  0  0  0  0  0  0  0  0
    0.6192    1.2375    0.0000 C   0  0  0  0  0  0  0  0  0  0  0  0
   -0.0953    0.8250    0.0000 O   0  0  0  0  0  0  0  0  0  0  0  0
    0.6192    2.0625    0.0000 O   0  0  0  0  0  0  0  0  0  0  0  0
   -0.0953    0.0000    0.0000 O   0  0  0  0  0  0  0  0  0  0  0  0
  1  2  2  0  0  0  0
  2  3  1  0  0  0  0
  4  3  1  0  0  0  0
  5  4  2  0  0  0  0
  6  5  1  0  0  0  0
  7  6  2  0  0  0  0
  7  8  1  0  0  0  0
  8  9  2  0  0  0  0
  8 10  1  0  0  0  0
 11  7  1  0  0  0  0
  3 11  2  0  0  0  0
 11 12  1  0  0  0  0
 12 13  1  0  0  0  0
 12 14  2  0  0  0  0
  2 15  1  0  0  0  0
M  CHG  2   8   1  10  -1
M  END
> <ChemID>
100259

> <CAS>
603-11-2

> <Original_SMILES>
[O-][N+](=O)c1cccc(c1C(O)=O)C(O)=O

> <preferred_name>
3-Nitrophthalic acid

> <dsstox_substance_id>
DTXSID9060528

> <dsstox_compound_id>
DTXCID1042786

> <qc_level>
Public_High

> <Canonical_QSARr>
[O-][N+](=O)C1=CC=CC(=C1C(O)=O)C(O)=O

> <InChI_Code_QSARr>
InChI=1S/C8H5NO6/c10-7(11)4-2-1-3-5(9(14)15)6(4)8(12)13/h1-3H,(H,10,11)(H,12,13)

> <InChI Key_QSARr>
KFIRODWJCYBBHY-UHFFFAOYSA-N

> <Salt_Solvent>


> <Salt_Solvent_ID>
0

> <MPID>
101890

> <LogKmHL>
-1.57

> <Tr_1_Tst_0>
1

$$$$
100260
  Mrv171c012251910542D          

 16 18  0  0  0  0            999 V2000
   -0.0000   -1.6500    0.0000 C   0  0  0  0  0  0  0  0  0  0  0  0
   -0.0000   -2.4750    0.0000 C   0  0  0  0  0  0  0  0  0  0  0  0
   -0.7145   -2.8875    0.0000 C   0  0  0  0  0  0  0  0  0  0  0  0
   -0.7145   -3.7125    0.0000 C   0  0  0  0  0  0  0  0  0  0  0  0
   -0.0000   -4.1250    0.0000 C   0  0  0  0  0  0  0  0  0  0  0  0
    0.7145   -3.7125    0.0000 C   0  0  0  0  0  0  0  0  0  0  0  0
    0.7145   -2.8875    0.0000 C   0  0  0  0  0  0  0  0  0  0  0  0
   -0.7145   -1.2375    0.0000 C   0  0  0  0  0  0  0  0  0  0  0  0
   -0.7145   -0.4125    0.0000 C   0  0  0  0  0  0  0  0  0  0  0  0
   -0.0000    0.0000    0.0000 C   0  0  0  0  0  0  0  0  0  0  0  0
    0.7145   -0.4125    0.0000 C   0  0  0  0  0  0  0  0  0  0  0  0
    1.4289    0.0000    0.0000 C   0  0  0  0  0  0  0  0  0  0  0  0
    2.1434   -0.4125    0.0000 C   0  0  0  0  0  0  0  0  0  0  0  0
    2.1434   -1.2375    0.0000 C   0  0  0  0  0  0  0  0  0  0  0  0
    1.4289   -1.6500    0.0000 C   0  0  0  0  0  0  0  0  0  0  0  0
    0.7145   -1.2375    0.0000 C   0  0  0  0  0  0  0  0  0  0  0  0
  1  2  1  0  0  0  0
  3  2  1  0  0  0  0
  4  3  2  0  0  0  0
  5  4  1  0  0  0  0
  6  5  2  0  0  0  0
  7  6  1  0  0  0  0
  2  7  2  0  0  0  0
  8  1  1  0  0  0  0
  9  8  2  0  0  0  0
 10  9  1  0  0  0  0
 11 10  2  0  0  0  0
 11 12  1  0  0  0  0
 12 13  2  0  0  0  0
 13 14  1  0  0  0  0
 14 15  2  0  0  0  0
 15 16  1  0  0  0  0
  1 16  2  0  0  0  0
 16 11  1  0  0  0  0
M  END
> <ChemID>
100260

> <CAS>
605-02-7

> <Original_SMILES>
c1ccccc1-c1cccc2ccccc21

> <preferred_name>
1-Phenylnaphthalene

> <dsstox_substance_id>
DTXSID8060539

> <dsstox_compound_id>
DTXCID1042815

> <qc_level>
Public_High

> <Canonical_QSARr>
C1=CC=C2C=CC=CC2=C1C1C=CC=CC=1

> <InChI_Code_QSARr>
InChI=1S/C16H12/c1-2-7-13(8-3-1)16-12-6-10-14-9-4-5-11-15(14)16/h1-12H

> <InChI Key_QSARr>
IYDMICQAKLQHLA-UHFFFAOYSA-N

> <Salt_Solvent>


> <Salt_Solvent_ID>
0

> <MPID>
101891

> <LogKmHL>
1.72

> <Tr_1_Tst_0>
1

$$$$
100261
  Mrv171c012251910542D          

 18 19  0  0  0  0            999 V2000
    2.5403   -0.5500    0.0000 C   0  0  0  0  0  0  0  0  0  0  0  0
    1.8259   -0.9625    0.0000 C   0  0  0  0  0  0  0  0  0  0  0  0
    1.1114   -0.5500    0.0000 O   0  0  0  0  0  0  0  0  0  0  0  0
    1.8259   -1.7875    0.0000 C   0  0  0  0  0  0  0  0  0  0  0  0
    1.1114   -2.2000    0.0000 C   0  0  0  0  0  0  0  0  0  0  0  0
    1.1114   -3.0250    0.0000 C   0  0  0  0  0  0  0  0  0  0  0  0
    1.8259   -3.4375    0.0000 C   0  0  0  0  0  0  0  0  0  0  0  0
    2.5403   -3.0250    0.0000 C   0  0  0  0  0  0  0  0  0  0  0  0
    2.5403   -2.2000    0.0000 C   0  0  0  0  0  0  0  0  0  0  0  0
    3.2548   -0.9625    0.0000 C   0  0  0  0  0  0  0  0  0  0  0  0
    3.9693   -0.5500    0.0000 C   0  0  0  0  0  0  0  0  0  0  0  0
    3.9693    0.2750    0.0000 C   0  0  0  0  0  0  0  0  0  0  0  0
    3.2548    0.6875    0.0000 C   0  0  0  0  0  0  0  0  0  0  0  0
    2.5403    0.2750    0.0000 C   0  0  0  0  0  0  0  0  0  0  0  0
    1.8259    0.6875    0.0000 C   0  0  0  0  0  0  0  0  0  0  0  0
    1.1114    0.2750    0.0000 O   0  0  0  0  0  0  0  0  0  0  0  0
    1.8259    1.5125    0.0000 O   0  0  0  0  0  0  0  0  0  0  0  0
    1.1114    1.9250    0.0000 C   0  0  0  0  0  0  0  0  0  0  0  0
  1  2  1  0  0  0  0
  2  3  2  0  0  0  0
  2  4  1  0  0  0  0
  5  4  1  0  0  0  0
  6  5  2  0  0  0  0
  7  6  1  0  0  0  0
  8  7  2  0  0  0  0
  9  8  1  0  0  0  0
  4  9  2  0  0  0  0
 10  1  1  0  0  0  0
 11 10  2  0  0  0  0
 12 11  1  0  0  0  0
 13 12  2  0  0  0  0
 14 13  1  0  0  0  0
  1 14  2  0  0  0  0
 14 15  1  0  0  0  0
 15 16  2  0  0  0  0
 15 17  1  0  0  0  0
 17 18  1  0  0  0  0
M  END
> <ChemID>
100261

> <CAS>
606-28-0

> <Original_SMILES>
COC(=O)c1ccccc1C(=O)c1ccccc1

> <preferred_name>
Methyl o-benzoylbenzoate

> <dsstox_substance_id>
DTXSID2060549

> <dsstox_compound_id>
DTXCID8042840

> <qc_level>
Public_High

> <Canonical_QSARr>
COC(=O)C1C=CC=CC=1C(=O)C1C=CC=CC=1

> <InChI_Code_QSARr>
InChI=1S/C15H12O3/c1-18-15(17)13-10-6-5-9-12(13)14(16)11-7-3-2-4-8-11/h2-10H,1H3

> <InChI Key_QSARr>
NQSMEZJWJJVYOI-UHFFFAOYSA-N

> <Salt_Solvent>


> <Salt_Solvent_ID>
0

> <MPID>
101892

> <LogKmHL>
-1.3

> <Tr_1_Tst_0>
0

$$$$
100262
  Mrv171c012251910542D          

 11 11  0  0  0  0            999 V2000
    2.2661   -1.3099    0.0000 C   0  0  0  0  0  0  0  0  0  0  0  0
    2.9805   -1.7224    0.0000 Cl  0  0  0  0  0  0  0  0  0  0  0  0
    2.2661   -0.4849    0.0000 C   0  0  0  0  0  0  0  0  0  0  0  0
    1.5516   -0.0724    0.0000 C   0  0  0  0  0  0  0  0  0  0  0  0
    1.5516    0.7526    0.0000 Cl  0  0  0  0  0  0  0  0  0  0  0  0
    0.8371   -0.4849    0.0000 C   0  0  0  0  0  0  0  0  0  0  0  0
    0.1226   -0.0724    0.0000 Cl  0  0  0  0  0  0  0  0  0  0  0  0
    0.8371   -1.3099    0.0000 C   0  0  0  0  0  0  0  0  0  0  0  0
    0.1226   -1.7224    0.0000 Cl  0  0  0  0  0  0  0  0  0  0  0  0
    1.5516   -1.7224    0.0000 C   0  0  0  0  0  0  0  0  0  0  0  0
    1.5516   -2.5474    0.0000 Cl  0  0  0  0  0  0  0  0  0  0  0  0
  1  2  1  0  0  0  0
  3  1  2  0  0  0  0
  4  3  1  0  0  0  0
  4  5  1  0  0  0  0
  6  4  2  0  0  0  0
  6  7  1  0  0  0  0
  8  6  1  0  0  0  0
  8  9  1  0  0  0  0
 10  8  2  0  0  0  0
  1 10  1  0  0  0  0
 10 11  1  0  0  0  0
M  END
> <ChemID>
100262

> <CAS>
608-93-5

> <Original_SMILES>
Clc1c(Cl)c(Cl)cc(Cl)c1Cl

> <preferred_name>
Pentachlorobenzene

> <dsstox_substance_id>
DTXSID7024247

> <dsstox_compound_id>
DTXCID804247

> <qc_level>
DSSTox_Low

> <Canonical_QSARr>
ClC1=CC(Cl)=C(Cl)C(Cl)=C1Cl

> <InChI_Code_QSARr>
InChI=1S/C6HCl5/c7-2-1-3(8)5(10)6(11)4(2)9/h1H

> <InChI Key_QSARr>
CEOCDNVZRAIOQZ-UHFFFAOYSA-N

> <Salt_Solvent>


> <Salt_Solvent_ID>
0

> <MPID>
101893

> <LogKmHL>
1.87

> <Tr_1_Tst_0>
1

$$$$
100263
  Mrv171c012251910542D          

 13 13  0  0  0  0            999 V2000
    2.1927   -1.7150    0.0000 C   0  0  0  0  0  0  0  0  0  0  0  0
    2.9071   -1.3025    0.0000 N   0  3  0  0  0  0  0  0  0  0  0  0
    3.6216   -1.7150    0.0000 O   0  0  0  0  0  0  0  0  0  0  0  0
    2.9071   -0.4775    0.0000 O   0  5  0  0  0  0  0  0  0  0  0  0
    1.4782   -1.3025    0.0000 C   0  0  0  0  0  0  0  0  0  0  0  0
    1.4782   -0.4775    0.0000 N   0  3  0  0  0  0  0  0  0  0  0  0
    0.7637   -0.0650    0.0000 O   0  0  0  0  0  0  0  0  0  0  0  0
    2.1927   -0.0650    0.0000 O   0  5  0  0  0  0  0  0  0  0  0  0
    0.7637   -1.7150    0.0000 C   0  0  0  0  0  0  0  0  0  0  0  0
    0.7637   -2.5400    0.0000 C   0  0  0  0  0  0  0  0  0  0  0  0
    0.0492   -2.9525    0.0000 C   0  0  0  0  0  0  0  0  0  0  0  0
    1.4782   -2.9525    0.0000 C   0  0  0  0  0  0  0  0  0  0  0  0
    2.1927   -2.5400    0.0000 C   0  0  0  0  0  0  0  0  0  0  0  0
  1  2  1  0  0  0  0
  2  3  2  0  0  0  0
  2  4  1  0  0  0  0
  5  1  1  0  0  0  0
  5  6  1  0  0  0  0
  6  7  2  0  0  0  0
  6  8  1  0  0  0  0
  9  5  2  0  0  0  0
 10  9  1  0  0  0  0
 10 11  1  0  0  0  0
 12 10  2  0  0  0  0
 13 12  1  0  0  0  0
  1 13  2  0  0  0  0
M  CHG  4   2   1   4  -1   6   1   8  -1
M  END
> <ChemID>
100263

> <CAS>
610-39-9

> <Original_SMILES>
Cc1cc(c(cc1)[N+]([O-])=O)[N+]([O-])=O

> <preferred_name>
3,4-Dinitrotoluene

> <dsstox_substance_id>
DTXSID8027240

> <dsstox_compound_id>
DTXCID307240

> <qc_level>
DSSTox_Low

> <Canonical_QSARr>
CC1C=C(C(=CC=1)[N+]([O-])=O)[N+]([O-])=O

> <InChI_Code_QSARr>
InChI=1S/C7H6N2O4/c1-5-2-3-6(8(10)11)7(4-5)9(12)13/h2-4H,1H3

> <InChI Key_QSARr>
INYDMNPNDHRJQJ-UHFFFAOYSA-N

> <Salt_Solvent>


> <Salt_Solvent_ID>
0

> <MPID>
101894

> <LogKmHL>
-1.4

> <Tr_1_Tst_0>
1

$$$$
100264
  Mrv171c012251910542D          

 11 11  0  0  0  0            999 V2000
    3.2006   -0.8085    0.0000 N   0  3  0  0  0  0  0  0  0  0  0  0
    2.4861   -1.2210    0.0000 C   0  0  0  0  0  0  0  0  0  0  0  0
    1.7716   -0.8085    0.0000 C   0  0  0  0  0  0  0  0  0  0  0  0
    1.7716    0.0165    0.0000 Cl  0  0  0  0  0  0  0  0  0  0  0  0
    1.0572   -1.2210    0.0000 C   0  0  0  0  0  0  0  0  0  0  0  0
    1.0572   -2.0460    0.0000 C   0  0  0  0  0  0  0  0  0  0  0  0
    0.3427   -2.4585    0.0000 Cl  0  0  0  0  0  0  0  0  0  0  0  0
    1.7716   -2.4585    0.0000 C   0  0  0  0  0  0  0  0  0  0  0  0
    2.4861   -2.0460    0.0000 C   0  0  0  0  0  0  0  0  0  0  0  0
    3.2006    0.0165    0.0000 O   0  5  0  0  0  0  0  0  0  0  0  0
    3.9150   -1.2210    0.0000 O   0  0  0  0  0  0  0  0  0  0  0  0
  1  2  1  0  0  0  0
  3  2  1  0  0  0  0
  3  4  1  0  0  0  0
  5  3  2  0  0  0  0
  6  5  1  0  0  0  0
  6  7  1  0  0  0  0
  8  6  2  0  0  0  0
  9  8  1  0  0  0  0
  2  9  2  0  0  0  0
  1 10  1  0  0  0  0
  1 11  2  0  0  0  0
M  CHG  2   1   1  10  -1
M  END
> <ChemID>
100264

> <CAS>
611-06-3

> <Original_SMILES>
[O-][N+](=O)c1ccc(Cl)cc1Cl

> <preferred_name>
2,4-Dichloronitrobenzene

> <dsstox_substance_id>
DTXSID3024998

> <dsstox_compound_id>
DTXCID104998

> <qc_level>
DSSTox_Low

> <Canonical_QSARr>
[O-][N+](=O)C1=CC=C(Cl)C=C1Cl

> <InChI_Code_QSARr>
InChI=1S/C6H3Cl2NO2/c7-4-1-2-6(9(10)11)5(8)3-4/h1-3H

> <InChI Key_QSARr>
QUIMTLZDMCNYGY-UHFFFAOYSA-N

> <Salt_Solvent>


> <Salt_Solvent_ID>
0

> <MPID>
101895

> <LogKmHL>
0.83

> <Tr_1_Tst_0>
1

$$$$
100265
  Mrv171c012251910542D          

  9  9  0  0  0  0            999 V2000
   -0.3175    1.2833    0.0000 N   0  0  0  0  0  0  0  0  0  0  0  0
   -0.3175    2.1083    0.0000 C   0  0  0  0  0  0  0  0  0  0  0  0
    0.3969    0.8708    0.0000 C   0  0  0  0  0  0  0  0  0  0  0  0
    0.3969    0.0458    0.0000 C   0  0  0  0  0  0  0  0  0  0  0  0
    1.1114   -0.3667    0.0000 C   0  0  0  0  0  0  0  0  0  0  0  0
    1.8259    0.0458    0.0000 C   0  0  0  0  0  0  0  0  0  0  0  0
    1.8259    0.8708    0.0000 C   0  0  0  0  0  0  0  0  0  0  0  0
    1.1114    1.2833    0.0000 C   0  0  0  0  0  0  0  0  0  0  0  0
    1.1114    2.1083    0.0000 C   0  0  0  0  0  0  0  0  0  0  0  0
  1  2  1  0  0  0  0
  1  3  1  0  0  0  0
  4  3  1  0  0  0  0
  5  4  2  0  0  0  0
  6  5  1  0  0  0  0
  7  6  2  0  0  0  0
  8  7  1  0  0  0  0
  3  8  2  0  0  0  0
  8  9  1  0  0  0  0
M  END
> <ChemID>
100265

> <CAS>
611-21-2

> <Original_SMILES>
Cc1ccccc1NC

> <preferred_name>
Benzenamine, N,2-dimethyl-

> <dsstox_substance_id>
DTXSID4060600

> <dsstox_compound_id>
DTXCID9042964

> <qc_level>
Public_High

> <Canonical_QSARr>
CC1C=CC=CC=1NC

> <InChI_Code_QSARr>
InChI=1S/C8H11N/c1-7-5-3-4-6-8(7)9-2/h3-6,9H,1-2H3

> <InChI Key_QSARr>
GUAWMXYQZKVRCW-UHFFFAOYSA-N

> <Salt_Solvent>


> <Salt_Solvent_ID>
0

> <MPID>
101896

> <LogKmHL>
-0.74

> <Tr_1_Tst_0>
0

$$$$
100266
  Mrv171c012251910542D          

 11 11  0  0  0  0            999 V2000
    2.0135    0.7875    0.0000 C   0  0  0  0  0  0  0  0  0  0  0  0
    1.2990    1.2000    0.0000 C   0  0  0  0  0  0  0  0  0  0  0  0
    0.5846    0.7875    0.0000 C   0  0  0  0  0  0  0  0  0  0  0  0
   -0.1299    1.2000    0.0000 C   0  0  0  0  0  0  0  0  0  0  0  0
   -0.1299    2.0250    0.0000 N   0  3  0  0  0  0  0  0  0  0  0  0
   -0.8444    2.4375    0.0000 O   0  0  0  0  0  0  0  0  0  0  0  0
    0.5846    2.4375    0.0000 O   0  5  0  0  0  0  0  0  0  0  0  0
   -0.8444    0.7875    0.0000 C   0  0  0  0  0  0  0  0  0  0  0  0
   -0.8444   -0.0375    0.0000 C   0  0  0  0  0  0  0  0  0  0  0  0
   -0.1299   -0.4500    0.0000 C   0  0  0  0  0  0  0  0  0  0  0  0
    0.5846   -0.0375    0.0000 C   0  0  0  0  0  0  0  0  0  0  0  0
  1  2  1  0  0  0  0
  2  3  1  0  0  0  0
  4  3  1  0  0  0  0
  4  5  1  0  0  0  0
  5  6  2  0  0  0  0
  5  7  1  0  0  0  0
  8  4  2  0  0  0  0
  9  8  1  0  0  0  0
 10  9  2  0  0  0  0
 11 10  1  0  0  0  0
  3 11  2  0  0  0  0
M  CHG  2   5   1   7  -1
M  END
> <ChemID>
100266

> <CAS>
612-22-6

> <Original_SMILES>
CCc1ccccc1[N+]([O-])=O

> <preferred_name>
Benzene, 1-ethyl-2-nitro-

> <dsstox_substance_id>
DTXSID4073209

> <dsstox_compound_id>
DTXCID7042980

> <qc_level>
Public_High

> <Canonical_QSARr>
CCC1=CC=CC=C1[N+]([O-])=O

> <InChI_Code_QSARr>
InChI=1S/C8H9NO2/c1-2-7-5-3-4-6-8(7)9(10)11/h3-6H,2H2,1H3

> <InChI Key_QSARr>
PXWYZLWEKCMTEZ-UHFFFAOYSA-N

> <Salt_Solvent>


> <Salt_Solvent_ID>
0

> <MPID>
101897

> <LogKmHL>
-0.56

> <Tr_1_Tst_0>
1

$$$$
100267
  Mrv171c012251910542D          

 15 17  0  0  0  0            999 V2000
    2.8579    0.1100    0.0000 C   0  0  0  0  0  0  0  0  0  0  0  0
    3.5723   -0.3025    0.0000 C   0  0  0  0  0  0  0  0  0  0  0  0
    4.2868    0.1100    0.0000 C   0  0  0  0  0  0  0  0  0  0  0  0
    5.0013   -0.3025    0.0000 C   0  0  0  0  0  0  0  0  0  0  0  0
    4.2868    0.9350    0.0000 C   0  0  0  0  0  0  0  0  0  0  0  0
    3.5723    1.3475    0.0000 C   0  0  0  0  0  0  0  0  0  0  0  0
    2.8579    0.9350    0.0000 C   0  0  0  0  0  0  0  0  0  0  0  0
    2.1434    1.3475    0.0000 C   0  0  0  0  0  0  0  0  0  0  0  0
    1.4289    0.9350    0.0000 C   0  0  0  0  0  0  0  0  0  0  0  0
    1.4289    0.1100    0.0000 C   0  0  0  0  0  0  0  0  0  0  0  0
    0.7144   -0.3025    0.0000 C   0  0  0  0  0  0  0  0  0  0  0  0
   -0.0000    0.1100    0.0000 C   0  0  0  0  0  0  0  0  0  0  0  0
   -0.0000    0.9350    0.0000 C   0  0  0  0  0  0  0  0  0  0  0  0
    0.7144    1.3475    0.0000 C   0  0  0  0  0  0  0  0  0  0  0  0
    2.1434   -0.3025    0.0000 C   0  0  0  0  0  0  0  0  0  0  0  0
  2  1  1  0  0  0  0
  3  2  2  0  0  0  0
  3  4  1  0  0  0  0
  5  3  1  0  0  0  0
  6  5  2  0  0  0  0
  7  6  1  0  0  0  0
  7  1  1  0  0  0  0
  8  7  2  0  0  0  0
  9  8  1  0  0  0  0
  9 10  1  0  0  0  0
 10 11  2  0  0  0  0
 11 12  1  0  0  0  0
 12 13  2  0  0  0  0
 13 14  1  0  0  0  0
 14  9  2  0  0  0  0
 15 10  1  0  0  0  0
  1 15  2  0  0  0  0
M  END
> <ChemID>
100267

> <CAS>
613-12-7

> <Original_SMILES>
Cc1cc2cc3ccccc3cc2cc1

> <preferred_name>
2-Methylanthracene

> <dsstox_substance_id>
DTXSID8060616

> <dsstox_compound_id>
DTXCID6042995

> <qc_level>
Public_High

> <Canonical_QSARr>
CC1=CC2=CC3=CC=CC=C3C=C2C=C1

> <InChI_Code_QSARr>
InChI=1S/C15H12/c1-11-6-7-14-9-12-4-2-3-5-13(12)10-15(14)8-11/h2-10H,1H3

> <InChI Key_QSARr>
GYMFBYTZOGMSQJ-UHFFFAOYSA-N

> <Salt_Solvent>


> <Salt_Solvent_ID>
0

> <MPID>
101898

> <LogKmHL>
-0.02

> <Tr_1_Tst_0>
1

$$$$
100268
  Mrv171c012251910542D          

  6  6  0  0  0  0            999 V2000
    0.5678    1.1143    0.0000 C   0  0  0  0  0  0  0  0  0  0  0  0
    0.5678    1.9393    0.0000 C   0  0  0  0  0  0  0  0  0  0  0  0
   -0.0997    0.6294    0.0000 C   0  0  0  0  0  0  0  0  0  0  0  0
    0.1553   -0.1553    0.0000 S   0  0  0  0  0  0  0  0  0  0  0  0
    0.9803   -0.1553    0.0000 C   0  0  0  0  0  0  0  0  0  0  0  0
    1.2352    0.6294    0.0000 C   0  0  0  0  0  0  0  0  0  0  0  0
  1  2  1  0  0  0  0
  3  1  2  0  0  0  0
  4  3  1  0  0  0  0
  5  4  1  0  0  0  0
  6  5  2  0  0  0  0
  1  6  1  0  0  0  0
M  END
> <ChemID>
100268

> <CAS>
616-44-4

> <Original_SMILES>
Cc1c[s]cc1

> <preferred_name>
Thiophene, 3-methyl-

> <dsstox_substance_id>
DTXSID8060666

> <dsstox_compound_id>
DTXCID7043083

> <qc_level>
Public_High

> <Canonical_QSARr>
CC1=CSC=C1

> <InChI_Code_QSARr>
InChI=1S/C5H6S/c1-5-2-3-6-4-5/h2-4H,1H3

> <InChI Key_QSARr>
QENGPZGAWFQWCZ-UHFFFAOYSA-N

> <Salt_Solvent>


> <Salt_Solvent_ID>
0

> <MPID>
101899

> <LogKmHL>
-1.27

> <Tr_1_Tst_0>
1

$$$$
100269
  Mrv171c012251910542D          

 11 11  0  0  0  0            999 V2000
    1.1042    0.5625    0.0000 C   0  0  0  0  0  0  0  0  0  0  0  0
    1.8186    0.1500    0.0000 N   0  3  0  0  0  0  0  0  0  0  0  0
    1.8186   -0.6750    0.0000 O   0  5  0  0  0  0  0  0  0  0  0  0
    2.5331    0.5625    0.0000 O   0  0  0  0  0  0  0  0  0  0  0  0
    1.1042    1.3875    0.0000 C   0  0  0  0  0  0  0  0  0  0  0  0
    0.3897    1.8000    0.0000 C   0  0  0  0  0  0  0  0  0  0  0  0
    0.3897    2.6250    0.0000 Cl  0  0  0  0  0  0  0  0  0  0  0  0
   -0.3248    1.3875    0.0000 C   0  0  0  0  0  0  0  0  0  0  0  0
   -0.3248    0.5625    0.0000 C   0  0  0  0  0  0  0  0  0  0  0  0
   -1.0392    0.1500    0.0000 Cl  0  0  0  0  0  0  0  0  0  0  0  0
    0.3897    0.1500    0.0000 C   0  0  0  0  0  0  0  0  0  0  0  0
  1  2  1  0  0  0  0
  2  3  1  0  0  0  0
  2  4  2  0  0  0  0
  5  1  1  0  0  0  0
  6  5  2  0  0  0  0
  6  7  1  0  0  0  0
  8  6  1  0  0  0  0
  9  8  2  0  0  0  0
  9 10  1  0  0  0  0
 11  9  1  0  0  0  0
  1 11  2  0  0  0  0
M  CHG  2   2   1   3  -1
M  END
> <ChemID>
100269

> <CAS>
618-62-2

> <Original_SMILES>
[O-][N+](=O)c1cc(Cl)cc(Cl)c1

> <preferred_name>
Benzene, 1,3-dichloro-5-nitro-

> <dsstox_substance_id>
DTXSID1060683

> <dsstox_compound_id>
DTXCID5043134

> <qc_level>
Public_High

> <Canonical_QSARr>
[O-][N+](=O)C1C=C(Cl)C=C(Cl)C=1

> <InChI_Code_QSARr>
InChI=1S/C6H3Cl2NO2/c7-4-1-5(8)3-6(2-4)9(10)11/h1-3H

> <InChI Key_QSARr>
RNABGKOKSBUFHW-UHFFFAOYSA-N

> <Salt_Solvent>


> <Salt_Solvent_ID>
0

> <MPID>
101900

> <LogKmHL>
0.57

> <Tr_1_Tst_0>
0

$$$$
100270
  Mrv171c012251910542D          

 10 10  0  0  0  0            999 V2000
    0.7145   -0.4125    0.0000 C   0  0  0  0  0  0  0  0  0  0  0  0
    0.7145   -1.2375    0.0000 C   0  0  0  0  0  0  0  0  0  0  0  0
    0.7145   -2.0625    0.0000 N   0  0  0  0  0  0  0  0  0  0  0  0
    1.4289    0.0000    0.0000 C   0  0  0  0  0  0  0  0  0  0  0  0
    1.4289    0.8250    0.0000 C   0  0  0  0  0  0  0  0  0  0  0  0
    0.7145    1.2375    0.0000 C   0  0  0  0  0  0  0  0  0  0  0  0
    0.7145    2.0625    0.0000 C   0  0  0  0  0  0  0  0  0  0  0  0
    0.7145    2.8875    0.0000 N   0  0  0  0  0  0  0  0  0  0  0  0
    0.0000    0.8250    0.0000 C   0  0  0  0  0  0  0  0  0  0  0  0
    0.0000    0.0000    0.0000 C   0  0  0  0  0  0  0  0  0  0  0  0
  1  2  1  0  0  0  0
  2  3  3  0  0  0  0
  4  1  1  0  0  0  0
  5  4  2  0  0  0  0
  6  5  1  0  0  0  0
  6  7  1  0  0  0  0
  7  8  3  0  0  0  0
  9  6  2  0  0  0  0
 10  9  1  0  0  0  0
  1 10  2  0  0  0  0
M  END
> <ChemID>
100270

> <CAS>
623-26-7

> <Original_SMILES>
N#Cc1ccc(cc1)C#N

> <preferred_name>
1,4-Benzenedicarbonitrile

> <dsstox_substance_id>
DTXSID1060768

> <dsstox_compound_id>
DTXCID7043299

> <qc_level>
Public_High

> <Canonical_QSARr>
N#CC1C=CC(=CC=1)C#N

> <InChI_Code_QSARr>
InChI=1S/C8H4N2/c9-5-7-1-2-8(6-10)4-3-7/h1-4H

> <InChI Key_QSARr>
BHXFKXOIODIUJO-UHFFFAOYSA-N

> <Salt_Solvent>


> <Salt_Solvent_ID>
0

> <MPID>
101901

> <LogKmHL>
-0.81

> <Tr_1_Tst_0>
1

$$$$
100271
  Mrv171c012251910542D          

 10 10  0  0  0  0            999 V2000
    2.4959   -1.4477    0.0000 C   0  0  0  0  0  0  0  0  0  0  0  0
    3.2104   -1.8602    0.0000 C   0  0  0  0  0  0  0  0  0  0  0  0
    3.9248   -2.2727    0.0000 N   0  0  0  0  0  0  0  0  0  0  0  0
    2.4959   -0.6227    0.0000 C   0  0  0  0  0  0  0  0  0  0  0  0
    1.7814   -0.2102    0.0000 C   0  0  0  0  0  0  0  0  0  0  0  0
    1.7814    0.6148    0.0000 C   0  0  0  0  0  0  0  0  0  0  0  0
    1.7814    1.4398    0.0000 N   0  0  0  0  0  0  0  0  0  0  0  0
    1.0670   -0.6227    0.0000 C   0  0  0  0  0  0  0  0  0  0  0  0
    1.0670   -1.4477    0.0000 C   0  0  0  0  0  0  0  0  0  0  0  0
    1.7814   -1.8602    0.0000 C   0  0  0  0  0  0  0  0  0  0  0  0
  1  2  1  0  0  0  0
  2  3  3  0  0  0  0
  4  1  1  0  0  0  0
  5  4  2  0  0  0  0
  5  6  1  0  0  0  0
  6  7  3  0  0  0  0
  8  5  1  0  0  0  0
  9  8  2  0  0  0  0
 10  9  1  0  0  0  0
  1 10  2  0  0  0  0
M  END
> <ChemID>
100271

> <CAS>
626-17-5

> <Original_SMILES>
N#Cc1cc(ccc1)C#N

> <preferred_name>
1,3-Benzenedicarbonitrile

> <dsstox_substance_id>
DTXSID7027259

> <dsstox_compound_id>
DTXCID207259

> <qc_level>
DSSTox_Low

> <Canonical_QSARr>
N#CC1C=C(C=CC=1)C#N

> <InChI_Code_QSARr>
InChI=1S/C8H4N2/c9-5-7-2-1-3-8(4-7)6-10/h1-4H

> <InChI Key_QSARr>
LAQPNDIUHRHNCV-UHFFFAOYSA-N

> <Salt_Solvent>


> <Salt_Solvent_ID>
0

> <MPID>
101902

> <LogKmHL>
-0.62

> <Tr_1_Tst_0>
1

$$$$
100272
  Mrv171c012251910542D          

  9  9  0  0  0  0            999 V2000
    2.1418   -1.2363    0.0000 C   0  0  0  0  0  0  0  0  0  0  0  0
    1.4274   -0.8238    0.0000 C   0  0  0  0  0  0  0  0  0  0  0  0
    1.4274    0.0012    0.0000 Br  0  0  0  0  0  0  0  0  0  0  0  0
    0.7129   -1.2363    0.0000 C   0  0  0  0  0  0  0  0  0  0  0  0
    0.7129   -2.0613    0.0000 C   0  0  0  0  0  0  0  0  0  0  0  0
   -0.0016   -2.4738    0.0000 Br  0  0  0  0  0  0  0  0  0  0  0  0
    1.4274   -2.4738    0.0000 C   0  0  0  0  0  0  0  0  0  0  0  0
    2.1418   -2.0613    0.0000 C   0  0  0  0  0  0  0  0  0  0  0  0
    2.8563   -2.4738    0.0000 Br  0  0  0  0  0  0  0  0  0  0  0  0
  2  1  2  0  0  0  0
  2  3  1  0  0  0  0
  4  2  1  0  0  0  0
  5  4  2  0  0  0  0
  5  6  1  0  0  0  0
  7  5  1  0  0  0  0
  8  7  2  0  0  0  0
  1  8  1  0  0  0  0
  8  9  1  0  0  0  0
M  END
> <ChemID>
100272

> <CAS>
626-39-1

> <Original_SMILES>
Brc1cc(Br)cc(Br)c1

> <preferred_name>
1,3,5-Tribromobenzene

> <dsstox_substance_id>
DTXSID3052307

> <dsstox_compound_id>
DTXCID0030879

> <qc_level>
DSSTox_Low

> <Canonical_QSARr>
BrC1C=C(Br)C=C(Br)C=1

> <InChI_Code_QSARr>
InChI=1S/C6H3Br3/c7-4-1-5(8)3-6(9)2-4/h1-3H

> <InChI Key_QSARr>
YWDUZLFWHVQCHY-UHFFFAOYSA-N

> <Salt_Solvent>


> <Salt_Solvent_ID>
0

> <MPID>
101903

> <LogKmHL>
1.65

> <Tr_1_Tst_0>
1

$$$$
100273
  Mrv171c012251910542D          

 13 12  0  0  0  0            999 V2000
   -0.0259   -0.0344    0.0000 C   0  0  0  0  0  0  0  0  0  0  0  0
    0.6885   -0.4469    0.0000 C   0  0  0  0  0  0  0  0  0  0  0  0
    1.4030   -0.0344    0.0000 C   0  0  0  0  0  0  0  0  0  0  0  0
    2.1175   -0.4469    0.0000 C   0  0  0  0  0  0  0  0  0  0  0  0
    2.8320   -0.0344    0.0000 C   0  0  0  0  0  0  0  0  0  0  0  0
    3.5464   -0.4469    0.0000 C   0  0  0  0  0  0  0  0  0  0  0  0
    4.2609   -0.0344    0.0000 C   0  0  0  0  0  0  0  0  0  0  0  0
    4.9754   -0.4469    0.0000 C   0  0  0  0  0  0  0  0  0  0  0  0
    5.6898   -0.0344    0.0000 C   0  0  0  0  0  0  0  0  0  0  0  0
    6.4043   -0.4469    0.0000 C   0  0  0  0  0  0  0  0  0  0  0  0
    7.1188   -0.0344    0.0000 C   0  0  0  0  0  0  0  0  0  0  0  0
    7.8332   -0.4469    0.0000 C   0  0  0  0  0  0  0  0  0  0  0  0
    8.5477   -0.0344    0.0000 C   0  0  0  0  0  0  0  0  0  0  0  0
  1  2  1  0  0  0  0
  2  3  1  0  0  0  0
  3  4  1  0  0  0  0
  4  5  1  0  0  0  0
  5  6  1  0  0  0  0
  6  7  1  0  0  0  0
  7  8  1  0  0  0  0
  8  9  1  0  0  0  0
  9 10  1  0  0  0  0
 10 11  1  0  0  0  0
 11 12  1  0  0  0  0
 12 13  1  0  0  0  0
M  END
> <ChemID>
100273

> <CAS>
629-50-5

> <Original_SMILES>
CCCCCCCCCCCCC

> <preferred_name>
Tridecane

> <dsstox_substance_id>
DTXSID6027266

> <dsstox_compound_id>
DTXCID307266

> <qc_level>
DSSTox_Low

> <Canonical_QSARr>
CCCCCCCCCCCCC

> <InChI_Code_QSARr>
InChI=1S/C13H28/c1-3-5-7-9-11-13-12-10-8-6-4-2/h3-13H2,1-2H3

> <InChI Key_QSARr>
IIYFAKIEWZDVMP-UHFFFAOYSA-N

> <Salt_Solvent>


> <Salt_Solvent_ID>
0

> <MPID>
101904

> <LogKmHL>
1.03

> <Tr_1_Tst_0>
0

$$$$
100274
  Mrv171c012251910542D          

 14 13  0  0  0  0            999 V2000
   -0.0189   -0.4144    0.0000 C   0  0  0  0  0  0  0  0  0  0  0  0
    0.6956   -0.0019    0.0000 C   0  0  0  0  0  0  0  0  0  0  0  0
    1.4100   -0.4144    0.0000 C   0  0  0  0  0  0  0  0  0  0  0  0
    2.1245   -0.0019    0.0000 C   0  0  0  0  0  0  0  0  0  0  0  0
    2.8390   -0.4144    0.0000 C   0  0  0  0  0  0  0  0  0  0  0  0
    3.5535   -0.0019    0.0000 C   0  0  0  0  0  0  0  0  0  0  0  0
    4.2679   -0.4144    0.0000 C   0  0  0  0  0  0  0  0  0  0  0  0
    4.9824   -0.0019    0.0000 C   0  0  0  0  0  0  0  0  0  0  0  0
    5.6969   -0.4144    0.0000 C   0  0  0  0  0  0  0  0  0  0  0  0
    6.4113   -0.0019    0.0000 C   0  0  0  0  0  0  0  0  0  0  0  0
    7.1258   -0.4144    0.0000 C   0  0  0  0  0  0  0  0  0  0  0  0
    7.8403   -0.0019    0.0000 C   0  0  0  0  0  0  0  0  0  0  0  0
    8.5548   -0.4144    0.0000 C   0  0  0  0  0  0  0  0  0  0  0  0
    9.2692   -0.0019    0.0000 C   0  0  0  0  0  0  0  0  0  0  0  0
  1  2  1  0  0  0  0
  2  3  1  0  0  0  0
  3  4  1  0  0  0  0
  4  5  1  0  0  0  0
  5  6  1  0  0  0  0
  6  7  1  0  0  0  0
  7  8  1  0  0  0  0
  8  9  1  0  0  0  0
  9 10  1  0  0  0  0
 10 11  1  0  0  0  0
 11 12  1  0  0  0  0
 12 13  1  0  0  0  0
 13 14  1  0  0  0  0
M  END
> <ChemID>
100274

> <CAS>
629-59-4

> <Original_SMILES>
CCCCCCCCCCCCCC

> <preferred_name>
Tetradecane

> <dsstox_substance_id>
DTXSID1027267

> <dsstox_compound_id>
DTXCID707267

> <qc_level>
DSSTox_Low

> <Canonical_QSARr>
CCCCCCCCCCCCCC

> <InChI_Code_QSARr>
InChI=1S/C14H30/c1-3-5-7-9-11-13-14-12-10-8-6-4-2/h3-14H2,1-2H3

> <InChI Key_QSARr>
BGHCVCJVXZWKCC-UHFFFAOYSA-N

> <Salt_Solvent>


> <Salt_Solvent_ID>
0

> <MPID>
101905

> <LogKmHL>
1.49

> <Tr_1_Tst_0>
1

$$$$
100275
  Mrv171c012251910542D          

 16 15  0  0  0  0            999 V2000
    0.0216   -0.4161    0.0000 C   0  0  0  0  0  0  0  0  0  0  0  0
    0.7360   -0.0036    0.0000 C   0  0  0  0  0  0  0  0  0  0  0  0
    1.4505   -0.4161    0.0000 C   0  0  0  0  0  0  0  0  0  0  0  0
    2.1650   -0.0036    0.0000 C   0  0  0  0  0  0  0  0  0  0  0  0
    2.8795   -0.4161    0.0000 C   0  0  0  0  0  0  0  0  0  0  0  0
    3.5939   -0.0036    0.0000 C   0  0  0  0  0  0  0  0  0  0  0  0
    4.3084   -0.4161    0.0000 C   0  0  0  0  0  0  0  0  0  0  0  0
    5.0229   -0.0036    0.0000 C   0  0  0  0  0  0  0  0  0  0  0  0
    5.7373   -0.4161    0.0000 C   0  0  0  0  0  0  0  0  0  0  0  0
    6.4518   -0.0036    0.0000 C   0  0  0  0  0  0  0  0  0  0  0  0
    7.1663   -0.4161    0.0000 C   0  0  0  0  0  0  0  0  0  0  0  0
    7.8808   -0.0036    0.0000 C   0  0  0  0  0  0  0  0  0  0  0  0
    8.5952   -0.4161    0.0000 C   0  0  0  0  0  0  0  0  0  0  0  0
    9.3097   -0.0036    0.0000 C   0  0  0  0  0  0  0  0  0  0  0  0
   10.0242   -0.4161    0.0000 C   0  0  0  0  0  0  0  0  0  0  0  0
   10.7386   -0.0036    0.0000 C   0  0  0  0  0  0  0  0  0  0  0  0
  1  2  2  0  0  0  0
  2  3  1  0  0  0  0
  3  4  1  0  0  0  0
  4  5  1  0  0  0  0
  5  6  1  0  0  0  0
  6  7  1  0  0  0  0
  7  8  1  0  0  0  0
  8  9  1  0  0  0  0
  9 10  1  0  0  0  0
 10 11  1  0  0  0  0
 11 12  1  0  0  0  0
 12 13  1  0  0  0  0
 13 14  1  0  0  0  0
 14 15  1  0  0  0  0
 15 16  1  0  0  0  0
M  END
> <ChemID>
100275

> <CAS>
629-73-2

> <Original_SMILES>
CCCCCCCCCCCCCCC=C

> <preferred_name>
1-Hexadecene

> <dsstox_substance_id>
DTXSID1027269

> <dsstox_compound_id>
DTXCID507269

> <qc_level>
DSSTox_Low

> <Canonical_QSARr>
CCCCCCCCCCCCCCC=C

> <InChI_Code_QSARr>
InChI=1S/C16H32/c1-3-5-7-9-11-13-15-16-14-12-10-8-6-4-2/h3H,1,4-16H2,2H3

> <InChI Key_QSARr>
GQEZCXVZFLOKMC-UHFFFAOYSA-N

> <Salt_Solvent>


> <Salt_Solvent_ID>
0

> <MPID>
101906

> <LogKmHL>
1.67

> <Tr_1_Tst_0>
1

$$$$
100276
  Mrv171c012251910542D          

 10 10  0  0  0  0            999 V2000
    2.9360   -0.5675    0.0000 Cl  0  0  0  0  0  0  0  0  0  0  0  0
    2.2215   -0.9800    0.0000 C   0  0  0  0  0  0  0  0  0  0  0  0
    1.5071   -0.5675    0.0000 C   0  0  0  0  0  0  0  0  0  0  0  0
    1.5071    0.2575    0.0000 Cl  0  0  0  0  0  0  0  0  0  0  0  0
    0.7926   -0.9800    0.0000 C   0  0  0  0  0  0  0  0  0  0  0  0
    0.0781   -0.5675    0.0000 Cl  0  0  0  0  0  0  0  0  0  0  0  0
    0.7926   -1.8050    0.0000 C   0  0  0  0  0  0  0  0  0  0  0  0
    1.5071   -2.2175    0.0000 C   0  0  0  0  0  0  0  0  0  0  0  0
    2.2215   -1.8050    0.0000 C   0  0  0  0  0  0  0  0  0  0  0  0
    2.9360   -2.2175    0.0000 Cl  0  0  0  0  0  0  0  0  0  0  0  0
  1  2  1  0  0  0  0
  3  2  1  0  0  0  0
  3  4  1  0  0  0  0
  5  3  2  0  0  0  0
  5  6  1  0  0  0  0
  7  5  1  0  0  0  0
  8  7  2  0  0  0  0
  9  8  1  0  0  0  0
  2  9  2  0  0  0  0
  9 10  1  0  0  0  0
M  END
> <ChemID>
100276

> <CAS>
634-66-2

> <Original_SMILES>
Clc1ccc(Cl)c(Cl)c1Cl

> <preferred_name>
1,2,3,4-Tetrachlorobenzene

> <dsstox_substance_id>
DTXSID6026088

> <dsstox_compound_id>
DTXCID206088

> <qc_level>
DSSTox_Low

> <Canonical_QSARr>
ClC1C=CC(Cl)=C(Cl)C=1Cl

> <InChI_Code_QSARr>
InChI=1S/C6H2Cl4/c7-3-1-2-4(8)6(10)5(3)9/h1-2H

> <InChI Key_QSARr>
GBDZXPJXOMHESU-UHFFFAOYSA-N

> <Salt_Solvent>


> <Salt_Solvent_ID>
0

> <MPID>
101907

> <LogKmHL>
0.69

> <Tr_1_Tst_0>
1

$$$$
100277
  Mrv171c012251910542D          

 10 10  0  0  0  0            999 V2000
    1.9357   -2.7950    0.0000 N   0  0  0  0  0  0  0  0  0  0  0  0
    1.9357   -1.9700    0.0000 C   0  0  0  0  0  0  0  0  0  0  0  0
    2.6502   -1.5575    0.0000 C   0  0  0  0  0  0  0  0  0  0  0  0
    2.6502   -0.7325    0.0000 C   0  0  0  0  0  0  0  0  0  0  0  0
    1.9357   -0.3200    0.0000 C   0  0  0  0  0  0  0  0  0  0  0  0
    1.9357    0.5050    0.0000 Cl  0  0  0  0  0  0  0  0  0  0  0  0
    1.2213   -0.7325    0.0000 C   0  0  0  0  0  0  0  0  0  0  0  0
    0.5068   -0.3200    0.0000 Cl  0  0  0  0  0  0  0  0  0  0  0  0
    1.2213   -1.5575    0.0000 C   0  0  0  0  0  0  0  0  0  0  0  0
    0.5068   -1.9700    0.0000 Cl  0  0  0  0  0  0  0  0  0  0  0  0
  1  2  1  0  0  0  0
  3  2  1  0  0  0  0
  4  3  2  0  0  0  0
  5  4  1  0  0  0  0
  5  6  1  0  0  0  0
  7  5  2  0  0  0  0
  7  8  1  0  0  0  0
  9  7  1  0  0  0  0
  2  9  2  0  0  0  0
  9 10  1  0  0  0  0
M  END
> <ChemID>
100277

> <CAS>
634-67-3

> <Original_SMILES>
Nc1ccc(Cl)c(Cl)c1Cl

> <preferred_name>
2,3,4-Trichloroaniline

> <dsstox_substance_id>
DTXSID2022098

> <dsstox_compound_id>
DTXCID102098

> <qc_level>
DSSTox_Low

> <Canonical_QSARr>
NC1C=CC(Cl)=C(Cl)C=1Cl

> <InChI_Code_QSARr>
InChI=1S/C6H4Cl3N/c7-3-1-2-4(10)6(9)5(3)8/h1-2H,10H2

> <InChI Key_QSARr>
RRJUYQOFOMFVQS-UHFFFAOYSA-N

> <Salt_Solvent>


> <Salt_Solvent_ID>
0

> <MPID>
101908

> <LogKmHL>
-0.27

> <Tr_1_Tst_0>
0

$$$$
100278
  Mrv171c012251910542D          

 10 10  0  0  0  0            999 V2000
    4.5078    0.3671    0.0000 Cl  0  0  0  0  0  0  0  0  0  0  0  0
    3.7933   -0.0454    0.0000 C   0  0  0  0  0  0  0  0  0  0  0  0
    3.0789    0.3671    0.0000 C   0  0  0  0  0  0  0  0  0  0  0  0
    3.0789    1.1921    0.0000 Cl  0  0  0  0  0  0  0  0  0  0  0  0
    2.3644   -0.0454    0.0000 C   0  0  0  0  0  0  0  0  0  0  0  0
    1.6499    0.3671    0.0000 Cl  0  0  0  0  0  0  0  0  0  0  0  0
    2.3644   -0.8704    0.0000 C   0  0  0  0  0  0  0  0  0  0  0  0
    3.0789   -1.2829    0.0000 C   0  0  0  0  0  0  0  0  0  0  0  0
    3.0789   -2.1079    0.0000 N   0  0  0  0  0  0  0  0  0  0  0  0
    3.7933   -0.8704    0.0000 C   0  0  0  0  0  0  0  0  0  0  0  0
  1  2  1  0  0  0  0
  3  2  1  0  0  0  0
  3  4  1  0  0  0  0
  5  3  2  0  0  0  0
  5  6  1  0  0  0  0
  7  5  1  0  0  0  0
  8  7  2  0  0  0  0
  8  9  1  0  0  0  0
 10  8  1  0  0  0  0
  2 10  2  0  0  0  0
M  END
> <ChemID>
100278

> <CAS>
634-91-3

> <Original_SMILES>
Nc1cc(Cl)c(Cl)c(Cl)c1

> <preferred_name>
3,4,5-Trichloroaniline

> <dsstox_substance_id>
DTXSID30212811

> <dsstox_compound_id>
DTXCID60135302

> <qc_level>
Public_Medium

> <Canonical_QSARr>
NC1=CC(Cl)=C(Cl)C(Cl)=C1

> <InChI_Code_QSARr>
InChI=1S/C6H4Cl3N/c7-4-1-3(10)2-5(8)6(4)9/h1-2H,10H2

> <InChI Key_QSARr>
XOGYQVITULCUGU-UHFFFAOYSA-N

> <Salt_Solvent>


> <Salt_Solvent_ID>
0

> <MPID>
101909

> <LogKmHL>
0.28

> <Tr_1_Tst_0>
1

$$$$
100279
  Mrv171c012251910542D          

 10 10  0  0  0  0            999 V2000
    3.0980   -0.6840    0.0000 N   0  0  0  0  0  0  0  0  0  0  0  0
    2.3835   -1.0965    0.0000 C   0  0  0  0  0  0  0  0  0  0  0  0
    1.6691   -0.6840    0.0000 C   0  0  0  0  0  0  0  0  0  0  0  0
    1.6691    0.1410    0.0000 Cl  0  0  0  0  0  0  0  0  0  0  0  0
    0.9546   -1.0965    0.0000 C   0  0  0  0  0  0  0  0  0  0  0  0
    0.9546   -1.9215    0.0000 C   0  0  0  0  0  0  0  0  0  0  0  0
    0.2401   -2.3340    0.0000 Cl  0  0  0  0  0  0  0  0  0  0  0  0
    1.6691   -2.3340    0.0000 C   0  0  0  0  0  0  0  0  0  0  0  0
    2.3835   -1.9215    0.0000 C   0  0  0  0  0  0  0  0  0  0  0  0
    3.0980   -2.3340    0.0000 Cl  0  0  0  0  0  0  0  0  0  0  0  0
  1  2  1  0  0  0  0
  3  2  1  0  0  0  0
  3  4  1  0  0  0  0
  5  3  2  0  0  0  0
  6  5  1  0  0  0  0
  6  7  1  0  0  0  0
  8  6  2  0  0  0  0
  9  8  1  0  0  0  0
  2  9  2  0  0  0  0
  9 10  1  0  0  0  0
M  END
> <ChemID>
100279

> <CAS>
634-93-5

> <Original_SMILES>
Nc1c(Cl)cc(Cl)cc1Cl

> <preferred_name>
2,4,6-Trichloroaniline

> <dsstox_substance_id>
DTXSID6021379

> <dsstox_compound_id>
DTXCID401379

> <qc_level>
DSSTox_Low

> <Canonical_QSARr>
NC1C(Cl)=CC(Cl)=CC=1Cl

> <InChI_Code_QSARr>
InChI=1S/C6H4Cl3N/c7-3-1-4(8)6(10)5(9)2-3/h1-2H,10H2

> <InChI Key_QSARr>
NATVSFWWYVJTAZ-UHFFFAOYSA-N

> <Salt_Solvent>


> <Salt_Solvent_ID>
0

> <MPID>
101910

> <LogKmHL>
0.67

> <Tr_1_Tst_0>
1

$$$$
100280
  Mrv171c012251910542D          

 10 10  0  0  0  0            999 V2000
    1.4289   -0.0000    0.0000 C   0  0  0  0  0  0  0  0  0  0  0  0
    2.1434   -0.4125    0.0000 Br  0  0  0  0  0  0  0  0  0  0  0  0
    1.4289    0.8250    0.0000 C   0  0  0  0  0  0  0  0  0  0  0  0
    0.7145    1.2375    0.0000 C   0  0  0  0  0  0  0  0  0  0  0  0
    0.7145    2.0625    0.0000 Br  0  0  0  0  0  0  0  0  0  0  0  0
   -0.0000    0.8250    0.0000 C   0  0  0  0  0  0  0  0  0  0  0  0
   -0.7145    1.2375    0.0000 Br  0  0  0  0  0  0  0  0  0  0  0  0
   -0.0000    0.0000    0.0000 C   0  0  0  0  0  0  0  0  0  0  0  0
    0.7145   -0.4125    0.0000 C   0  0  0  0  0  0  0  0  0  0  0  0
    0.7145   -1.2375    0.0000 Br  0  0  0  0  0  0  0  0  0  0  0  0
  1  2  1  0  0  0  0
  3  1  1  0  0  0  0
  4  3  2  0  0  0  0
  4  5  1  0  0  0  0
  6  4  1  0  0  0  0
  6  7  1  0  0  0  0
  8  6  2  0  0  0  0
  9  8  1  0  0  0  0
  1  9  2  0  0  0  0
  9 10  1  0  0  0  0
M  END
> <ChemID>
100280

> <CAS>
636-28-2

> <Original_SMILES>
Brc1cc(Br)c(Br)cc1Br

> <preferred_name>
1,2,4,5-Tetrabromobenzene

> <dsstox_substance_id>
DTXSID7060910

> <dsstox_compound_id>
DTXCID1044015

> <qc_level>
Public_High

> <Canonical_QSARr>
BrC1C=C(Br)C(Br)=CC=1Br

> <InChI_Code_QSARr>
InChI=1S/C6H2Br4/c7-3-1-4(8)6(10)2-5(3)9/h1-2H

> <InChI Key_QSARr>
QCKHVNQHBOGZER-UHFFFAOYSA-N

> <Salt_Solvent>


> <Salt_Solvent_ID>
0

> <MPID>
101911

> <LogKmHL>
1.35

> <Tr_1_Tst_0>
1

$$$$
100281
  Mrv171c012251910542D          

 10 10  0  0  0  0            999 V2000
    2.1410   -1.2347    0.0000 C   0  0  0  0  0  0  0  0  0  0  0  0
    2.8554   -0.8222    0.0000 N   0  0  0  0  0  0  0  0  0  0  0  0
    1.4265   -0.8222    0.0000 C   0  0  0  0  0  0  0  0  0  0  0  0
    1.4265    0.0028    0.0000 Cl  0  0  0  0  0  0  0  0  0  0  0  0
    0.7120   -1.2347    0.0000 C   0  0  0  0  0  0  0  0  0  0  0  0
    0.7120   -2.0597    0.0000 C   0  0  0  0  0  0  0  0  0  0  0  0
   -0.0025   -2.4722    0.0000 Cl  0  0  0  0  0  0  0  0  0  0  0  0
    1.4265   -2.4722    0.0000 C   0  0  0  0  0  0  0  0  0  0  0  0
    1.4265   -3.2972    0.0000 Cl  0  0  0  0  0  0  0  0  0  0  0  0
    2.1410   -2.0597    0.0000 C   0  0  0  0  0  0  0  0  0  0  0  0
  1  2  1  0  0  0  0
  3  1  1  0  0  0  0
  3  4  1  0  0  0  0
  5  3  2  0  0  0  0
  6  5  1  0  0  0  0
  6  7  1  0  0  0  0
  8  6  2  0  0  0  0
  8  9  1  0  0  0  0
 10  8  1  0  0  0  0
  1 10  2  0  0  0  0
M  END
> <ChemID>
100281

> <CAS>
636-30-6

> <Original_SMILES>
Nc1cc(Cl)c(Cl)cc1Cl

> <preferred_name>
2,4,5-Trichloroaniline

> <dsstox_substance_id>
DTXSID5044152

> <dsstox_compound_id>
DTXCID3024152

> <qc_level>
DSSTox_Low

> <Canonical_QSARr>
NC1=CC(Cl)=C(Cl)C=C1Cl

> <InChI_Code_QSARr>
InChI=1S/C6H4Cl3N/c7-3-1-5(9)6(10)2-4(3)8/h1-2H,10H2

> <InChI Key_QSARr>
GUMCAKKKNKYFEB-UHFFFAOYSA-N

> <Salt_Solvent>


> <Salt_Solvent_ID>
0

> <MPID>
101912

> <LogKmHL>
-0.01

> <Tr_1_Tst_0>
0

$$$$
100282
  Mrv171c012251910542D          

  9  9  0  0  0  0            999 V2000
    1.5877   -0.0000    0.0000 N   0  0  0  0  0  0  0  0  0  0  0  0
    1.5877   -0.8250    0.0000 C   0  0  0  0  0  0  0  0  0  0  0  0
    0.8732    0.4125    0.0000 C   0  0  0  0  0  0  0  0  0  0  0  0
    0.8732    1.2375    0.0000 C   0  0  0  0  0  0  0  0  0  0  0  0
    0.1588    1.6500    0.0000 C   0  0  0  0  0  0  0  0  0  0  0  0
    0.1588    2.4750    0.0000 C   0  0  0  0  0  0  0  0  0  0  0  0
   -0.5557    1.2375    0.0000 C   0  0  0  0  0  0  0  0  0  0  0  0
   -0.5557    0.4125    0.0000 C   0  0  0  0  0  0  0  0  0  0  0  0
    0.1588   -0.0000    0.0000 C   0  0  0  0  0  0  0  0  0  0  0  0
  1  2  1  0  0  0  0
  1  3  1  0  0  0  0
  4  3  1  0  0  0  0
  5  4  2  0  0  0  0
  5  6  1  0  0  0  0
  7  5  1  0  0  0  0
  8  7  2  0  0  0  0
  9  8  1  0  0  0  0
  3  9  2  0  0  0  0
M  END
> <ChemID>
100282

> <CAS>
696-44-6

> <Original_SMILES>
Cc1cccc(c1)NC

> <preferred_name>
Benzenamine, N,3-dimethyl-

> <dsstox_substance_id>
DTXSID2061014

> <dsstox_compound_id>
DTXCID8046531

> <qc_level>
Public_High

> <Canonical_QSARr>
CC1C=CC=C(C=1)NC

> <InChI_Code_QSARr>
InChI=1S/C8H11N/c1-7-4-3-5-8(6-7)9-2/h3-6,9H,1-2H3

> <InChI Key_QSARr>
FBGJJTQNZVNEQU-UHFFFAOYSA-N

> <Salt_Solvent>


> <Salt_Solvent_ID>
0

> <MPID>
101913

> <LogKmHL>
-0.79

> <Tr_1_Tst_0>
1

$$$$
100283
  Mrv171c012251910542D          

 19 19  0  0  0  0            999 V2000
    3.7829   -1.4350    0.0000 O   0  0  0  0  0  0  0  0  0  0  0  0
    3.0684   -1.8475    0.0000 C   0  0  0  0  0  0  0  0  0  0  0  0
    2.3539   -1.4350    0.0000 C   0  0  0  0  0  0  0  0  0  0  0  0
    2.3539   -0.6100    0.0000 C   0  0  0  0  0  0  0  0  0  0  0  0
    2.3539    0.2150    0.0000 C   0  0  0  0  0  0  0  0  0  0  0  0
    1.5289   -0.6100    0.0000 C   0  0  0  0  0  0  0  0  0  0  0  0
    3.1789   -0.6100    0.0000 C   0  0  0  0  0  0  0  0  0  0  0  0
    1.6394   -1.8475    0.0000 C   0  0  0  0  0  0  0  0  0  0  0  0
    1.6394   -2.6725    0.0000 C   0  0  0  0  0  0  0  0  0  0  0  0
    0.9250   -3.0850    0.0000 C   0  0  0  0  0  0  0  0  0  0  0  0
    0.2105   -3.4975    0.0000 C   0  0  0  0  0  0  0  0  0  0  0  0
    0.5125   -2.3705    0.0000 C   0  0  0  0  0  0  0  0  0  0  0  0
    1.3375   -3.7994    0.0000 C   0  0  0  0  0  0  0  0  0  0  0  0
    2.3539   -3.0850    0.0000 C   0  0  0  0  0  0  0  0  0  0  0  0
    3.0684   -2.6725    0.0000 C   0  0  0  0  0  0  0  0  0  0  0  0
    3.7829   -3.0850    0.0000 C   0  0  0  0  0  0  0  0  0  0  0  0
    4.4973   -3.4975    0.0000 C   0  0  0  0  0  0  0  0  0  0  0  0
    4.1954   -2.3705    0.0000 C   0  0  0  0  0  0  0  0  0  0  0  0
    3.3704   -3.7994    0.0000 C   0  0  0  0  0  0  0  0  0  0  0  0
  1  2  1  0  0  0  0
  3  2  1  0  0  0  0
  3  4  1  0  0  0  0
  4  5  1  0  0  0  0
  4  6  1  0  0  0  0
  4  7  1  0  0  0  0
  8  3  2  0  0  0  0
  9  8  1  0  0  0  0
  9 10  1  0  0  0  0
 10 11  1  0  0  0  0
 10 12  1  0  0  0  0
 10 13  1  0  0  0  0
 14  9  2  0  0  0  0
 15 14  1  0  0  0  0
  2 15  2  0  0  0  0
 15 16  1  0  0  0  0
 16 17  1  0  0  0  0
 16 18  1  0  0  0  0
 16 19  1  0  0  0  0
M  END
> <ChemID>
100283

> <CAS>
732-26-3

> <Original_SMILES>
CC(C)(C)c1cc(c(O)c(c1)C(C)(C)C)C(C)(C)C

> <preferred_name>
2,4,6-Tris(tert-butyl)phenol

> <dsstox_substance_id>
DTXSID2021311

> <dsstox_compound_id>
DTXCID401311

> <qc_level>
DSSTox_Low

> <Canonical_QSARr>
CC(C)(C)C1=CC(=C(O)C(=C1)C(C)(C)C)C(C)(C)C

> <InChI_Code_QSARr>
InChI=1S/C18H30O/c1-16(2,3)12-10-13(17(4,5)6)15(19)14(11-12)18(7,8)9/h10-11,19H,1-9H3

> <InChI Key_QSARr>
PFEFOYRSMXVNEL-UHFFFAOYSA-N

> <Salt_Solvent>


> <Salt_Solvent_ID>
0

> <MPID>
101914

> <LogKmHL>
1.81

> <Tr_1_Tst_0>
1

$$$$
100284
  Mrv171c012251910542D          

  6  5  0  0  0  0            999 V2000
    1.2375   -2.1439    0.0000 C   0  0  0  0  0  0  0  0  0  0  0  0
    1.6500   -1.4295    0.0000 C   0  0  0  0  0  0  0  0  0  0  0  0
    1.2375   -0.7150    0.0000 C   0  0  0  0  0  0  0  0  0  0  0  0
    1.6500   -0.0005    0.0000 C   0  0  0  0  0  0  0  0  0  0  0  0
    1.2375    0.7139    0.0000 Cl  0  0  0  0  0  0  0  0  0  0  0  0
    0.4125   -0.7150    0.0000 Cl  0  0  0  0  0  0  0  0  0  0  0  0
  1  2  2  0  0  0  0
  2  3  1  0  0  0  0
  3  4  1  0  0  0  0
  4  5  1  0  0  0  0
  3  6  1  0  0  0  0
M  END
> <ChemID>
100284

> <CAS>
760-23-6

> <Original_SMILES>
C=CC(Cl)CCl

> <preferred_name>
3,4-Dichloro-1-butene

> <dsstox_substance_id>
DTXSID8022113

> <dsstox_compound_id>
DTXCID902113

> <qc_level>
DSSTox_Low

> <Canonical_QSARr>
C=CC(Cl)CCl

> <InChI_Code_QSARr>
InChI=1S/C4H6Cl2/c1-2-4(6)3-5/h2,4H,1,3H2

> <InChI Key_QSARr>
XVEASTGLHPVZNA-UHFFFAOYSA-N

> <Salt_Solvent>


> <Salt_Solvent_ID>
0

> <MPID>
101915

> <LogKmHL>
-1.28

> <Tr_1_Tst_0>
1

$$$$
100285
  Mrv171c012251910542D          

  8  7  0  0  0  0            999 V2000
    3.2317   -2.1033    0.0000 C   0  0  0  0  0  0  0  0  0  0  0  0
    2.8192   -1.3889    0.0000 C   0  0  0  0  0  0  0  0  0  0  0  0
    1.9942   -1.3889    0.0000 C   0  0  0  0  0  0  0  0  0  0  0  0
    1.5817   -0.6744    0.0000 C   0  0  0  0  0  0  0  0  0  0  0  0
    0.7567   -0.6744    0.0000 C   0  0  0  0  0  0  0  0  0  0  0  0
    0.3442   -1.3889    0.0000 C   0  0  0  0  0  0  0  0  0  0  0  0
    0.3442    0.0401    0.0000 C   0  0  0  0  0  0  0  0  0  0  0  0
    3.2317   -0.6744    0.0000 C   0  0  0  0  0  0  0  0  0  0  0  0
  1  2  1  0  0  0  0
  2  3  2  0  0  0  0
  3  4  1  0  0  0  0
  4  5  2  0  0  0  0
  5  6  1  0  0  0  0
  5  7  1  0  0  0  0
  2  8  1  0  0  0  0
M  END
> <ChemID>
100285

> <CAS>
764-13-6

> <Original_SMILES>
CC(C)=CC=C(C)C

> <preferred_name>
2,5-Dimethyl-2,4-hexadiene

> <dsstox_substance_id>
DTXSID3022116

> <dsstox_compound_id>
DTXCID102116

> <qc_level>
DSSTox_Low

> <Canonical_QSARr>
CC(C)=CC=C(C)C

> <InChI_Code_QSARr>
InChI=1S/C8H14/c1-7(2)5-6-8(3)4/h5-6H,1-4H3

> <InChI Key_QSARr>
DZPCYXCBXGQBRN-UHFFFAOYSA-N

> <Salt_Solvent>


> <Salt_Solvent_ID>
0

> <MPID>
101916

> <LogKmHL>
0.49

> <Tr_1_Tst_0>
0

$$$$
100286
  Mrv171c012251910542D          

 15 17  0  0  0  0            999 V2000
    2.8579   -0.2200    0.0000 C   0  0  0  0  0  0  0  0  0  0  0  0
    3.5724   -0.6325    0.0000 C   0  0  0  0  0  0  0  0  0  0  0  0
    4.2868   -0.2200    0.0000 C   0  0  0  0  0  0  0  0  0  0  0  0
    4.2868    0.6050    0.0000 C   0  0  0  0  0  0  0  0  0  0  0  0
    3.5724    1.0175    0.0000 C   0  0  0  0  0  0  0  0  0  0  0  0
    2.8579    0.6050    0.0000 C   0  0  0  0  0  0  0  0  0  0  0  0
    2.1434    1.0175    0.0000 C   0  0  0  0  0  0  0  0  0  0  0  0
    2.1434    1.8425    0.0000 C   0  0  0  0  0  0  0  0  0  0  0  0
    1.4289    0.6050    0.0000 C   0  0  0  0  0  0  0  0  0  0  0  0
    1.4289   -0.2200    0.0000 C   0  0  0  0  0  0  0  0  0  0  0  0
    0.7145   -0.6325    0.0000 C   0  0  0  0  0  0  0  0  0  0  0  0
    0.0000   -0.2200    0.0000 C   0  0  0  0  0  0  0  0  0  0  0  0
    0.0000    0.6050    0.0000 C   0  0  0  0  0  0  0  0  0  0  0  0
    0.7145    1.0175    0.0000 C   0  0  0  0  0  0  0  0  0  0  0  0
    2.1434   -0.6325    0.0000 C   0  0  0  0  0  0  0  0  0  0  0  0
  2  1  1  0  0  0  0
  3  2  2  0  0  0  0
  4  3  1  0  0  0  0
  5  4  2  0  0  0  0
  6  5  1  0  0  0  0
  6  1  1  0  0  0  0
  7  6  2  0  0  0  0
  7  8  1  0  0  0  0
  9  7  1  0  0  0  0
  9 10  1  0  0  0  0
 10 11  2  0  0  0  0
 11 12  1  0  0  0  0
 12 13  2  0  0  0  0
 13 14  1  0  0  0  0
 14  9  2  0  0  0  0
 15 10  1  0  0  0  0
  1 15  2  0  0  0  0
M  END
> <ChemID>
100286

> <CAS>
779-02-2

> <Original_SMILES>
Cc1c2ccccc2cc2ccccc21

> <preferred_name>
9-Methylanthracene

> <dsstox_substance_id>
DTXSID3061134

> <dsstox_compound_id>
DTXCID2048080

> <qc_level>
Public_High

> <Canonical_QSARr>
CC1C2=CC=CC=C2C=C2C=CC=CC2=1

> <InChI_Code_QSARr>
InChI=1S/C15H12/c1-11-14-8-4-2-6-12(14)10-13-7-3-5-9-15(11)13/h2-10H,1H3

> <InChI Key_QSARr>
CPGPAVAKSZHMBP-UHFFFAOYSA-N

> <Salt_Solvent>


> <Salt_Solvent_ID>
0

> <MPID>
101917

> <LogKmHL>
0.23

> <Tr_1_Tst_0>
1

$$$$
100287
  Mrv171c012251910542D          

 19 20  0  0  0  0            999 V2000
    3.9097   -3.2576    0.0000 C   0  0  0  0  0  0  0  0  0  0  0  0
    3.1952   -2.8451    0.0000 C   0  0  0  0  0  0  0  0  0  0  0  0
    3.1952   -2.0201    0.0000 C   0  0  0  0  0  0  0  0  0  0  0  0
    2.4807   -1.6076    0.0000 C   0  0  0  0  0  0  0  0  0  0  0  0
    2.4807   -0.7826    0.0000 C   0  0  0  0  0  0  0  0  0  0  0  0
    1.7662   -0.3701    0.0000 C   0  0  0  0  0  0  0  0  0  0  0  0
    1.0518   -0.7826    0.0000 C   0  0  0  0  0  0  0  0  0  0  0  0
    0.3373   -0.3701    0.0000 Cl  0  0  0  0  0  0  0  0  0  0  0  0
    1.0518   -1.6076    0.0000 C   0  0  0  0  0  0  0  0  0  0  0  0
    1.7662   -2.0201    0.0000 C   0  0  0  0  0  0  0  0  0  0  0  0
    3.9097   -1.6076    0.0000 C   0  0  0  0  0  0  0  0  0  0  0  0
    4.6241   -1.1951    0.0000 Cl  0  0  0  0  0  0  0  0  0  0  0  0
    3.4972   -0.8932    0.0000 Cl  0  0  0  0  0  0  0  0  0  0  0  0
    4.3222   -2.3221    0.0000 Cl  0  0  0  0  0  0  0  0  0  0  0  0
    2.4807   -3.2576    0.0000 C   0  0  0  0  0  0  0  0  0  0  0  0
    1.7662   -2.8451    0.0000 Cl  0  0  0  0  0  0  0  0  0  0  0  0
    2.4807   -4.0826    0.0000 C   0  0  0  0  0  0  0  0  0  0  0  0
    3.1952   -4.4951    0.0000 C   0  0  0  0  0  0  0  0  0  0  0  0
    3.9097   -4.0826    0.0000 C   0  0  0  0  0  0  0  0  0  0  0  0
  2  1  2  0  0  0  0
  2  3  1  0  0  0  0
  3  4  1  0  0  0  0
  5  4  1  0  0  0  0
  6  5  2  0  0  0  0
  7  6  1  0  0  0  0
  7  8  1  0  0  0  0
  9  7  2  0  0  0  0
 10  9  1  0  0  0  0
  4 10  2  0  0  0  0
  3 11  1  0  0  0  0
 11 12  1  0  0  0  0
 11 13  1  0  0  0  0
 11 14  1  0  0  0  0
 15  2  1  0  0  0  0
 15 16  1  0  0  0  0
 17 15  2  0  0  0  0
 18 17  1  0  0  0  0
 19 18  2  0  0  0  0
  1 19  1  0  0  0  0
M  END
> <ChemID>
100287

> <CAS>
789-02-6

> <Original_SMILES>
Clc1ccc(cc1)C(c1ccccc1Cl)C(Cl)(Cl)Cl

> <preferred_name>
o,p'-DDT

> <dsstox_substance_id>
DTXSID6022345

> <dsstox_compound_id>
DTXCID002345

> <qc_level>
DSSTox_Low

> <Canonical_QSARr>
ClC1C=CC(=CC=1)C(C1=CC=CC=C1Cl)C(Cl)(Cl)Cl

> <InChI_Code_QSARr>
InChI=1S/C14H9Cl5/c15-10-7-5-9(6-8-10)13(14(17,18)19)11-3-1-2-4-12(11)16/h1-8,13H

> <InChI Key_QSARr>
CVUGPAFCQJIYDT-UHFFFAOYSA-N

> <Salt_Solvent>


> <Salt_Solvent_ID>
0

> <MPID>
101918

> <LogKmHL>
1.71

> <Tr_1_Tst_0>
1

$$$$
100288
  Mrv171c012251910542D          

 20 22  0  0  0  0            999 V2000
    2.0183   -2.0197    0.0000 Si  0  0  0  0  0  0  0  0  0  0  0  0
    2.0183   -2.8447    0.0000 C   0  0  0  0  0  0  0  0  0  0  0  0
    1.3038   -3.2572    0.0000 C   0  0  0  0  0  0  0  0  0  0  0  0
    1.3038   -4.0822    0.0000 C   0  0  0  0  0  0  0  0  0  0  0  0
    2.0183   -4.4947    0.0000 C   0  0  0  0  0  0  0  0  0  0  0  0
    2.7327   -4.0822    0.0000 C   0  0  0  0  0  0  0  0  0  0  0  0
    2.7327   -3.2572    0.0000 C   0  0  0  0  0  0  0  0  0  0  0  0
    2.0183   -1.1947    0.0000 C   0  0  0  0  0  0  0  0  0  0  0  0
    2.7327   -0.7822    0.0000 C   0  0  0  0  0  0  0  0  0  0  0  0
    2.7327    0.0428    0.0000 C   0  0  0  0  0  0  0  0  0  0  0  0
    2.0183    0.4553    0.0000 C   0  0  0  0  0  0  0  0  0  0  0  0
    1.3038    0.0428    0.0000 C   0  0  0  0  0  0  0  0  0  0  0  0
    1.3038   -0.7822    0.0000 C   0  0  0  0  0  0  0  0  0  0  0  0
    2.8433   -2.0197    0.0000 C   0  0  0  0  0  0  0  0  0  0  0  0
    3.2558   -2.7342    0.0000 C   0  0  0  0  0  0  0  0  0  0  0  0
    4.0808   -2.7342    0.0000 C   0  0  0  0  0  0  0  0  0  0  0  0
    4.4933   -2.0197    0.0000 C   0  0  0  0  0  0  0  0  0  0  0  0
    4.0808   -1.3053    0.0000 C   0  0  0  0  0  0  0  0  0  0  0  0
    3.2558   -1.3053    0.0000 C   0  0  0  0  0  0  0  0  0  0  0  0
    1.1933   -2.0197    0.0000 O   0  0  0  0  0  0  0  0  0  0  0  0
  1  2  1  0  0  0  0
  3  2  1  0  0  0  0
  4  3  2  0  0  0  0
  5  4  1  0  0  0  0
  6  5  2  0  0  0  0
  7  6  1  0  0  0  0
  2  7  2  0  0  0  0
  1  8  1  0  0  0  0
  9  8  1  0  0  0  0
 10  9  2  0  0  0  0
 11 10  1  0  0  0  0
 12 11  2  0  0  0  0
 13 12  1  0  0  0  0
  8 13  2  0  0  0  0
  1 14  1  0  0  0  0
 15 14  1  0  0  0  0
 16 15  2  0  0  0  0
 17 16  1  0  0  0  0
 18 17  2  0  0  0  0
 19 18  1  0  0  0  0
 14 19  2  0  0  0  0
  1 20  1  0  0  0  0
M  END
> <ChemID>
100288

> <CAS>
791-31-1

> <Original_SMILES>
O[Si](c1ccccc1)(c1ccccc1)c1ccccc1

> <preferred_name>
Triphenylsilanol

> <dsstox_substance_id>
DTXSID1036545

> <dsstox_compound_id>
DTXCID9016545

> <qc_level>
DSSTox_Low

> <Canonical_QSARr>
O[Si](C1C=CC=CC=1)(C1C=CC=CC=1)C1C=CC=CC=1

> <InChI_Code_QSARr>
InChI=1S/C18H16OSi/c19-20(16-10-4-1-5-11-16,17-12-6-2-7-13-17)18-14-8-3-9-15-18/h1-15,19H

> <InChI Key_QSARr>
NLSXASIDNWDYMI-UHFFFAOYSA-N

> <Salt_Solvent>


> <Salt_Solvent_ID>
0

> <MPID>
101919

> <LogKmHL>
0.07

> <Tr_1_Tst_0>
1

$$$$
100289
  Mrv171c012251910542D          

 11 10  0  0  0  0            999 V2000
    7.8080    2.8579    0.0000 C   0  0  0  0  0  0  0  0  0  0  0  0
    7.0935    3.2704    0.0000 C   0  0  0  0  0  0  0  0  0  0  0  0
    6.3791    2.8579    0.0000 C   0  0  0  0  0  0  0  0  0  0  0  0
    5.6646    3.2704    0.0000 C   0  0  0  0  0  0  0  0  0  0  0  0
    4.9501    2.8579    0.0000 C   0  0  0  0  0  0  0  0  0  0  0  0
    4.2357    3.2704    0.0000 C   0  0  0  0  0  0  0  0  0  0  0  0
    8.5225    3.2704    0.0000 C   0  0  0  0  0  0  0  0  0  0  0  0
    9.2370    2.8579    0.0000 C   0  0  0  0  0  0  0  0  0  0  0  0
    9.9514    3.2704    0.0000 C   0  0  0  0  0  0  0  0  0  0  0  0
   10.6659    2.8579    0.0000 C   0  0  0  0  0  0  0  0  0  0  0  0
   11.3804    3.2704    0.0000 C   0  0  0  0  0  0  0  0  0  0  0  0
  1  2  1  0  0  0  0
  2  3  1  0  0  0  0
  3  4  1  0  0  0  0
  4  5  1  0  0  0  0
  5  6  2  0  0  0  0
  1  7  1  0  0  0  0
  7  8  1  0  0  0  0
  8  9  1  0  0  0  0
  9 10  1  0  0  0  0
 10 11  1  0  0  0  0
M  END
> <ChemID>
100289

> <CAS>
821-95-4

> <Original_SMILES>
CCCCCCCCCC=C

> <preferred_name>
1-Undecene

> <dsstox_substance_id>
DTXSID5061168

> <dsstox_compound_id>
DTXCID0048268

> <qc_level>
Public_High

> <Canonical_QSARr>
CCCCCCCCCC=C

> <InChI_Code_QSARr>
InChI=1S/C11H22/c1-3-5-7-9-11-10-8-6-4-2/h3H,1,4-11H2,2H3

> <InChI Key_QSARr>
DCTOHCCUXLBQMS-UHFFFAOYSA-N

> <Salt_Solvent>


> <Salt_Solvent_ID>
0

> <MPID>
101920

> <LogKmHL>
0.09

> <Tr_1_Tst_0>
0

$$$$
100290
  Mrv171c012251910542D          

 15 17  0  0  0  0            999 V2000
   -0.2749   -0.8594    0.0000 C   0  0  0  0  0  0  0  0  0  0  0  0
    0.1376   -1.5738    0.0000 C   0  0  0  0  0  0  0  0  0  0  0  0
    0.9626   -1.5738    0.0000 C   0  0  0  0  0  0  0  0  0  0  0  0
    1.3751   -2.2883    0.0000 C   0  0  0  0  0  0  0  0  0  0  0  0
    2.2001   -2.2883    0.0000 C   0  0  0  0  0  0  0  0  0  0  0  0
    2.6126   -1.5738    0.0000 C   0  0  0  0  0  0  0  0  0  0  0  0
    3.4376   -1.5738    0.0000 C   0  0  0  0  0  0  0  0  0  0  0  0
    3.8501   -2.2883    0.0000 C   0  0  0  0  0  0  0  0  0  0  0  0
    3.8501   -0.8594    0.0000 C   0  0  0  0  0  0  0  0  0  0  0  0
    3.4376   -0.1449    0.0000 C   0  0  0  0  0  0  0  0  0  0  0  0
    2.6126   -0.1449    0.0000 C   0  0  0  0  0  0  0  0  0  0  0  0
    2.2001   -0.8594    0.0000 C   0  0  0  0  0  0  0  0  0  0  0  0
    1.3751   -0.8594    0.0000 C   0  0  0  0  0  0  0  0  0  0  0  0
    0.9626   -0.1449    0.0000 C   0  0  0  0  0  0  0  0  0  0  0  0
    0.1376   -0.1449    0.0000 C   0  0  0  0  0  0  0  0  0  0  0  0
  2  1  1  0  0  0  0
  3  2  2  0  0  0  0
  3  4  1  0  0  0  0
  4  5  2  0  0  0  0
  5  6  1  0  0  0  0
  7  6  2  0  0  0  0
  7  8  1  0  0  0  0
  9  7  1  0  0  0  0
 10  9  2  0  0  0  0
 11 10  1  0  0  0  0
 12 11  2  0  0  0  0
  6 12  1  0  0  0  0
 12 13  1  0  0  0  0
 13  3  1  0  0  0  0
 14 13  2  0  0  0  0
 15 14  1  0  0  0  0
  1 15  2  0  0  0  0
M  END
> <ChemID>
100290

> <CAS>
832-69-9

> <Original_SMILES>
Cc1cccc2c3ccccc3ccc21

> <preferred_name>
1-Methyl phenanthrene

> <dsstox_substance_id>
DTXSID6025648

> <dsstox_compound_id>
DTXCID105648

> <qc_level>
DSSTox_Low

> <Canonical_QSARr>
CC1C=CC=C2C3=CC=CC=C3C=CC2=1

> <InChI_Code_QSARr>
InChI=1S/C15H12/c1-11-5-4-8-15-13(11)10-9-12-6-2-3-7-14(12)15/h2-10H,1H3

> <InChI Key_QSARr>
DOWJXOHBNXRUOD-UHFFFAOYSA-N

> <Salt_Solvent>


> <Salt_Solvent_ID>
0

> <MPID>
101921

> <LogKmHL>
0.63

> <Tr_1_Tst_0>
1

$$$$
100291
  Mrv171c012251910542D          

 10  9  0  0  0  0            999 V2000
   -0.0086   -0.4147    0.0000 C   0  0  0  0  0  0  0  0  0  0  0  0
    0.7059   -0.0022    0.0000 C   0  0  0  0  0  0  0  0  0  0  0  0
    1.4203   -0.4147    0.0000 C   0  0  0  0  0  0  0  0  0  0  0  0
    2.1348   -0.0022    0.0000 C   0  0  0  0  0  0  0  0  0  0  0  0
    2.8493   -0.4147    0.0000 C   0  0  0  0  0  0  0  0  0  0  0  0
    3.5638   -0.0022    0.0000 C   0  0  0  0  0  0  0  0  0  0  0  0
    4.2782   -0.4147    0.0000 C   0  0  0  0  0  0  0  0  0  0  0  0
    4.9927   -0.0022    0.0000 C   0  0  0  0  0  0  0  0  0  0  0  0
    5.7072   -0.4147    0.0000 C   0  0  0  0  0  0  0  0  0  0  0  0
    6.4216   -0.0022    0.0000 C   0  0  0  0  0  0  0  0  0  0  0  0
  1  2  2  0  0  0  0
  2  3  1  0  0  0  0
  3  4  1  0  0  0  0
  4  5  1  0  0  0  0
  5  6  1  0  0  0  0
  6  7  1  0  0  0  0
  7  8  1  0  0  0  0
  8  9  1  0  0  0  0
  9 10  1  0  0  0  0
M  END
> <ChemID>
100291

> <CAS>
872-05-9

> <Original_SMILES>
CCCCCCCCC=C

> <preferred_name>
1-Decene

> <dsstox_substance_id>
DTXSID8027329

> <dsstox_compound_id>
DTXCID507329

> <qc_level>
DSSTox_Low

> <Canonical_QSARr>
CCCCCCCCC=C

> <InChI_Code_QSARr>
InChI=1S/C10H20/c1-3-5-7-9-10-8-6-4-2/h3H,1,4-10H2,2H3

> <InChI Key_QSARr>
AFFLGGQVNFXPEV-UHFFFAOYSA-N

> <Salt_Solvent>


> <Salt_Solvent_ID>
0

> <MPID>
101922

> <LogKmHL>
0.65

> <Tr_1_Tst_0>
1

$$$$
100292
  Mrv171c012251910542D          

 12 12  0  0  0  0            999 V2000
    4.5078    0.8250    0.0000 Cl  0  0  0  0  0  0  0  0  0  0  0  0
    3.7934    0.4125    0.0000 C   0  0  0  0  0  0  0  0  0  0  0  0
    3.0789    0.8250    0.0000 C   0  0  0  0  0  0  0  0  0  0  0  0
    3.0789    1.6500    0.0000 Cl  0  0  0  0  0  0  0  0  0  0  0  0
    2.3644    0.4125    0.0000 C   0  0  0  0  0  0  0  0  0  0  0  0
    1.6500    0.8250    0.0000 C   0  0  0  0  0  0  0  0  0  0  0  0
    2.3644   -0.4125    0.0000 C   0  0  0  0  0  0  0  0  0  0  0  0
    1.6500   -0.8250    0.0000 Cl  0  0  0  0  0  0  0  0  0  0  0  0
    3.0789   -0.8250    0.0000 C   0  0  0  0  0  0  0  0  0  0  0  0
    3.0789   -1.6500    0.0000 Cl  0  0  0  0  0  0  0  0  0  0  0  0
    3.7934   -0.4125    0.0000 C   0  0  0  0  0  0  0  0  0  0  0  0
    4.5078   -0.8250    0.0000 C   0  0  0  0  0  0  0  0  0  0  0  0
  1  2  1  0  0  0  0
  3  2  1  0  0  0  0
  3  4  1  0  0  0  0
  5  3  2  0  0  0  0
  5  6  1  0  0  0  0
  7  5  1  0  0  0  0
  7  8  1  0  0  0  0
  9  7  2  0  0  0  0
  9 10  1  0  0  0  0
 11  9  1  0  0  0  0
  2 11  2  0  0  0  0
 11 12  1  0  0  0  0
M  END
> <ChemID>
100292

> <CAS>
877-10-1

> <Original_SMILES>
Cc1c(Cl)c(Cl)c(C)c(Cl)c1Cl

> <preferred_name>
2,3,5,6-Tetrachloro-p-xylene

> <dsstox_substance_id>
DTXSID60236565

> <dsstox_compound_id>
DTXCID90159056

> <qc_level>
Public_Medium

> <Canonical_QSARr>
CC1C(Cl)=C(Cl)C(C)=C(Cl)C=1Cl

> <InChI_Code_QSARr>
InChI=1S/C8H6Cl4/c1-3-5(9)7(11)4(2)8(12)6(3)10/h1-2H3

> <InChI Key_QSARr>
CTSQZGJZQUVGBQ-UHFFFAOYSA-N

> <Salt_Solvent>


> <Salt_Solvent_ID>
0

> <MPID>
101923

> <LogKmHL>
1.12

> <Tr_1_Tst_0>
1

$$$$
100294
  Mrv171c012251910542D          

 13 13  0  0  0  0            999 V2000
    3.0693   -0.9344    0.0000 N   0  3  0  0  0  0  0  0  0  0  0  0
    2.3549   -1.3469    0.0000 C   0  0  0  0  0  0  0  0  0  0  0  0
    1.6404   -0.9344    0.0000 C   0  0  0  0  0  0  0  0  0  0  0  0
    1.6404   -0.1094    0.0000 Cl  0  0  0  0  0  0  0  0  0  0  0  0
    0.9259   -1.3469    0.0000 C   0  0  0  0  0  0  0  0  0  0  0  0
    0.2114   -0.9344    0.0000 Cl  0  0  0  0  0  0  0  0  0  0  0  0
    0.9259   -2.1719    0.0000 C   0  0  0  0  0  0  0  0  0  0  0  0
    0.2114   -2.5844    0.0000 Cl  0  0  0  0  0  0  0  0  0  0  0  0
    1.6404   -2.5844    0.0000 C   0  0  0  0  0  0  0  0  0  0  0  0
    1.6404   -3.4094    0.0000 Cl  0  0  0  0  0  0  0  0  0  0  0  0
    2.3549   -2.1719    0.0000 C   0  0  0  0  0  0  0  0  0  0  0  0
    3.0693   -0.1094    0.0000 O   0  5  0  0  0  0  0  0  0  0  0  0
    3.7838   -1.3469    0.0000 O   0  0  0  0  0  0  0  0  0  0  0  0
  1  2  1  0  0  0  0
  3  2  1  0  0  0  0
  3  4  1  0  0  0  0
  5  3  2  0  0  0  0
  5  6  1  0  0  0  0
  7  5  1  0  0  0  0
  7  8  1  0  0  0  0
  9  7  2  0  0  0  0
  9 10  1  0  0  0  0
 11  9  1  0  0  0  0
  2 11  2  0  0  0  0
  1 12  1  0  0  0  0
  1 13  2  0  0  0  0
M  CHG  2   1   1  12  -1
M  END
> <ChemID>
100294

> <CAS>
879-39-0

> <Original_SMILES>
[O-][N+](=O)c1cc(Cl)c(Cl)c(Cl)c1Cl

> <preferred_name>
2,3,4,5-Tetrachloronitrobenzene

> <dsstox_substance_id>
DTXSID5026097

> <dsstox_compound_id>
DTXCID106097

> <qc_level>
DSSTox_Low

> <Canonical_QSARr>
[O-][N+](=O)C1=CC(Cl)=C(Cl)C(Cl)=C1Cl

> <InChI_Code_QSARr>
InChI=1S/C6HCl4NO2/c7-2-1-3(11(12)13)5(9)6(10)4(2)8/h1H

> <InChI Key_QSARr>
MTBYTWZDRVOMBR-UHFFFAOYSA-N

> <Salt_Solvent>


> <Salt_Solvent_ID>
0

> <MPID>
101924

> <LogKmHL>
-0.69

> <Tr_1_Tst_0>
0

$$$$
100295
  Mrv171c012251910542D          

 15 17  0  0  0  0            999 V2000
    2.4745    0.4125    0.0000 C   0  0  0  0  0  0  0  0  0  0  0  0
    2.8870    1.1270    0.0000 C   0  0  0  0  0  0  0  0  0  0  0  0
    3.7120    1.1270    0.0000 C   0  0  0  0  0  0  0  0  0  0  0  0
    4.1245    0.4125    0.0000 C   0  0  0  0  0  0  0  0  0  0  0  0
    3.7120   -0.3020    0.0000 C   0  0  0  0  0  0  0  0  0  0  0  0
    2.8870   -0.3020    0.0000 C   0  0  0  0  0  0  0  0  0  0  0  0
    2.4745   -1.0164    0.0000 C   0  0  0  0  0  0  0  0  0  0  0  0
    1.6495   -1.0164    0.0000 C   0  0  0  0  0  0  0  0  0  0  0  0
    1.2370   -1.7309    0.0000 C   0  0  0  0  0  0  0  0  0  0  0  0
    1.2370   -0.3020    0.0000 C   0  0  0  0  0  0  0  0  0  0  0  0
    0.4120   -0.3020    0.0000 C   0  0  0  0  0  0  0  0  0  0  0  0
   -0.0005    0.4125    0.0000 C   0  0  0  0  0  0  0  0  0  0  0  0
    0.4120    1.1270    0.0000 C   0  0  0  0  0  0  0  0  0  0  0  0
    1.2370    1.1270    0.0000 C   0  0  0  0  0  0  0  0  0  0  0  0
    1.6495    0.4125    0.0000 C   0  0  0  0  0  0  0  0  0  0  0  0
  2  1  2  0  0  0  0
  3  2  1  0  0  0  0
  4  3  2  0  0  0  0
  5  4  1  0  0  0  0
  6  5  2  0  0  0  0
  6  1  1  0  0  0  0
  7  6  1  0  0  0  0
  8  7  2  0  0  0  0
  8  9  1  0  0  0  0
 10  8  1  0  0  0  0
 10 11  2  0  0  0  0
 11 12  1  0  0  0  0
 12 13  2  0  0  0  0
 13 14  1  0  0  0  0
 14 15  2  0  0  0  0
  1 15  1  0  0  0  0
 15 10  1  0  0  0  0
M  END
> <ChemID>
100295

> <CAS>
883-20-5

> <Original_SMILES>
Cc1cc2ccccc2c2ccccc21

> <preferred_name>
9-Methylphenanthrene

> <dsstox_substance_id>
DTXSID4061258

> <dsstox_compound_id>
DTXCID5048633

> <qc_level>
Public_High

> <Canonical_QSARr>
CC1=CC2=CC=CC=C2C2=CC=CC=C21

> <InChI_Code_QSARr>
InChI=1S/C15H12/c1-11-10-12-6-2-3-8-14(12)15-9-5-4-7-13(11)15/h2-10H,1H3

> <InChI Key_QSARr>
DALBHIYZSZZWBS-UHFFFAOYSA-N

> <Salt_Solvent>


> <Salt_Solvent_ID>
0

> <MPID>
101925

> <LogKmHL>
0.12

> <Tr_1_Tst_0>
1

$$$$
100296
  Mrv171c012251910542D          

 10  9  0  0  0  0            999 V2000
    1.4413   -0.7697    0.0000 C   0  0  0  0  0  0  0  0  0  0  0  0
    1.4413   -1.5947    0.0000 C   0  0  0  0  0  0  0  0  0  0  0  0
    0.7268   -2.0072    0.0000 C   0  0  0  0  0  0  0  0  0  0  0  0
    0.0124   -2.4197    0.0000 F   0  0  0  0  0  0  0  0  0  0  0  0
    1.1393   -2.7217    0.0000 F   0  0  0  0  0  0  0  0  0  0  0  0
    0.3143   -1.2928    0.0000 F   0  0  0  0  0  0  0  0  0  0  0  0
    2.1558   -2.0072    0.0000 O   0  0  0  0  0  0  0  0  0  0  0  0
    1.4413    0.0553    0.0000 F   0  0  0  0  0  0  0  0  0  0  0  0
    2.2663   -0.7697    0.0000 F   0  0  0  0  0  0  0  0  0  0  0  0
    0.6163   -0.7697    0.0000 F   0  0  0  0  0  0  0  0  0  0  0  0
  1  2  1  0  0  0  0
  2  3  1  0  0  0  0
  3  4  1  0  0  0  0
  3  5  1  0  0  0  0
  3  6  1  0  0  0  0
  2  7  1  0  0  0  0
  1  8  1  0  0  0  0
  1  9  1  0  0  0  0
  1 10  1  0  0  0  0
M  END
> <ChemID>
100296

> <CAS>
920-66-1

> <Original_SMILES>
OC(C(F)(F)F)C(F)(F)F

> <preferred_name>
1,1,1,3,3,3-Hexafluoro-2-propanol

> <dsstox_substance_id>
DTXSID1022134

> <dsstox_compound_id>
DTXCID902134

> <qc_level>
DSSTox_Low

> <Canonical_QSARr>
OC(C(F)(F)F)C(F)(F)F

> <InChI_Code_QSARr>
InChI=1S/C3H2F6O/c4-2(5,6)1(10)3(7,8)9/h1,10H

> <InChI Key_QSARr>
BYEAHWXPCBROCE-UHFFFAOYSA-N

> <Salt_Solvent>


> <Salt_Solvent_ID>
0

> <MPID>
101926

> <LogKmHL>
-1.32

> <Tr_1_Tst_0>
1

$$$$
100298
  Mrv171c012251910542D          

 11 11  0  0  0  0            999 V2000
    2.9302   -0.7547    0.0000 Cl  0  0  0  0  0  0  0  0  0  0  0  0
    2.2157   -1.1672    0.0000 C   0  0  0  0  0  0  0  0  0  0  0  0
    1.5012   -0.7547    0.0000 C   0  0  0  0  0  0  0  0  0  0  0  0
    1.5012    0.0703    0.0000 O   0  0  0  0  0  0  0  0  0  0  0  0
    0.7868   -1.1672    0.0000 C   0  0  0  0  0  0  0  0  0  0  0  0
    0.0723   -0.7547    0.0000 Cl  0  0  0  0  0  0  0  0  0  0  0  0
    0.7868   -1.9922    0.0000 C   0  0  0  0  0  0  0  0  0  0  0  0
    0.0723   -2.4047    0.0000 Cl  0  0  0  0  0  0  0  0  0  0  0  0
    1.5012   -2.4047    0.0000 C   0  0  0  0  0  0  0  0  0  0  0  0
    2.2157   -1.9922    0.0000 C   0  0  0  0  0  0  0  0  0  0  0  0
    2.9302   -2.4047    0.0000 Cl  0  0  0  0  0  0  0  0  0  0  0  0
  1  2  1  0  0  0  0
  3  2  1  0  0  0  0
  3  4  1  0  0  0  0
  5  3  2  0  0  0  0
  5  6  1  0  0  0  0
  7  5  1  0  0  0  0
  7  8  1  0  0  0  0
  9  7  2  0  0  0  0
 10  9  1  0  0  0  0
  2 10  2  0  0  0  0
 10 11  1  0  0  0  0
M  END
> <ChemID>
100298

> <CAS>
935-95-5

> <Original_SMILES>
Oc1c(Cl)c(Cl)cc(Cl)c1Cl

> <preferred_name>
2,3,5,6-Tetrachlorophenol

> <dsstox_substance_id>
DTXSID2026101

> <dsstox_compound_id>
DTXCID206101

> <qc_level>
DSSTox_Low

> <Canonical_QSARr>
OC1=C(Cl)C(Cl)=CC(Cl)=C1Cl

> <InChI_Code_QSARr>
InChI=1S/C6H2Cl4O/c7-2-1-3(8)5(10)6(11)4(2)9/h1,11H

> <InChI Key_QSARr>
KEWNKZNZRIAIAK-UHFFFAOYSA-N

> <Salt_Solvent>


> <Salt_Solvent_ID>
0

> <MPID>
101927

> <LogKmHL>
-0.1

> <Tr_1_Tst_0>
1

$$$$
100299
  Mrv171c012251910542D          

 15 17  0  0  0  0            999 V2000
    2.6922    1.8838    0.0000 Cl  0  0  0  0  0  0  0  0  0  0  0  0
    3.1047    1.1693    0.0000 C   0  0  0  0  0  0  0  0  0  0  0  0
    3.9297    1.1693    0.0000 C   0  0  0  0  0  0  0  0  0  0  0  0
    4.3422    0.4548    0.0000 C   0  0  0  0  0  0  0  0  0  0  0  0
    5.1672    0.4548    0.0000 C   0  0  0  0  0  0  0  0  0  0  0  0
    5.5797   -0.2597    0.0000 C   0  0  0  0  0  0  0  0  0  0  0  0
    5.1672   -0.9741    0.0000 C   0  0  0  0  0  0  0  0  0  0  0  0
    4.3422   -0.9741    0.0000 C   0  0  0  0  0  0  0  0  0  0  0  0
    3.9297   -0.2597    0.0000 C   0  0  0  0  0  0  0  0  0  0  0  0
    3.1047   -0.2597    0.0000 C   0  0  0  0  0  0  0  0  0  0  0  0
    2.6922   -0.9741    0.0000 C   0  0  0  0  0  0  0  0  0  0  0  0
    1.8672   -0.9741    0.0000 C   0  0  0  0  0  0  0  0  0  0  0  0
    1.4547   -0.2597    0.0000 C   0  0  0  0  0  0  0  0  0  0  0  0
    1.8672    0.4548    0.0000 C   0  0  0  0  0  0  0  0  0  0  0  0
    2.6922    0.4548    0.0000 C   0  0  0  0  0  0  0  0  0  0  0  0
  1  2  1  0  0  0  0
  3  2  2  0  0  0  0
  4  3  1  0  0  0  0
  4  5  2  0  0  0  0
  5  6  1  0  0  0  0
  6  7  2  0  0  0  0
  7  8  1  0  0  0  0
  8  9  2  0  0  0  0
  9  4  1  0  0  0  0
 10  9  1  0  0  0  0
 10 11  2  0  0  0  0
 11 12  1  0  0  0  0
 12 13  2  0  0  0  0
 13 14  1  0  0  0  0
 14 15  2  0  0  0  0
  2 15  1  0  0  0  0
 15 10  1  0  0  0  0
M  END
> <ChemID>
100299

> <CAS>
947-72-8

> <Original_SMILES>
Clc1cc2ccccc2c2ccccc21

> <preferred_name>
Phenanthrene, 9-chloro-

> <dsstox_substance_id>
DTXSID00241572

> <dsstox_compound_id>
DTXCID30164063

> <qc_level>
Public_Medium

> <Canonical_QSARr>
ClC1=CC2=CC=CC=C2C2=CC=CC=C21

> <InChI_Code_QSARr>
InChI=1S/C14H9Cl/c15-14-9-10-5-1-2-6-11(10)12-7-3-4-8-13(12)14/h1-9H

> <InChI Key_QSARr>
CJWHZQNUDAJJSB-UHFFFAOYSA-N

> <Salt_Solvent>


> <Salt_Solvent_ID>
0

> <MPID>
101928

> <LogKmHL>
1.8

> <Tr_1_Tst_0>
0

$$$$
100300
  Mrv171c012251910542D          

 16 16  0  0  0  0            999 V2000
    3.1108   -3.1397    0.0000 S   0  0  0  0  0  0  0  0  0  0  0  0
    3.7783   -2.6548    0.0000 P   0  0  0  0  0  0  0  0  0  0  0  0
    4.2632   -3.3222    0.0000 O   0  0  0  0  0  0  0  0  0  0  0  0
    3.9276   -4.0759    0.0000 C   0  0  0  0  0  0  0  0  0  0  0  0
    4.4457   -2.1698    0.0000 O   0  0  0  0  0  0  0  0  0  0  0  0
    5.1994   -2.5054    0.0000 C   0  0  0  0  0  0  0  0  0  0  0  0
    3.2934   -1.9873    0.0000 S   0  0  0  0  0  0  0  0  0  0  0  0
    3.6289   -1.2336    0.0000 C   0  0  0  0  0  0  0  0  0  0  0  0
    3.1440   -0.5662    0.0000 N   0  0  0  0  0  0  0  0  0  0  0  0
    3.3989    0.2184    0.0000 N   0  0  0  0  0  0  0  0  0  0  0  0
    2.7315    0.7033    0.0000 C   0  0  0  0  0  0  0  0  0  0  0  0
    2.7315    1.5283    0.0000 O   0  0  0  0  0  0  0  0  0  0  0  0
    2.0170    1.9408    0.0000 C   0  0  0  0  0  0  0  0  0  0  0  0
    2.0641    0.2184    0.0000 S   0  0  0  0  0  0  0  0  0  0  0  0
    2.3190   -0.5662    0.0000 C   0  0  0  0  0  0  0  0  0  0  0  0
    1.8341   -1.2336    0.0000 O   0  0  0  0  0  0  0  0  0  0  0  0
  1  2  2  0  0  0  0
  2  3  1  0  0  0  0
  3  4  1  0  0  0  0
  2  5  1  0  0  0  0
  5  6  1  0  0  0  0
  2  7  1  0  0  0  0
  7  8  1  0  0  0  0
  8  9  1  0  0  0  0
 10  9  1  0  0  0  0
 11 10  2  0  0  0  0
 11 12  1  0  0  0  0
 12 13  1  0  0  0  0
 14 11  1  0  0  0  0
 15 14  1  0  0  0  0
  9 15  1  0  0  0  0
 15 16  2  0  0  0  0
M  END
> <ChemID>
100300

> <CAS>
950-37-8

> <Original_SMILES>
COC1=NN(CSP(=S)(OC)OC)C(=O)S1

> <preferred_name>
Methidathion

> <dsstox_substance_id>
DTXSID5020819

> <dsstox_compound_id>
DTXCID70819

> <qc_level>
DSSTox_Low

> <Canonical_QSARr>
COC1=NN(CSP(=S)(OC)OC)C(=O)S1

> <InChI_Code_QSARr>
InChI=1S/C6H11N2O4PS3/c1-10-5-7-8(6(9)16-5)4-15-13(14,11-2)12-3/h4H2,1-3H3

> <InChI Key_QSARr>
MEBQXILRKZHVCX-UHFFFAOYSA-N

> <Salt_Solvent>


> <Salt_Solvent_ID>
0

> <MPID>
101929

> <LogKmHL>
-1.15

> <Tr_1_Tst_0>
1

$$$$
100301
  Mrv171c012251910542D          

 19 19  0  0  0  0            999 V2000
   -0.7145    4.5375    0.0000 C   0  0  0  0  0  0  0  0  0  0  0  0
    0.0000    4.1250    0.0000 O   0  0  0  0  0  0  0  0  0  0  0  0
    0.0000    3.3000    0.0000 P   0  0  0  0  0  0  0  0  0  0  0  0
   -0.8250    3.3000    0.0000 O   0  0  0  0  0  0  0  0  0  0  0  0
    0.0000    2.4750    0.0000 O   0  0  0  0  0  0  0  0  0  0  0  0
    0.7145    2.0625    0.0000 C   0  0  0  0  0  0  0  0  0  0  0  0
    1.4289    2.4750    0.0000 C   0  0  0  0  0  0  0  0  0  0  0  0
    2.1434    2.0625    0.0000 Cl  0  0  0  0  0  0  0  0  0  0  0  0
    0.7145    1.2375    0.0000 C   0  0  0  0  0  0  0  0  0  0  0  0
    1.4289    0.8250    0.0000 C   0  0  0  0  0  0  0  0  0  0  0  0
    1.4289   -0.0000    0.0000 C   0  0  0  0  0  0  0  0  0  0  0  0
    2.1434   -0.4125    0.0000 Cl  0  0  0  0  0  0  0  0  0  0  0  0
    0.7145   -0.4125    0.0000 C   0  0  0  0  0  0  0  0  0  0  0  0
    0.7145   -1.2375    0.0000 Cl  0  0  0  0  0  0  0  0  0  0  0  0
    0.0000    0.0000    0.0000 C   0  0  0  0  0  0  0  0  0  0  0  0
    0.0000    0.8250    0.0000 C   0  0  0  0  0  0  0  0  0  0  0  0
   -0.7145    1.2375    0.0000 Cl  0  0  0  0  0  0  0  0  0  0  0  0
    0.8250    3.3000    0.0000 O   0  0  0  0  0  0  0  0  0  0  0  0
    1.2375    4.0145    0.0000 C   0  0  0  0  0  0  0  0  0  0  0  0
  1  2  1  0  0  0  0
  2  3  1  0  0  0  0
  3  4  2  0  0  0  0
  3  5  1  0  0  0  0
  5  6  1  0  0  0  0
  6  7  2  0  0  0  0
  7  8  1  4  0  0  0
  6  9  1  0  0  0  0
  9 10  1  0  0  0  0
 10 11  2  0  0  0  0
 11 12  1  0  0  0  0
 11 13  1  0  0  0  0
 13 14  1  0  0  0  0
 13 15  2  0  0  0  0
 15 16  1  0  0  0  0
  9 16  2  0  0  0  0
 16 17  1  0  0  0  0
  3 18  1  0  0  0  0
 18 19  1  0  0  0  0
M  END
> <ChemID>
100301

> <CAS>
961-11-5

> <Original_SMILES>
COP(=O)(OC(=CCl)c1cc(Cl)c(Cl)cc1Cl)OC

> <preferred_name>
Tetrachlorovinphos

> <dsstox_substance_id>
DTXSID1021320

> <dsstox_compound_id>
DTXCID301320

> <qc_level>
DSSTox_High

> <Canonical_QSARr>
COP(=O)(OC(=CCl)C1C=C(Cl)C(Cl)=CC=1Cl)OC

> <InChI_Code_QSARr>
InChI=1S/C10H9Cl4O4P/c1-16-19(15,17-2)18-10(5-11)6-3-8(13)9(14)4-7(6)12/h3-5H,1-2H3

> <InChI Key_QSARr>
UBCKGWBNUIFUST-UHFFFAOYSA-N

> <Salt_Solvent>


> <Salt_Solvent_ID>
0

> <MPID>
101930

> <LogKmHL>
-1.02

> <Tr_1_Tst_0>
1

$$$$
100302
  Mrv171c012251910542D          

 18 21  0  0  0  0            999 V2000
    0.7055   -1.5210    0.0000 C   0  0  0  0  0  0  0  0  0  0  0  0
   -0.0401   -2.1469    0.0000 Cl  0  0  0  0  0  0  0  0  0  0  0  0
    0.8732   -0.7133    0.0000 C   0  0  0  0  0  0  0  0  0  0  0  0
    0.4951    0.0945    0.0000 Cl  0  0  0  0  0  0  0  0  0  0  0  0
    1.7608   -0.5071    0.0000 C   0  0  0  0  0  0  0  0  0  0  0  0
    2.0172    0.3274    0.0000 Cl  0  0  0  0  0  0  0  0  0  0  0  0
    1.7951   -1.3568    0.0000 C   0  0  0  0  0  0  0  0  0  0  0  0
    1.2885   -0.6285    0.0000 Cl  0  0  0  0  0  0  0  0  0  0  0  0
    0.9657   -1.8961    0.0000 Cl  0  0  0  0  0  0  0  0  0  0  0  0
    1.4254   -2.1226    0.0000 C   0  0  0  0  0  0  0  0  0  0  0  0
    1.2909   -2.9902    0.0000 Cl  0  0  0  0  0  0  0  0  0  0  0  0
    2.2088   -1.8639    0.0000 C   0  0  0  0  0  0  0  0  0  0  0  0
    2.9253   -2.2730    0.0000 C   0  0  0  0  0  0  0  0  0  0  0  0
    3.1303   -3.1035    0.0000 Cl  0  0  0  0  0  0  0  0  0  0  0  0
    3.5357   -1.7181    0.0000 C   0  0  0  0  0  0  0  0  0  0  0  0
    4.0175   -1.0483    0.0000 O   0  0  0  0  0  0  0  0  0  0  0  0
    3.1966   -0.9660    0.0000 C   0  0  0  0  0  0  0  0  0  0  0  0
    2.3765   -1.0562    0.0000 C   0  0  0  0  0  0  0  0  0  0  0  0
  1  2  1  0  0  0  0
  3  1  2  0  0  0  0
  3  4  1  0  0  0  0
  5  3  1  0  0  0  0
  5  6  1  0  0  0  0
  5  7  1  0  0  0  0
  7  8  1  0  0  0  0
  7  9  1  0  0  0  0
  7 10  1  0  0  0  0
  1 10  1  0  0  0  0
 10 11  1  0  0  0  0
 10 12  1  0  0  0  0
 13 12  1  0  0  0  0
 13 14  1  0  0  0  0
 15 13  1  0  0  0  0
 15 16  1  0  0  0  0
 16 17  1  0  0  0  0
 17 15  1  0  0  0  0
 18 17  1  0  0  0  0
 12 18  1  0  0  0  0
 18  5  1  0  0  0  0
M  END
> <ChemID>
100302

> <CAS>
1024-57-3

> <Original_SMILES>
ClC1(Cl)C2(Cl)C3C4OC4C(Cl)C3C1(Cl)C(Cl)=C2Cl

> <preferred_name>
Heptachlor epoxide

> <dsstox_substance_id>
DTXSID1024126

> <dsstox_compound_id>
DTXCID001436335

> <qc_level>
DSSTox_High

> <Canonical_QSARr>
ClC1(Cl)C2(Cl)C3C4OC4C(Cl)C3C1(Cl)C(Cl)=C2Cl

> <InChI_Code_QSARr>
InChI=1S/C10H5Cl7O/c11-3-1-2(4-5(3)18-4)9(15)7(13)6(12)8(1,14)10(9,16)17/h1-5H

> <InChI Key_QSARr>
ZXFXBSWRVIQKOD-UHFFFAOYSA-N

> <Salt_Solvent>


> <Salt_Solvent_ID>
0

> <MPID>
101931

> <LogKmHL>
2.2

> <Tr_1_Tst_0>
1

$$$$
100303
  Mrv171c012251910542D          

 23 24  0  0  0  0            999 V2000
    3.1269   -1.0344    0.0000 Br  0  0  0  0  0  0  0  0  0  0  0  0
    2.4125   -1.4469    0.0000 C   0  0  0  0  0  0  0  0  0  0  0  0
    1.6980   -1.0344    0.0000 C   0  0  0  0  0  0  0  0  0  0  0  0
    1.6980   -0.2094    0.0000 Br  0  0  0  0  0  0  0  0  0  0  0  0
    0.9835   -1.4469    0.0000 C   0  0  0  0  0  0  0  0  0  0  0  0
    0.2691   -1.0344    0.0000 Br  0  0  0  0  0  0  0  0  0  0  0  0
    0.9835   -2.2719    0.0000 C   0  0  0  0  0  0  0  0  0  0  0  0
    0.2691   -2.6844    0.0000 Br  0  0  0  0  0  0  0  0  0  0  0  0
    1.6980   -2.6844    0.0000 C   0  0  0  0  0  0  0  0  0  0  0  0
    1.6980   -3.5094    0.0000 Br  0  0  0  0  0  0  0  0  0  0  0  0
    2.4125   -2.2719    0.0000 C   0  0  0  0  0  0  0  0  0  0  0  0
    3.1269   -2.6844    0.0000 O   0  0  0  0  0  0  0  0  0  0  0  0
    3.8414   -2.2719    0.0000 C   0  0  0  0  0  0  0  0  0  0  0  0
    4.5559   -2.6844    0.0000 C   0  0  0  0  0  0  0  0  0  0  0  0
    4.5559   -3.5094    0.0000 Br  0  0  0  0  0  0  0  0  0  0  0  0
    5.2704   -2.2719    0.0000 C   0  0  0  0  0  0  0  0  0  0  0  0
    5.9848   -2.6844    0.0000 Br  0  0  0  0  0  0  0  0  0  0  0  0
    5.2704   -1.4469    0.0000 C   0  0  0  0  0  0  0  0  0  0  0  0
    5.9848   -1.0344    0.0000 Br  0  0  0  0  0  0  0  0  0  0  0  0
    4.5559   -1.0344    0.0000 C   0  0  0  0  0  0  0  0  0  0  0  0
    4.5559   -0.2094    0.0000 Br  0  0  0  0  0  0  0  0  0  0  0  0
    3.8414   -1.4469    0.0000 C   0  0  0  0  0  0  0  0  0  0  0  0
    3.5059   -0.6932    0.0000 Br  0  0  0  0  0  0  0  0  0  0  0  0
  1  2  1  0  0  0  0
  3  2  1  0  0  0  0
  3  4  1  0  0  0  0
  5  3  2  0  0  0  0
  5  6  1  0  0  0  0
  7  5  1  0  0  0  0
  7  8  1  0  0  0  0
  9  7  2  0  0  0  0
  9 10  1  0  0  0  0
 11  9  1  0  0  0  0
  2 11  2  0  0  0  0
 11 12  1  0  0  0  0
 12 13  1  0  0  0  0
 14 13  1  0  0  0  0
 14 15  1  0  0  0  0
 16 14  2  0  0  0  0
 16 17  1  0  0  0  0
 18 16  1  0  0  0  0
 18 19  1  0  0  0  0
 20 18  2  0  0  0  0
 20 21  1  0  0  0  0
 22 20  1  0  0  0  0
 13 22  2  0  0  0  0
 22 23  1  0  0  0  0
M  END
> <ChemID>
100303

> <CAS>
1163-19-5

> <Original_SMILES>
Brc1c(Oc2c(Br)c(Br)c(Br)c(Br)c2Br)c(Br)c(Br)c(Br)c1Br

> <preferred_name>
Decabromodiphenyl oxide

> <dsstox_substance_id>
DTXSID9020376

> <dsstox_compound_id>
DTXCID50376

> <qc_level>
DSSTox_Low

> <Canonical_QSARr>
BrC1C(OC2=C(Br)C(Br)=C(Br)C(Br)=C2Br)=C(Br)C(Br)=C(Br)C=1Br

> <InChI_Code_QSARr>
InChI=1S/C12Br10O/c13-1-3(15)7(19)11(8(20)4(1)16)23-12-9(21)5(17)2(14)6(18)10(12)22

> <InChI Key_QSARr>
WHHGLZMJPXIBIX-UHFFFAOYSA-N

> <Salt_Solvent>


> <Salt_Solvent_ID>
0

> <MPID>
101932

> <LogKmHL>
1.16

> <Tr_1_Tst_0>
0

$$$$
100304
  Mrv171c012251910542D          

 25 26  0  0  0  0            999 V2000
    3.1872   -2.3886    0.0000 O   0  0  0  0  0  0  0  0  0  0  0  0
    3.9017   -2.8011    0.0000 P   0  0  0  0  0  0  0  0  0  0  0  0
    3.4892   -3.5156    0.0000 O   0  0  0  0  0  0  0  0  0  0  0  0
    2.6642   -3.5156    0.0000 C   0  0  0  0  0  0  0  0  0  0  0  0
    2.2517   -2.8011    0.0000 C   0  0  0  0  0  0  0  0  0  0  0  0
    1.4267   -2.8011    0.0000 C   0  0  0  0  0  0  0  0  0  0  0  0
    1.0142   -2.0866    0.0000 C   0  0  0  0  0  0  0  0  0  0  0  0
    0.1892   -2.0866    0.0000 C   0  0  0  0  0  0  0  0  0  0  0  0
   -0.2233   -1.3722    0.0000 C   0  0  0  0  0  0  0  0  0  0  0  0
    2.6642   -2.0866    0.0000 C   0  0  0  0  0  0  0  0  0  0  0  0
    2.2517   -1.3722    0.0000 C   0  0  0  0  0  0  0  0  0  0  0  0
    4.3142   -2.0866    0.0000 O   0  0  0  0  0  0  0  0  0  0  0  0
    3.9017   -1.3722    0.0000 C   0  0  0  0  0  0  0  0  0  0  0  0
    4.3142   -0.6577    0.0000 C   0  0  0  0  0  0  0  0  0  0  0  0
    3.9017    0.0568    0.0000 C   0  0  0  0  0  0  0  0  0  0  0  0
    3.0767    0.0568    0.0000 C   0  0  0  0  0  0  0  0  0  0  0  0
    2.6642   -0.6577    0.0000 C   0  0  0  0  0  0  0  0  0  0  0  0
    3.0767   -1.3722    0.0000 C   0  0  0  0  0  0  0  0  0  0  0  0
    4.6161   -3.2136    0.0000 O   0  0  0  0  0  0  0  0  0  0  0  0
    4.6161   -4.0386    0.0000 C   0  0  0  0  0  0  0  0  0  0  0  0
    3.9017   -4.4511    0.0000 C   0  0  0  0  0  0  0  0  0  0  0  0
    3.9017   -5.2761    0.0000 C   0  0  0  0  0  0  0  0  0  0  0  0
    4.6161   -5.6886    0.0000 C   0  0  0  0  0  0  0  0  0  0  0  0
    5.3306   -5.2761    0.0000 C   0  0  0  0  0  0  0  0  0  0  0  0
    5.3306   -4.4511    0.0000 C   0  0  0  0  0  0  0  0  0  0  0  0
  1  2  2  0  0  0  0
  2  3  1  0  0  0  0
  3  4  1  0  0  0  0
  4  5  1  0  0  0  0
  5  6  1  0  0  0  0
  6  7  1  0  0  0  0
  7  8  1  0  0  0  0
  8  9  1  0  0  0  0
  5 10  1  0  0  0  0
 10 11  1  0  0  0  0
  2 12  1  0  0  0  0
 12 13  1  0  0  0  0
 14 13  1  0  0  0  0
 15 14  2  0  0  0  0
 16 15  1  0  0  0  0
 17 16  2  0  0  0  0
 18 17  1  0  0  0  0
 13 18  2  0  0  0  0
  2 19  1  0  0  0  0
 19 20  1  0  0  0  0
 21 20  1  0  0  0  0
 22 21  2  0  0  0  0
 23 22  1  0  0  0  0
 24 23  2  0  0  0  0
 25 24  1  0  0  0  0
 20 25  2  0  0  0  0
M  END
> <ChemID>
100304

> <CAS>
1241-94-7

> <Original_SMILES>
CCC(COP(=O)(Oc1ccccc1)Oc1ccccc1)CCCC

> <preferred_name>
2-Ethylhexyl diphenyl phosphate

> <dsstox_substance_id>
DTXSID1025300

> <dsstox_compound_id>
DTXCID105300

> <qc_level>
DSSTox_High

> <Canonical_QSARr>
CCC(COP(=O)(OC1C=CC=CC=1)OC1C=CC=CC=1)CCCC

> <InChI_Code_QSARr>
InChI=1S/C20H27O4P/c1-3-5-12-18(4-2)17-22-25(21,23-19-13-8-6-9-14-19)24-20-15-10-7-11-16-20/h6-11,13-16,18H,3-5,12,17H2,1-2H3

> <InChI Key_QSARr>
CGSLYBDCEGBZCG-UHFFFAOYSA-N

> <Salt_Solvent>


> <Salt_Solvent_ID>
0

> <MPID>
101933

> <LogKmHL>
-0.15

> <Tr_1_Tst_0>
1

$$$$
100306
  Mrv171c012251910542D          

 18 18  0  0  0  0            999 V2000
    5.2223   -1.2927    0.0000 C   0  0  0  0  0  0  0  0  0  0  0  0
    5.9368   -1.7052    0.0000 C   0  0  0  0  0  0  0  0  0  0  0  0
    5.6348   -0.5783    0.0000 C   0  0  0  0  0  0  0  0  0  0  0  0
    4.8098   -2.0072    0.0000 C   0  0  0  0  0  0  0  0  0  0  0  0
    4.5078   -0.8802    0.0000 C   0  0  0  0  0  0  0  0  0  0  0  0
    4.5078   -0.0552    0.0000 C   0  0  0  0  0  0  0  0  0  0  0  0
    3.7934    0.3573    0.0000 C   0  0  0  0  0  0  0  0  0  0  0  0
    3.7934    1.1823    0.0000 C   0  0  0  0  0  0  0  0  0  0  0  0
    3.7934    2.0073    0.0000 C   0  0  0  0  0  0  0  0  0  0  0  0
    4.6184    1.1823    0.0000 C   0  0  0  0  0  0  0  0  0  0  0  0
    2.9684    1.1823    0.0000 C   0  0  0  0  0  0  0  0  0  0  0  0
    3.0789   -0.0552    0.0000 C   0  0  0  0  0  0  0  0  0  0  0  0
    3.0789   -0.8802    0.0000 C   0  0  0  0  0  0  0  0  0  0  0  0
    2.3644   -1.2927    0.0000 C   0  0  0  0  0  0  0  0  0  0  0  0
    1.6499   -1.7052    0.0000 C   0  0  0  0  0  0  0  0  0  0  0  0
    2.7769   -2.0072    0.0000 C   0  0  0  0  0  0  0  0  0  0  0  0
    1.9519   -0.5783    0.0000 C   0  0  0  0  0  0  0  0  0  0  0  0
    3.7934   -1.2927    0.0000 C   0  0  0  0  0  0  0  0  0  0  0  0
  1  2  1  0  0  0  0
  1  3  1  0  0  0  0
  1  4  1  0  0  0  0
  1  5  1  0  0  0  0
  6  5  1  0  0  0  0
  7  6  2  0  0  0  0
  7  8  1  0  0  0  0
  8  9  1  0  0  0  0
  8 10  1  0  0  0  0
  8 11  1  0  0  0  0
 12  7  1  0  0  0  0
 13 12  2  0  0  0  0
 13 14  1  0  0  0  0
 14 15  1  0  0  0  0
 14 16  1  0  0  0  0
 14 17  1  0  0  0  0
 18 13  1  0  0  0  0
  5 18  2  0  0  0  0
M  END
> <ChemID>
100306

> <CAS>
1460-02-2

> <Original_SMILES>
CC(C)(C)c1cc(cc(c1)C(C)(C)C)C(C)(C)C

> <preferred_name>
1,3,5-Tri-tert-butylbenzene

> <dsstox_substance_id>
DTXSID50163255

> <dsstox_compound_id>
DTXCID5085746

> <qc_level>
Public_Medium

> <Canonical_QSARr>
CC(C)(C)C1C=C(C=C(C=1)C(C)(C)C)C(C)(C)C

> <InChI_Code_QSARr>
InChI=1S/C18H30/c1-16(2,3)13-10-14(17(4,5)6)12-15(11-13)18(7,8)9/h10-12H,1-9H3

> <InChI Key_QSARr>
GUFMBISUSZUUCB-UHFFFAOYSA-N

> <Salt_Solvent>


> <Salt_Solvent_ID>
0

> <MPID>
101934

> <LogKmHL>
2.7

> <Tr_1_Tst_0>
1

$$$$
100307
  Mrv171c012251910542D          

 11 11  0  0  0  0            999 V2000
    2.1440   -1.7150    0.0000 O   0  0  0  0  0  0  0  0  0  0  0  0
    1.4296   -2.1275    0.0000 C   0  0  0  0  0  0  0  0  0  0  0  0
    0.7151   -1.7150    0.0000 C   0  0  0  0  0  0  0  0  0  0  0  0
    0.7151   -0.8900    0.0000 C   0  0  0  0  0  0  0  0  0  0  0  0
    0.0006   -0.4775    0.0000 C   0  0  0  0  0  0  0  0  0  0  0  0
    1.4296   -0.4775    0.0000 C   0  0  0  0  0  0  0  0  0  0  0  0
    0.0006   -2.1275    0.0000 C   0  0  0  0  0  0  0  0  0  0  0  0
    0.0006   -2.9525    0.0000 C   0  0  0  0  0  0  0  0  0  0  0  0
    0.7151   -3.3650    0.0000 C   0  0  0  0  0  0  0  0  0  0  0  0
    0.7151   -4.1900    0.0000 C   0  0  0  0  0  0  0  0  0  0  0  0
    1.4296   -2.9525    0.0000 C   0  0  0  0  0  0  0  0  0  0  0  0
  1  2  1  0  0  0  0
  3  2  1  0  0  0  0
  3  4  1  0  0  0  0
  4  5  1  0  0  0  0
  4  6  1  0  0  0  0
  7  3  1  0  0  0  0
  8  7  1  0  0  0  0
  9  8  1  0  0  0  0
  9 10  1  0  0  0  0
 11  9  1  0  0  0  0
  2 11  1  0  0  0  0
M  END
> <ChemID>
100307

> <CAS>
1490-04-6

> <Original_SMILES>
CC(C)C1CCC(C)CC1O

> <preferred_name>
Menthol

> <dsstox_substance_id>
DTXSID8029650

> <dsstox_compound_id>
DTXCID30805

> <qc_level>
DSSTox_High

> <Canonical_QSARr>
CC(C)C1CCC(C)CC1O

> <InChI_Code_QSARr>
InChI=1S/C10H20O/c1-7(2)9-5-4-8(3)6-10(9)11/h7-11H,4-6H2,1-3H3

> <InChI Key_QSARr>
NOOLISFMXDJSKH-UHFFFAOYSA-N

> <Salt_Solvent>


> <Salt_Solvent_ID>
0

> <MPID>
101935

> <LogKmHL>
-1.19

> <Tr_1_Tst_0>
1

$$$$
100308
  Mrv171c012251910542D          

 29 30  0  0  0  0            999 V2000
    2.6665   -2.9980    0.0000 F   0  0  0  0  0  0  0  0  0  0  0  0
    3.0790   -3.7125    0.0000 C   0  0  0  0  0  0  0  0  0  0  0  0
    2.3645   -4.1250    0.0000 C   0  0  0  0  0  0  0  0  0  0  0  0
    2.3645   -4.9500    0.0000 F   0  0  0  0  0  0  0  0  0  0  0  0
    1.6500   -3.7125    0.0000 F   0  0  0  0  0  0  0  0  0  0  0  0
    3.7934   -3.3000    0.0000 O   0  0  0  0  0  0  0  0  0  0  0  0
    3.7934   -2.4750    0.0000 C   0  0  0  0  0  0  0  0  0  0  0  0
    4.5079   -2.0625    0.0000 C   0  0  0  0  0  0  0  0  0  0  0  0
    4.5079   -1.2375    0.0000 C   0  0  0  0  0  0  0  0  0  0  0  0
    3.7934   -0.8250    0.0000 C   0  0  0  0  0  0  0  0  0  0  0  0
    3.7934    0.0000    0.0000 C   0  0  0  0  0  0  0  0  0  0  0  0
    4.6184    0.0000    0.0000 C   0  0  0  0  0  0  0  0  0  0  0  0
    2.9684    0.0000    0.0000 C   0  0  0  0  0  0  0  0  0  0  0  0
    3.7934    0.8250    0.0000 C   0  0  0  0  0  0  0  0  0  0  0  0
    4.5079    1.2375    0.0000 C   0  0  0  0  0  0  0  0  0  0  0  0
    4.5079    2.0625    0.0000 C   0  0  0  0  0  0  0  0  0  0  0  0
    3.7934    2.4750    0.0000 C   0  0  0  0  0  0  0  0  0  0  0  0
    3.7934    3.3000    0.0000 O   0  0  0  0  0  0  0  0  0  0  0  0
    4.5079    3.7125    0.0000 C   0  0  0  0  0  0  0  0  0  0  0  0
    5.2224    4.1250    0.0000 C   0  0  0  0  0  0  0  0  0  0  0  0
    5.2224    4.9500    0.0000 F   0  0  0  0  0  0  0  0  0  0  0  0
    5.9369    3.7125    0.0000 F   0  0  0  0  0  0  0  0  0  0  0  0
    4.9204    2.9980    0.0000 F   0  0  0  0  0  0  0  0  0  0  0  0
    4.0954    4.4270    0.0000 F   0  0  0  0  0  0  0  0  0  0  0  0
    3.0790    2.0625    0.0000 C   0  0  0  0  0  0  0  0  0  0  0  0
    3.0790    1.2375    0.0000 C   0  0  0  0  0  0  0  0  0  0  0  0
    3.0790   -1.2375    0.0000 C   0  0  0  0  0  0  0  0  0  0  0  0
    3.0790   -2.0625    0.0000 C   0  0  0  0  0  0  0  0  0  0  0  0
    3.4915   -4.4270    0.0000 F   0  0  0  0  0  0  0  0  0  0  0  0
  1  2  1  0  0  0  0
  2  3  1  0  0  0  0
  3  4  1  0  0  0  0
  3  5  1  0  0  0  0
  2  6  1  0  0  0  0
  6  7  1  0  0  0  0
  8  7  1  0  0  0  0
  9  8  2  0  0  0  0
 10  9  1  0  0  0  0
 10 11  1  0  0  0  0
 11 12  1  0  0  0  0
 11 13  1  0  0  0  0
 11 14  1  0  0  0  0
 15 14  1  0  0  0  0
 16 15  2  0  0  0  0
 17 16  1  0  0  0  0
 17 18  1  0  0  0  0
 18 19  1  0  0  0  0
 19 20  1  0  0  0  0
 20 21  1  0  0  0  0
 20 22  1  0  0  0  0
 19 23  1  0  0  0  0
 19 24  1  0  0  0  0
 25 17  2  0  0  0  0
 26 25  1  0  0  0  0
 14 26  2  0  0  0  0
 27 10  2  0  0  0  0
 28 27  1  0  0  0  0
  7 28  2  0  0  0  0
  2 29  1  0  0  0  0
M  END
> <ChemID>
100308

> <CAS>
1544-19-0

> <Original_SMILES>
CC(C)(c1ccc(cc1)OC(F)(F)C(F)F)c1ccc(cc1)OC(F)(F)C(F)F

> <preferred_name>
1,1'-Isopropylidenebis(4-(1,1,2,2-tetrafluoroethoxy)benzene)

> <dsstox_substance_id>
DTXSID20165620

> <dsstox_compound_id>
DTXCID6088111

> <qc_level>
Public_Medium

> <Canonical_QSARr>
CC(C)(C1C=CC(=CC=1)OC(F)(F)C(F)F)C1C=CC(=CC=1)OC(F)(F)C(F)F

> <InChI_Code_QSARr>
InChI=1S/C19H16F8O2/c1-17(2,11-3-7-13(8-4-11)28-18(24,25)15(20)21)12-5-9-14(10-6-12)29-19(26,27)16(22)23/h3-10,15-16H,1-2H3

> <InChI Key_QSARr>
NILNWNGNABYYHH-UHFFFAOYSA-N

> <Salt_Solvent>


> <Salt_Solvent_ID>
0

> <MPID>
101936

> <LogKmHL>
2.79

> <Tr_1_Tst_0>
0

$$$$
100309
  Mrv171c012251910542D          

  9  9  0  0  0  0            999 V2000
    1.8265   -1.2374    0.0000 C   0  0  0  0  0  0  0  0  0  0  0  0
    2.5410   -1.6499    0.0000 C   0  0  0  0  0  0  0  0  0  0  0  0
    1.8265   -0.4124    0.0000 C   0  0  0  0  0  0  0  0  0  0  0  0
    1.1121    0.0001    0.0000 C   0  0  0  0  0  0  0  0  0  0  0  0
    1.1121    0.8251    0.0000 Cl  0  0  0  0  0  0  0  0  0  0  0  0
    0.3976   -0.4124    0.0000 C   0  0  0  0  0  0  0  0  0  0  0  0
    0.3976   -1.2374    0.0000 C   0  0  0  0  0  0  0  0  0  0  0  0
    1.1121   -1.6499    0.0000 C   0  0  0  0  0  0  0  0  0  0  0  0
    1.1121   -2.4749    0.0000 O   0  0  0  0  0  0  0  0  0  0  0  0
  1  2  1  0  0  0  0
  3  1  1  0  0  0  0
  4  3  2  0  0  0  0
  4  5  1  0  0  0  0
  6  4  1  0  0  0  0
  7  6  2  0  0  0  0
  8  7  1  0  0  0  0
  1  8  2  0  0  0  0
  8  9  1  0  0  0  0
M  END
> <ChemID>
100309

> <CAS>
1570-64-5

> <Original_SMILES>
Cc1cc(Cl)ccc1O

> <preferred_name>
4-Chloro-2-methylphenol

> <dsstox_substance_id>
DTXSID5022510

> <dsstox_compound_id>
DTXCID502510

> <qc_level>
DSSTox_Low

> <Canonical_QSARr>
CC1C=C(Cl)C=CC=1O

> <InChI_Code_QSARr>
InChI=1S/C7H7ClO/c1-5-4-6(8)2-3-7(5)9/h2-4,9H,1H3

> <InChI Key_QSARr>
RHPUJHQBPORFGV-UHFFFAOYSA-N

> <Salt_Solvent>


> <Salt_Solvent_ID>
0

> <MPID>
101937

> <LogKmHL>
-0.83

> <Tr_1_Tst_0>
1

$$$$
100310
  Mrv171c012251910542D          

 23 23  0  0  0  0            999 V2000
    1.3684   -1.0258    0.0000 O   0  0  0  0  0  0  0  0  0  0  0  0
    1.3684   -1.8508    0.0000 N   0  3  0  0  0  0  0  0  0  0  0  0
    0.6539   -2.2633    0.0000 O   0  5  0  0  0  0  0  0  0  0  0  0
    2.0828   -2.2633    0.0000 C   0  0  0  0  0  0  0  0  0  0  0  0
    2.0828   -3.0883    0.0000 C   0  0  0  0  0  0  0  0  0  0  0  0
    2.7973   -3.5008    0.0000 C   0  0  0  0  0  0  0  0  0  0  0  0
    2.7973   -4.3258    0.0000 C   0  0  0  0  0  0  0  0  0  0  0  0
    2.7973   -5.1508    0.0000 F   0  0  0  0  0  0  0  0  0  0  0  0
    3.6223   -4.3258    0.0000 F   0  0  0  0  0  0  0  0  0  0  0  0
    1.9723   -4.3258    0.0000 F   0  0  0  0  0  0  0  0  0  0  0  0
    3.5118   -3.0883    0.0000 C   0  0  0  0  0  0  0  0  0  0  0  0
    3.5118   -2.2633    0.0000 C   0  0  0  0  0  0  0  0  0  0  0  0
    4.2263   -1.8508    0.0000 N   0  3  0  0  0  0  0  0  0  0  0  0
    4.2263   -1.0258    0.0000 O   0  5  0  0  0  0  0  0  0  0  0  0
    4.9407   -2.2633    0.0000 O   0  0  0  0  0  0  0  0  0  0  0  0
    2.7973   -1.8508    0.0000 C   0  0  0  0  0  0  0  0  0  0  0  0
    2.7973   -1.0258    0.0000 N   0  0  0  0  0  0  0  0  0  0  0  0
    2.0828   -0.6133    0.0000 C   0  0  0  0  0  0  0  0  0  0  0  0
    2.0828    0.2117    0.0000 C   0  0  0  0  0  0  0  0  0  0  0  0
    1.3684    0.6242    0.0000 C   0  0  0  0  0  0  0  0  0  0  0  0
    3.5118   -0.6133    0.0000 C   0  0  0  0  0  0  0  0  0  0  0  0
    3.5118    0.2117    0.0000 C   0  0  0  0  0  0  0  0  0  0  0  0
    4.2263    0.6242    0.0000 C   0  0  0  0  0  0  0  0  0  0  0  0
  1  2  2  0  0  0  0
  2  3  1  0  0  0  0
  2  4  1  0  0  0  0
  5  4  1  0  0  0  0
  6  5  2  0  0  0  0
  6  7  1  0  0  0  0
  7  8  1  0  0  0  0
  7  9  1  0  0  0  0
  7 10  1  0  0  0  0
 11  6  1  0  0  0  0
 12 11  2  0  0  0  0
 12 13  1  0  0  0  0
 13 14  1  0  0  0  0
 13 15  2  0  0  0  0
 16 12  1  0  0  0  0
  4 16  2  0  0  0  0
 16 17  1  0  0  0  0
 17 18  1  0  0  0  0
 18 19  1  0  0  0  0
 19 20  1  0  0  0  0
 17 21  1  0  0  0  0
 21 22  1  0  0  0  0
 22 23  1  0  0  0  0
M  CHG  4   2   1   3  -1  13   1  14  -1
M  END
> <ChemID>
100310

> <CAS>
1582-09-8

> <Original_SMILES>
CCCN(CCC)c1c(cc(cc1[N+]([O-])=O)C(F)(F)F)[N+]([O-])=O

> <preferred_name>
Trifluralin

> <dsstox_substance_id>
DTXSID4021395

> <dsstox_compound_id>
DTXCID401395

> <qc_level>
DSSTox_Low

> <Canonical_QSARr>
CCCN(CCC)C1C(=CC(=CC=1[N+]([O-])=O)C(F)(F)F)[N+]([O-])=O

> <InChI_Code_QSARr>
InChI=1S/C13H16F3N3O4/c1-3-5-17(6-4-2)12-10(18(20)21)7-9(13(14,15)16)8-11(12)19(22)23/h7-8H,3-6H2,1-2H3

> <InChI Key_QSARr>
ZSDSQXJSNMTJDA-UHFFFAOYSA-N

> <Salt_Solvent>


> <Salt_Solvent_ID>
0

> <MPID>
101938

> <LogKmHL>
0.62

> <Tr_1_Tst_0>
1

$$$$
100311
  Mrv171c012251910542D          

  6  5  0  0  0  0            999 V2000
    1.5715   -1.5488    0.0000 C   0  0  0  0  0  0  0  0  0  0  0  0
    1.1590   -0.8343    0.0000 C   0  0  0  0  0  0  0  0  0  0  0  0
    1.8735   -0.4218    0.0000 C   0  0  0  0  0  0  0  0  0  0  0  0
    0.4446   -1.2468    0.0000 C   0  0  0  0  0  0  0  0  0  0  0  0
    0.7465   -0.1198    0.0000 O   0  0  0  0  0  0  0  0  0  0  0  0
   -0.0785   -0.1198    0.0000 C   0  0  0  0  0  0  0  0  0  0  0  0
  1  2  1  0  0  0  0
  2  3  1  0  0  0  0
  2  4  1  0  0  0  0
  2  5  1  0  0  0  0
  5  6  1  0  0  0  0
M  END
> <ChemID>
100311

> <CAS>
1634-04-4

> <Original_SMILES>
COC(C)(C)C

> <preferred_name>
Methyl tert-butyl ether

> <dsstox_substance_id>
DTXSID3020833

> <dsstox_compound_id>
DTXCID30833

> <qc_level>
DSSTox_Low

> <Canonical_QSARr>
COC(C)(C)C

> <InChI_Code_QSARr>
InChI=1S/C5H12O/c1-5(2,3)6-4/h1-4H3

> <InChI Key_QSARr>
BZLVMXJERCGZMT-UHFFFAOYSA-N

> <Salt_Solvent>


> <Salt_Solvent_ID>
0

> <MPID>
101939

> <LogKmHL>
-0.88

> <Tr_1_Tst_0>
1

$$$$
100312
  Mrv171c012251910542D          

 19 18  0  0  0  0            999 V2000
    1.8978   -0.9530    0.0000 O   0  0  0  0  0  0  0  0  0  0  0  0
    1.8978   -1.7780    0.0000 C   0  0  0  0  0  0  0  0  0  0  0  0
    1.1833   -2.1905    0.0000 O   0  0  0  0  0  0  0  0  0  0  0  0
    0.4688   -1.7780    0.0000 C   0  0  0  0  0  0  0  0  0  0  0  0
   -0.2456   -2.1905    0.0000 C   0  0  0  0  0  0  0  0  0  0  0  0
    2.6122   -2.1905    0.0000 C   0  0  0  0  0  0  0  0  0  0  0  0
    3.3267   -1.7780    0.0000 C   0  0  0  0  0  0  0  0  0  0  0  0
    4.0412   -2.1905    0.0000 C   0  0  0  0  0  0  0  0  0  0  0  0
    4.7557   -1.7780    0.0000 O   0  0  0  0  0  0  0  0  0  0  0  0
    5.4701   -2.1905    0.0000 C   0  0  0  0  0  0  0  0  0  0  0  0
    6.1846   -1.7780    0.0000 C   0  0  0  0  0  0  0  0  0  0  0  0
    4.0412   -3.0155    0.0000 O   0  0  0  0  0  0  0  0  0  0  0  0
    2.6122   -3.0155    0.0000 S   0  0  0  0  0  0  0  0  0  0  0  0
    1.8978   -3.4280    0.0000 P   0  0  0  0  0  0  0  0  0  0  0  0
    1.4853   -2.7136    0.0000 O   0  0  0  0  0  0  0  0  0  0  0  0
    0.6603   -2.7136    0.0000 C   0  0  0  0  0  0  0  0  0  0  0  0
    1.1833   -3.8405    0.0000 O   0  0  0  0  0  0  0  0  0  0  0  0
    0.4688   -3.4280    0.0000 C   0  0  0  0  0  0  0  0  0  0  0  0
    2.3103   -4.1425    0.0000 O   0  0  0  0  0  0  0  0  0  0  0  0
  1  2  2  0  0  0  0
  2  3  1  0  0  0  0
  3  4  1  0  0  0  0
  4  5  1  0  0  0  0
  2  6  1  0  0  0  0
  6  7  1  0  0  0  0
  7  8  1  0  0  0  0
  8  9  1  0  0  0  0
  9 10  1  0  0  0  0
 10 11  1  0  0  0  0
  8 12  2  0  0  0  0
  6 13  1  0  0  0  0
 13 14  1  0  0  0  0
 14 15  1  0  0  0  0
 15 16  1  0  0  0  0
 14 17  1  0  0  0  0
 17 18  1  0  0  0  0
 14 19  2  0  0  0  0
M  END
> <ChemID>
100312

> <CAS>
1634-78-2

> <Original_SMILES>
CCOC(=O)C(CC(=O)OCC)SP(=O)(OC)OC

> <preferred_name>
Malaoxon

> <dsstox_substance_id>
DTXSID9020790

> <dsstox_compound_id>
DTXCID50790

> <qc_level>
DSSTox_Low

> <Canonical_QSARr>
CCOC(=O)C(CC(=O)OCC)SP(=O)(OC)OC

> <InChI_Code_QSARr>
InChI=1S/C10H19O7PS/c1-5-16-9(11)7-8(10(12)17-6-2)19-18(13,14-3)15-4/h8H,5-7H2,1-4H3

> <InChI Key_QSARr>
WSORODGWGUUOBO-UHFFFAOYSA-N

> <Salt_Solvent>


> <Salt_Solvent_ID>
0

> <MPID>
101940

> <LogKmHL>
-1.04

> <Tr_1_Tst_0>
0

$$$$
100313
  Mrv171c012251910542D          

 10 10  0  0  0  0            999 V2000
    2.3645   -0.2063    0.0000 C   0  0  0  0  0  0  0  0  0  0  0  0
    2.3645    0.6187    0.0000 C   0  0  0  0  0  0  0  0  0  0  0  0
    3.0790    1.0312    0.0000 C   0  0  0  0  0  0  0  0  0  0  0  0
    3.0790    1.8562    0.0000 C   0  0  0  0  0  0  0  0  0  0  0  0
    3.7934    0.6187    0.0000 C   0  0  0  0  0  0  0  0  0  0  0  0
    1.6500   -0.6188    0.0000 C   0  0  0  0  0  0  0  0  0  0  0  0
    1.6500   -1.4438    0.0000 C   0  0  0  0  0  0  0  0  0  0  0  0
    2.3645   -1.8563    0.0000 C   0  0  0  0  0  0  0  0  0  0  0  0
    3.0790   -1.4438    0.0000 C   0  0  0  0  0  0  0  0  0  0  0  0
    3.0790   -0.6188    0.0000 C   0  0  0  0  0  0  0  0  0  0  0  0
  1  2  1  0  0  0  0
  2  3  1  0  0  0  0
  3  4  1  0  0  0  0
  3  5  1  0  0  0  0
  6  1  1  0  0  0  0
  7  6  1  0  0  0  0
  8  7  1  0  0  0  0
  9  8  1  0  0  0  0
 10  9  1  0  0  0  0
  1 10  1  0  0  0  0
M  END
> <ChemID>
100313

> <CAS>
1678-98-4

> <Original_SMILES>
CC(C)CC1CCCCC1

> <preferred_name>
Isobutylcyclohexane

> <dsstox_substance_id>
DTXSID80168374

> <dsstox_compound_id>
DTXCID2090865

> <qc_level>
Public_Medium

> <Canonical_QSARr>
CC(C)CC1CCCCC1

> <InChI_Code_QSARr>
InChI=1S/C10H20/c1-9(2)8-10-6-4-3-5-7-10/h9-10H,3-8H2,1-2H3

> <InChI Key_QSARr>
FFROMNOQCNVNIH-UHFFFAOYSA-N

> <Salt_Solvent>


> <Salt_Solvent_ID>
0

> <MPID>
101941

> <LogKmHL>
0.91

> <Tr_1_Tst_0>
1

$$$$
100314
  Mrv171c012251910542D          

 10 10  0  0  0  0            999 V2000
    2.3643   -1.8563    0.0000 Cl  0  0  0  0  0  0  0  0  0  0  0  0
    2.3643   -1.0313    0.0000 C   0  0  0  0  0  0  0  0  0  0  0  0
    3.0788   -0.6188    0.0000 C   0  0  0  0  0  0  0  0  0  0  0  0
    3.0788    0.2062    0.0000 C   0  0  0  0  0  0  0  0  0  0  0  0
    2.3643    0.6187    0.0000 C   0  0  0  0  0  0  0  0  0  0  0  0
    2.3643    1.4437    0.0000 C   0  0  0  0  0  0  0  0  0  0  0  0
    1.6499    1.8562    0.0000 C   0  0  0  0  0  0  0  0  0  0  0  0
    3.0788    1.8562    0.0000 C   0  0  0  0  0  0  0  0  0  0  0  0
    1.6499    0.2062    0.0000 C   0  0  0  0  0  0  0  0  0  0  0  0
    1.6499   -0.6188    0.0000 C   0  0  0  0  0  0  0  0  0  0  0  0
  1  2  1  0  0  0  0
  3  2  1  0  0  0  0
  4  3  2  0  0  0  0
  5  4  1  0  0  0  0
  5  6  1  0  0  0  0
  6  7  2  0  0  0  0
  6  8  1  0  0  0  0
  9  5  2  0  0  0  0
 10  9  1  0  0  0  0
  2 10  2  0  0  0  0
M  END
> <ChemID>
100314

> <CAS>
1712-70-5

> <Original_SMILES>
CC(=C)c1ccc(Cl)cc1

> <preferred_name>
4-Chloro-alpha-methylstyrene

> <dsstox_substance_id>
DTXSID40169024

> <dsstox_compound_id>
DTXCID5091515

> <qc_level>
Public_Medium

> <Canonical_QSARr>
CC(=C)C1C=CC(Cl)=CC=1

> <InChI_Code_QSARr>
InChI=1S/C9H9Cl/c1-7(2)8-3-5-9(10)6-4-8/h3-6H,1H2,2H3

> <InChI Key_QSARr>
WQDGTJOEMPEHHL-UHFFFAOYSA-N

> <Salt_Solvent>


> <Salt_Solvent_ID>
0

> <MPID>
101942

> <LogKmHL>
1.3

> <Tr_1_Tst_0>
1

$$$$
100315
  Mrv171c012251910542D          

 16 19  0  0  0  0            999 V2000
    3.4987   -0.0000    0.0000 C   0  0  0  0  0  0  0  0  0  0  0  0
    3.9112    0.7145    0.0000 C   0  0  0  0  0  0  0  0  0  0  0  0
    3.4987    1.4289    0.0000 C   0  0  0  0  0  0  0  0  0  0  0  0
    2.6737    1.4289    0.0000 C   0  0  0  0  0  0  0  0  0  0  0  0
    2.2612    0.7145    0.0000 C   0  0  0  0  0  0  0  0  0  0  0  0
    1.4362    0.7145    0.0000 C   0  0  0  0  0  0  0  0  0  0  0  0
    1.0237    0.0000    0.0000 C   0  0  0  0  0  0  0  0  0  0  0  0
    1.4362   -0.7145    0.0000 C   0  0  0  0  0  0  0  0  0  0  0  0
    2.2612   -0.7145    0.0000 C   0  0  0  0  0  0  0  0  0  0  0  0
    2.6737   -1.4289    0.0000 C   0  0  0  0  0  0  0  0  0  0  0  0
    3.4987   -1.4289    0.0000 C   0  0  0  0  0  0  0  0  0  0  0  0
    3.9112   -0.7145    0.0000 C   0  0  0  0  0  0  0  0  0  0  0  0
    4.7362   -0.7145    0.0000 C   0  0  0  0  0  0  0  0  0  0  0  0
    5.1487   -0.0000    0.0000 C   0  0  0  0  0  0  0  0  0  0  0  0
    4.7362    0.7145    0.0000 C   0  0  0  0  0  0  0  0  0  0  0  0
    2.6737   -0.0000    0.0000 C   0  0  0  0  0  0  0  0  0  0  0  0
  2  1  1  0  0  0  0
  2  3  2  0  0  0  0
  3  4  1  0  0  0  0
  4  5  2  0  0  0  0
  5  6  1  0  0  0  0
  6  7  1  0  0  0  0
  7  8  1  0  0  0  0
  8  9  1  0  0  0  0
  9 10  1  0  0  0  0
 10 11  2  0  0  0  0
 11 12  1  0  0  0  0
 12  1  2  0  0  0  0
 12 13  1  0  0  0  0
 13 14  1  0  0  0  0
 14 15  1  0  0  0  0
 15  2  1  0  0  0  0
  9 16  2  0  0  0  0
  1 16  1  0  0  0  0
 16  5  1  0  0  0  0
M  END
> <ChemID>
100315

> <CAS>
1732-13-4

> <Original_SMILES>
C1CCc2ccc3CCCc4ccc1c2c34

> <preferred_name>
1,2,3,6,7,8-Hexahydropyrene

> <dsstox_substance_id>
DTXSID60169541

> <dsstox_compound_id>
DTXCID5092032

> <qc_level>
Public_Medium

> <Canonical_QSARr>
C1CCC2=CC=C3CCCC4C=CC1=C2C=43

> <InChI_Code_QSARr>
InChI=1S/C16H16/c1-3-11-7-9-13-5-2-6-14-10-8-12(4-1)15(11)16(13)14/h7-10H,1-6H2

> <InChI Key_QSARr>
MBAIEZXRGAOPKH-UHFFFAOYSA-N

> <Salt_Solvent>


> <Salt_Solvent_ID>
0

> <MPID>
101943

> <LogKmHL>
0.42

> <Tr_1_Tst_0>
1

$$$$
100316
  Mrv171c012251910542D          

 18 20  0  0  0  0            999 V2000
    0.0016   -0.0014    0.0000 Cl  0  0  0  0  0  0  0  0  0  0  0  0
    0.7161   -0.4139    0.0000 C   0  0  0  0  0  0  0  0  0  0  0  0
    0.7161   -1.2389    0.0000 C   0  0  0  0  0  0  0  0  0  0  0  0
    0.0016   -1.6514    0.0000 Cl  0  0  0  0  0  0  0  0  0  0  0  0
    1.4305   -1.6514    0.0000 C   0  0  0  0  0  0  0  0  0  0  0  0
    2.1450   -1.2389    0.0000 C   0  0  0  0  0  0  0  0  0  0  0  0
    2.8595   -1.6514    0.0000 O   0  0  0  0  0  0  0  0  0  0  0  0
    3.5740   -1.2389    0.0000 C   0  0  0  0  0  0  0  0  0  0  0  0
    4.2884   -1.6514    0.0000 C   0  0  0  0  0  0  0  0  0  0  0  0
    5.0029   -1.2389    0.0000 C   0  0  0  0  0  0  0  0  0  0  0  0
    5.7174   -1.6514    0.0000 Cl  0  0  0  0  0  0  0  0  0  0  0  0
    5.0029   -0.4139    0.0000 C   0  0  0  0  0  0  0  0  0  0  0  0
    5.7174   -0.0014    0.0000 Cl  0  0  0  0  0  0  0  0  0  0  0  0
    4.2884   -0.0014    0.0000 C   0  0  0  0  0  0  0  0  0  0  0  0
    3.5740   -0.4139    0.0000 C   0  0  0  0  0  0  0  0  0  0  0  0
    2.8595   -0.0014    0.0000 O   0  0  0  0  0  0  0  0  0  0  0  0
    2.1450   -0.4139    0.0000 C   0  0  0  0  0  0  0  0  0  0  0  0
    1.4305   -0.0014    0.0000 C   0  0  0  0  0  0  0  0  0  0  0  0
  1  2  1  0  0  0  0
  3  2  1  0  0  0  0
  3  4  1  0  0  0  0
  5  3  2  0  0  0  0
  6  5  1  0  0  0  0
  6  7  1  0  0  0  0
  7  8  1  0  0  0  0
  9  8  1  0  0  0  0
 10  9  2  0  0  0  0
 10 11  1  0  0  0  0
 12 10  1  0  0  0  0
 12 13  1  0  0  0  0
 14 12  2  0  0  0  0
 15 14  1  0  0  0  0
  8 15  2  0  0  0  0
 15 16  1  0  0  0  0
 16 17  1  0  0  0  0
 17  6  2  0  0  0  0
 18 17  1  0  0  0  0
  2 18  2  0  0  0  0
M  END
> <ChemID>
100316

> <CAS>
1746-01-6

> <Original_SMILES>
Clc1cc2Oc3cc(Cl)c(Cl)cc3Oc2cc1Cl

> <preferred_name>
2,3,7,8-Tetrachlorodibenzo-p-dioxin

> <dsstox_substance_id>
DTXSID2021315

> <dsstox_compound_id>
DTXCID001315

> <qc_level>
DSSTox_Low

> <Canonical_QSARr>
ClC1=CC2OC3C=C(Cl)C(Cl)=CC=3OC=2C=C1Cl

> <InChI_Code_QSARr>
InChI=1S/C12H4Cl4O2/c13-5-1-9-10(2-6(5)14)18-12-4-8(16)7(15)3-11(12)17-9/h1-4H

> <InChI Key_QSARr>
HGUFODBRKLSHSI-UHFFFAOYSA-N

> <Salt_Solvent>


> <Salt_Solvent_ID>
0

> <MPID>
101944

> <LogKmHL>
1.78

> <Tr_1_Tst_0>
0

$$$$
100317
  Mrv171c012251910542D          

 14 14  0  0  0  0            999 V2000
   -0.0000   -0.8250    0.0000 C   0  0  0  0  0  0  0  0  0  0  0  0
   -0.0000    0.0000    0.0000 C   0  0  0  0  0  0  0  0  0  0  0  0
   -0.7145    0.4125    0.0000 C   0  0  0  0  0  0  0  0  0  0  0  0
   -1.4290    0.0000    0.0000 C   0  0  0  0  0  0  0  0  0  0  0  0
   -1.4290   -0.8250    0.0000 C   0  0  0  0  0  0  0  0  0  0  0  0
   -0.7145   -1.2375    0.0000 C   0  0  0  0  0  0  0  0  0  0  0  0
    0.7144   -1.2375    0.0000 C   0  0  0  0  0  0  0  0  0  0  0  0
    1.4289   -0.8250    0.0000 C   0  0  0  0  0  0  0  0  0  0  0  0
    2.1434   -1.2375    0.0000 C   0  0  0  0  0  0  0  0  0  0  0  0
    2.8578   -0.8250    0.0000 C   0  0  0  0  0  0  0  0  0  0  0  0
    3.5723   -1.2375    0.0000 C   0  0  0  0  0  0  0  0  0  0  0  0
    4.2868   -0.8250    0.0000 C   0  0  0  0  0  0  0  0  0  0  0  0
    5.0012   -1.2375    0.0000 C   0  0  0  0  0  0  0  0  0  0  0  0
    5.7157   -0.8250    0.0000 C   0  0  0  0  0  0  0  0  0  0  0  0
  2  1  1  0  0  0  0
  3  2  1  0  0  0  0
  4  3  1  0  0  0  0
  5  4  1  0  0  0  0
  6  5  1  0  0  0  0
  1  6  1  0  0  0  0
  1  7  1  0  0  0  0
  7  8  1  0  0  0  0
  8  9  1  0  0  0  0
  9 10  1  0  0  0  0
 10 11  1  0  0  0  0
 11 12  1  0  0  0  0
 12 13  1  0  0  0  0
 13 14  1  0  0  0  0
M  END
> <ChemID>
100317

> <CAS>
1795-15-9

> <Original_SMILES>
CCCCCCCCC1CCCCC1

> <preferred_name>
Cyclohexane, octyl-

> <dsstox_substance_id>
DTXSID3061972

> <dsstox_compound_id>
DTXCID7035696

> <qc_level>
Public_High

> <Canonical_QSARr>
CCCCCCCCC1CCCCC1

> <InChI_Code_QSARr>
InChI=1S/C14H28/c1-2-3-4-5-6-8-11-14-12-9-7-10-13-14/h14H,2-13H2,1H3

> <InChI Key_QSARr>
FBXWCEKQCVOOLT-UHFFFAOYSA-N

> <Salt_Solvent>


> <Salt_Solvent_ID>
0

> <MPID>
101945

> <LogKmHL>
1.1

> <Tr_1_Tst_0>
1

$$$$
100318
  Mrv171c012251910542D          

 13 13  0  0  0  0            999 V2000
    4.5224   -1.6925    0.0000 Cl  0  0  0  0  0  0  0  0  0  0  0  0
    3.8080   -2.1050    0.0000 C   0  0  0  0  0  0  0  0  0  0  0  0
    3.0935   -1.6925    0.0000 C   0  0  0  0  0  0  0  0  0  0  0  0
    3.0935   -0.8675    0.0000 O   0  0  0  0  0  0  0  0  0  0  0  0
    2.3790   -0.4550    0.0000 C   0  0  0  0  0  0  0  0  0  0  0  0
    2.3790   -2.1050    0.0000 C   0  0  0  0  0  0  0  0  0  0  0  0
    1.6645   -1.6925    0.0000 Cl  0  0  0  0  0  0  0  0  0  0  0  0
    2.3790   -2.9300    0.0000 C   0  0  0  0  0  0  0  0  0  0  0  0
    1.6645   -3.3425    0.0000 Cl  0  0  0  0  0  0  0  0  0  0  0  0
    3.0935   -3.3425    0.0000 C   0  0  0  0  0  0  0  0  0  0  0  0
    3.0935   -4.1675    0.0000 Cl  0  0  0  0  0  0  0  0  0  0  0  0
    3.8080   -2.9300    0.0000 C   0  0  0  0  0  0  0  0  0  0  0  0
    4.5224   -3.3425    0.0000 Cl  0  0  0  0  0  0  0  0  0  0  0  0
  1  2  1  0  0  0  0
  3  2  1  0  0  0  0
  3  4  1  0  0  0  0
  4  5  1  0  0  0  0
  6  3  2  0  0  0  0
  6  7  1  0  0  0  0
  8  6  1  0  0  0  0
  8  9  1  0  0  0  0
 10  8  2  0  0  0  0
 10 11  1  0  0  0  0
 12 10  1  0  0  0  0
  2 12  2  0  0  0  0
 12 13  1  0  0  0  0
M  END
> <ChemID>
100318

> <CAS>
1825-21-4

> <Original_SMILES>
COc1c(Cl)c(Cl)c(Cl)c(Cl)c1Cl

> <preferred_name>
Pentachloroanisole

> <dsstox_substance_id>
DTXSID2021103

> <dsstox_compound_id>
DTXCID501103

> <qc_level>
DSSTox_Low

> <Canonical_QSARr>
COC1C(Cl)=C(Cl)C(Cl)=C(Cl)C=1Cl

> <InChI_Code_QSARr>
InChI=1S/C7H3Cl5O/c1-13-7-5(11)3(9)2(8)4(10)6(7)12/h1H3

> <InChI Key_QSARr>
BBABSCYTNHOKOG-UHFFFAOYSA-N

> <Salt_Solvent>


> <Salt_Solvent_ID>
0

> <MPID>
101946

> <LogKmHL>
2.67

> <Tr_1_Tst_0>
1

$$$$
100319
  Mrv171c012251910542D          

 12 13  0  0  0  0            999 V2000
    0.4763   -0.4125    0.0000 C   0  0  0  0  0  0  0  0  0  0  0  0
   -0.2382    0.0000    0.0000 C   0  0  0  0  0  0  0  0  0  0  0  0
   -0.9526   -0.4125    0.0000 C   0  0  0  0  0  0  0  0  0  0  0  0
   -0.9526   -1.2375    0.0000 C   0  0  0  0  0  0  0  0  0  0  0  0
   -0.2382   -1.6500    0.0000 C   0  0  0  0  0  0  0  0  0  0  0  0
    0.4763   -1.2375    0.0000 C   0  0  0  0  0  0  0  0  0  0  0  0
    1.1908   -1.6500    0.0000 C   0  0  0  0  0  0  0  0  0  0  0  0
    1.1908   -2.4750    0.0000 Cl  0  0  0  0  0  0  0  0  0  0  0  0
    1.9052   -1.2375    0.0000 C   0  0  0  0  0  0  0  0  0  0  0  0
    1.9052   -0.4125    0.0000 C   0  0  0  0  0  0  0  0  0  0  0  0
    1.1908    0.0000    0.0000 C   0  0  0  0  0  0  0  0  0  0  0  0
    1.1908    0.8250    0.0000 Cl  0  0  0  0  0  0  0  0  0  0  0  0
  2  1  1  0  0  0  0
  3  2  2  0  0  0  0
  4  3  1  0  0  0  0
  5  4  2  0  0  0  0
  6  5  1  0  0  0  0
  6  1  1  0  0  0  0
  7  6  2  0  0  0  0
  7  8  1  0  0  0  0
  9  7  1  0  0  0  0
 10  9  2  0  0  0  0
 11 10  1  0  0  0  0
  1 11  2  0  0  0  0
 11 12  1  0  0  0  0
M  END
> <ChemID>
100319

> <CAS>
1825-31-6

> <Original_SMILES>
Clc1ccc(Cl)c2ccccc12

> <preferred_name>
Naphthalene, 1,4-dichloro-

> <dsstox_substance_id>
DTXSID6061999

> <dsstox_compound_id>
DTXCID7035802

> <qc_level>
Public_High

> <Canonical_QSARr>
ClC1C=CC(Cl)=C2C=CC=CC=12

> <InChI_Code_QSARr>
InChI=1S/C10H6Cl2/c11-9-5-6-10(12)8-4-2-1-3-7(8)9/h1-6H

> <InChI Key_QSARr>
JDPKCYMVSKDOGS-UHFFFAOYSA-N

> <Salt_Solvent>


> <Salt_Solvent_ID>
0

> <MPID>
101947

> <LogKmHL>
2.37

> <Tr_1_Tst_0>
1

$$$$
100320
  Mrv171c012251910542D          

 19 20  0  0  0  0            999 V2000
    4.7822   -2.7606    0.0000 C   0  0  0  0  0  0  0  0  0  0  0  0
    5.4967   -2.3481    0.0000 Cl  0  0  0  0  0  0  0  0  0  0  0  0
    4.0678   -2.3481    0.0000 C   0  0  0  0  0  0  0  0  0  0  0  0
    4.0678   -1.5231    0.0000 O   0  0  0  0  0  0  0  0  0  0  0  0
    3.3533   -1.1106    0.0000 C   0  0  0  0  0  0  0  0  0  0  0  0
    3.3533   -0.2856    0.0000 C   0  0  0  0  0  0  0  0  0  0  0  0
    2.6388    0.1269    0.0000 C   0  0  0  0  0  0  0  0  0  0  0  0
    1.9244   -0.2856    0.0000 C   0  0  0  0  0  0  0  0  0  0  0  0
    1.2099    0.1269    0.0000 N   0  3  0  0  0  0  0  0  0  0  0  0
    0.4954   -0.2856    0.0000 O   0  0  0  0  0  0  0  0  0  0  0  0
    1.2099    0.9519    0.0000 O   0  5  0  0  0  0  0  0  0  0  0  0
    1.9244   -1.1106    0.0000 C   0  0  0  0  0  0  0  0  0  0  0  0
    2.6388   -1.5231    0.0000 C   0  0  0  0  0  0  0  0  0  0  0  0
    3.3533   -2.7606    0.0000 C   0  0  0  0  0  0  0  0  0  0  0  0
    2.6388   -2.3481    0.0000 Cl  0  0  0  0  0  0  0  0  0  0  0  0
    3.3533   -3.5856    0.0000 C   0  0  0  0  0  0  0  0  0  0  0  0
    4.0678   -3.9981    0.0000 C   0  0  0  0  0  0  0  0  0  0  0  0
    4.0678   -4.8231    0.0000 Cl  0  0  0  0  0  0  0  0  0  0  0  0
    4.7822   -3.5856    0.0000 C   0  0  0  0  0  0  0  0  0  0  0  0
  1  2  1  0  0  0  0
  3  1  2  0  0  0  0
  3  4  1  0  0  0  0
  4  5  1  0  0  0  0
  6  5  1  0  0  0  0
  7  6  2  0  0  0  0
  8  7  1  0  0  0  0
  8  9  1  0  0  0  0
  9 10  2  0  0  0  0
  9 11  1  0  0  0  0
 12  8  2  0  0  0  0
 13 12  1  0  0  0  0
  5 13  2  0  0  0  0
 14  3  1  0  0  0  0
 14 15  1  0  0  0  0
 16 14  2  0  0  0  0
 17 16  1  0  0  0  0
 17 18  1  0  0  0  0
 19 17  2  0  0  0  0
  1 19  1  0  0  0  0
M  CHG  2   9   1  11  -1
M  END
> <ChemID>
100320

> <CAS>
1836-77-7

> <Original_SMILES>
[O-][N+](=O)c1ccc(cc1)Oc1c(Cl)cc(Cl)cc1Cl

> <preferred_name>
Chlornitrofen

> <dsstox_substance_id>
DTXSID0041775

> <dsstox_compound_id>
DTXCID8021775

> <qc_level>
DSSTox_Low

> <Canonical_QSARr>
[O-][N+](=O)C1C=CC(=CC=1)OC1C(Cl)=CC(Cl)=CC=1Cl

> <InChI_Code_QSARr>
InChI=1S/C12H6Cl3NO3/c13-7-5-10(14)12(11(15)6-7)19-9-3-1-8(2-4-9)16(17)18/h1-6H

> <InChI Key_QSARr>
XQNAUQUKWRBODG-UHFFFAOYSA-N

> <Salt_Solvent>


> <Salt_Solvent_ID>
0

> <MPID>
101948

> <LogKmHL>
0.75

> <Tr_1_Tst_0>
0

$$$$
100322
  Mrv171c012251910542D          

 18 19  0  0  0  0            999 V2000
    0.7145   -0.4125    0.0000 C   0  0  0  0  0  0  0  0  0  0  0  0
    0.7145   -1.2375    0.0000 C   0  0  0  0  0  0  0  0  0  0  0  0
    1.5395   -1.2375    0.0000 C   0  0  0  0  0  0  0  0  0  0  0  0
   -0.1105   -1.2375    0.0000 C   0  0  0  0  0  0  0  0  0  0  0  0
    0.7145   -2.0625    0.0000 C   0  0  0  0  0  0  0  0  0  0  0  0
    1.5395   -2.0625    0.0000 C   0  0  0  0  0  0  0  0  0  0  0  0
   -0.1105   -2.0625    0.0000 C   0  0  0  0  0  0  0  0  0  0  0  0
    0.7145   -2.8875    0.0000 C   0  0  0  0  0  0  0  0  0  0  0  0
   -0.0000   -3.3000    0.0000 C   0  0  0  0  0  0  0  0  0  0  0  0
   -0.0000   -4.1250    0.0000 C   0  0  0  0  0  0  0  0  0  0  0  0
    0.7145   -4.5375    0.0000 C   0  0  0  0  0  0  0  0  0  0  0  0
    1.4289   -4.1250    0.0000 C   0  0  0  0  0  0  0  0  0  0  0  0
    1.4289   -3.3000    0.0000 C   0  0  0  0  0  0  0  0  0  0  0  0
    1.4289    0.0000    0.0000 C   0  0  0  0  0  0  0  0  0  0  0  0
    1.4289    0.8250    0.0000 C   0  0  0  0  0  0  0  0  0  0  0  0
    0.7145    1.2375    0.0000 C   0  0  0  0  0  0  0  0  0  0  0  0
   -0.0000    0.8250    0.0000 C   0  0  0  0  0  0  0  0  0  0  0  0
   -0.0000   -0.0000    0.0000 C   0  0  0  0  0  0  0  0  0  0  0  0
  1  2  1  0  0  0  0
  2  3  1  0  0  0  0
  2  4  1  0  0  0  0
  2  5  1  0  0  0  0
  5  6  1  0  0  0  0
  5  7  1  0  0  0  0
  5  8  1  0  0  0  0
  9  8  1  0  0  0  0
 10  9  2  0  0  0  0
 11 10  1  0  0  0  0
 12 11  2  0  0  0  0
 13 12  1  0  0  0  0
  8 13  2  0  0  0  0
 14  1  1  0  0  0  0
 15 14  2  0  0  0  0
 16 15  1  0  0  0  0
 17 16  2  0  0  0  0
 18 17  1  0  0  0  0
  1 18  2  0  0  0  0
M  END
> <ChemID>
100322

> <CAS>
1889-67-4

> <Original_SMILES>
CC(C)(c1ccccc1)C(C)(C)c1ccccc1

> <preferred_name>
2,3-Dimethyl-2,3-diphenylbutane

> <dsstox_substance_id>
DTXSID1062043

> <dsstox_compound_id>
DTXCID9035967

> <qc_level>
Public_High

> <Canonical_QSARr>
CC(C)(C1C=CC=CC=1)C(C)(C)C1C=CC=CC=1

> <InChI_Code_QSARr>
InChI=1S/C18H22/c1-17(2,15-11-7-5-8-12-15)18(3,4)16-13-9-6-10-14-16/h5-14H,1-4H3

> <InChI Key_QSARr>
HGTUJZTUQFXBIH-UHFFFAOYSA-N

> <Salt_Solvent>


> <Salt_Solvent_ID>
0

> <MPID>
101949

> <LogKmHL>
0.87

> <Tr_1_Tst_0>
1

$$$$
100323
  Mrv171c012251910542D          

 14 14  0  0  0  0            999 V2000
    3.0144   -1.2542    0.0000 Cl  0  0  0  0  0  0  0  0  0  0  0  0
    2.2999   -1.6667    0.0000 C   0  0  0  0  0  0  0  0  0  0  0  0
    1.5855   -1.2542    0.0000 C   0  0  0  0  0  0  0  0  0  0  0  0
    1.5855   -0.4292    0.0000 C   0  0  0  0  0  0  0  0  0  0  0  0
    1.5855    0.3958    0.0000 N   0  0  0  0  0  0  0  0  0  0  0  0
    0.8710   -1.6667    0.0000 C   0  0  0  0  0  0  0  0  0  0  0  0
    0.1565   -1.2542    0.0000 Cl  0  0  0  0  0  0  0  0  0  0  0  0
    0.8710   -2.4917    0.0000 C   0  0  0  0  0  0  0  0  0  0  0  0
    0.1565   -2.9042    0.0000 Cl  0  0  0  0  0  0  0  0  0  0  0  0
    1.5855   -2.9042    0.0000 C   0  0  0  0  0  0  0  0  0  0  0  0
    1.5855   -3.7292    0.0000 Cl  0  0  0  0  0  0  0  0  0  0  0  0
    2.2999   -2.4917    0.0000 C   0  0  0  0  0  0  0  0  0  0  0  0
    3.0144   -2.9042    0.0000 C   0  0  0  0  0  0  0  0  0  0  0  0
    3.7289   -3.3167    0.0000 N   0  0  0  0  0  0  0  0  0  0  0  0
  1  2  1  0  0  0  0
  3  2  1  0  0  0  0
  3  4  1  0  0  0  0
  4  5  3  0  0  0  0
  6  3  2  0  0  0  0
  6  7  1  0  0  0  0
  8  6  1  0  0  0  0
  8  9  1  0  0  0  0
 10  8  2  0  0  0  0
 10 11  1  0  0  0  0
 12 10  1  0  0  0  0
  2 12  2  0  0  0  0
 12 13  1  0  0  0  0
 13 14  3  0  0  0  0
M  END
> <ChemID>
100323

> <CAS>
1897-45-6

> <Original_SMILES>
N#Cc1c(Cl)c(Cl)c(Cl)c(C#N)c1Cl

> <preferred_name>
Chlorothalonil

> <dsstox_substance_id>
DTXSID0020319

> <dsstox_compound_id>
DTXCID20319

> <qc_level>
DSSTox_Low

> <Canonical_QSARr>
N#CC1C(Cl)=C(Cl)C(Cl)=C(C#N)C=1Cl

> <InChI_Code_QSARr>
InChI=1S/C8Cl4N2/c9-5-3(1-13)6(10)8(12)7(11)4(5)2-14

> <InChI Key_QSARr>
CRQQGFGUEAVUIL-UHFFFAOYSA-N

> <Salt_Solvent>


> <Salt_Solvent_ID>
0

> <MPID>
101950

> <LogKmHL>
0.27

> <Tr_1_Tst_0>
1

$$$$
100324
  Mrv171c012251910542D          

 14 14  0  0  0  0            999 V2000
    4.2587   -3.0942    0.0000 Cl  0  0  0  0  0  0  0  0  0  0  0  0
    3.5442   -2.6817    0.0000 C   0  0  0  0  0  0  0  0  0  0  0  0
    3.5442   -1.8567    0.0000 N   0  0  0  0  0  0  0  0  0  0  0  0
    2.8297   -1.4442    0.0000 C   0  0  0  0  0  0  0  0  0  0  0  0
    2.8297   -0.6192    0.0000 N   0  0  0  0  0  0  0  0  0  0  0  0
    3.5442   -0.2067    0.0000 C   0  0  0  0  0  0  0  0  0  0  0  0
    3.5442    0.6183    0.0000 C   0  0  0  0  0  0  0  0  0  0  0  0
    4.2587   -0.6192    0.0000 C   0  0  0  0  0  0  0  0  0  0  0  0
    2.1153   -1.8567    0.0000 N   0  0  0  0  0  0  0  0  0  0  0  0
    2.1153   -2.6817    0.0000 C   0  0  0  0  0  0  0  0  0  0  0  0
    1.4008   -3.0942    0.0000 N   0  0  0  0  0  0  0  0  0  0  0  0
    0.6863   -2.6817    0.0000 C   0  0  0  0  0  0  0  0  0  0  0  0
   -0.0282   -3.0942    0.0000 C   0  0  0  0  0  0  0  0  0  0  0  0
    2.8297   -3.0942    0.0000 N   0  0  0  0  0  0  0  0  0  0  0  0
  1  2  1  0  0  0  0
  3  2  1  0  0  0  0
  4  3  2  0  0  0  0
  4  5  1  0  0  0  0
  5  6  1  0  0  0  0
  6  7  1  0  0  0  0
  6  8  1  0  0  0  0
  9  4  1  0  0  0  0
 10  9  2  0  0  0  0
 10 11  1  0  0  0  0
 11 12  1  0  0  0  0
 12 13  1  0  0  0  0
 14 10  1  0  0  0  0
  2 14  2  0  0  0  0
M  END
> <ChemID>
100324

> <CAS>
1912-24-9

> <Original_SMILES>
CCNc1[n]c(Cl)[n]c(NC(C)C)[n]1

> <preferred_name>
Atrazine

> <dsstox_substance_id>
DTXSID9020112

> <dsstox_compound_id>
DTXCID90112

> <qc_level>
DSSTox_Low

> <Canonical_QSARr>
CCNC1N=C(Cl)N=C(NC(C)C)N=1

> <InChI_Code_QSARr>
InChI=1S/C8H14ClN5/c1-4-10-7-12-6(9)13-8(14-7)11-5(2)3/h5H,4H2,1-3H3,(H2,10,11,12,13,14)

> <InChI Key_QSARr>
MXWJVTOOROXGIU-UHFFFAOYSA-N

> <Salt_Solvent>


> <Salt_Solvent_ID>
0

> <MPID>
101951

> <LogKmHL>
-1.05

> <Tr_1_Tst_0>
1

$$$$
100325
  Mrv171c012251910542D          

 13 14  0  0  0  0            999 V2000
    2.5258   -1.2380    0.0000 C   0  0  0  0  0  0  0  0  0  0  0  0
    1.8113   -0.8255    0.0000 C   0  0  0  0  0  0  0  0  0  0  0  0
    1.0968   -1.2380    0.0000 C   0  0  0  0  0  0  0  0  0  0  0  0
    0.3823   -0.8255    0.0000 C   0  0  0  0  0  0  0  0  0  0  0  0
   -0.3321   -1.2380    0.0000 C   0  0  0  0  0  0  0  0  0  0  0  0
    0.3823   -0.0005    0.0000 C   0  0  0  0  0  0  0  0  0  0  0  0
    1.0968   -2.0630    0.0000 C   0  0  0  0  0  0  0  0  0  0  0  0
    1.8113   -2.4755    0.0000 C   0  0  0  0  0  0  0  0  0  0  0  0
    2.5258   -2.0630    0.0000 C   0  0  0  0  0  0  0  0  0  0  0  0
    3.2402   -2.4755    0.0000 C   0  0  0  0  0  0  0  0  0  0  0  0
    3.9547   -2.0630    0.0000 C   0  0  0  0  0  0  0  0  0  0  0  0
    3.9547   -1.2380    0.0000 C   0  0  0  0  0  0  0  0  0  0  0  0
    3.2402   -0.8255    0.0000 C   0  0  0  0  0  0  0  0  0  0  0  0
  2  1  1  0  0  0  0
  3  2  2  0  0  0  0
  3  4  1  0  0  0  0
  4  5  1  0  0  0  0
  4  6  1  0  0  0  0
  7  3  1  0  0  0  0
  8  7  2  0  0  0  0
  9  8  1  0  0  0  0
  9  1  1  0  0  0  0
 10  9  2  0  0  0  0
 11 10  1  0  0  0  0
 12 11  2  0  0  0  0
 13 12  1  0  0  0  0
  1 13  2  0  0  0  0
M  END
> <ChemID>
100325

> <CAS>
2027-17-0

> <Original_SMILES>
CC(C)c1cc2ccccc2cc1

> <preferred_name>
2-Isopropylnaphthalene

> <dsstox_substance_id>
DTXSID7051844

> <dsstox_compound_id>
DTXCID5030400

> <qc_level>
DSSTox_Low

> <Canonical_QSARr>
CC(C)C1=CC2=CC=CC=C2C=C1

> <InChI_Code_QSARr>
InChI=1S/C13H14/c1-10(2)12-8-7-11-5-3-4-6-13(11)9-12/h3-10H,1-2H3

> <InChI Key_QSARr>
TVYVQNHYIHAJTD-UHFFFAOYSA-N

> <Salt_Solvent>


> <Salt_Solvent_ID>
0

> <MPID>
101952

> <LogKmHL>
1.0

> <Tr_1_Tst_0>
0

$$$$
100326
  Mrv171c012251910542D          

 11 11  0  0  0  0            999 V2000
    1.8381   -2.7688    0.0000 C   0  0  0  0  0  0  0  0  0  0  0  0
    1.8381   -3.5938    0.0000 O   0  0  0  0  0  0  0  0  0  0  0  0
    2.5525   -2.3563    0.0000 C   0  0  0  0  0  0  0  0  0  0  0  0
    2.5525   -1.5313    0.0000 C   0  0  0  0  0  0  0  0  0  0  0  0
    1.8381   -1.1188    0.0000 C   0  0  0  0  0  0  0  0  0  0  0  0
    1.8381   -0.2938    0.0000 C   0  0  0  0  0  0  0  0  0  0  0  0
    1.1236   -1.5313    0.0000 C   0  0  0  0  0  0  0  0  0  0  0  0
    0.4091   -1.1188    0.0000 N   0  3  0  0  0  0  0  0  0  0  0  0
   -0.3054   -1.5313    0.0000 O   0  0  0  0  0  0  0  0  0  0  0  0
    0.4091   -0.2938    0.0000 O   0  5  0  0  0  0  0  0  0  0  0  0
    1.1236   -2.3563    0.0000 C   0  0  0  0  0  0  0  0  0  0  0  0
  1  2  1  0  0  0  0
  3  1  1  0  0  0  0
  4  3  2  0  0  0  0
  5  4  1  0  0  0  0
  5  6  1  0  0  0  0
  7  5  2  0  0  0  0
  7  8  1  0  0  0  0
  8  9  2  0  0  0  0
  8 10  1  0  0  0  0
 11  7  1  0  0  0  0
  1 11  2  0  0  0  0
M  CHG  2   8   1  10  -1
M  END
> <ChemID>
100326

> <CAS>
2042-14-0

> <Original_SMILES>
Cc1ccc(O)cc1[N+]([O-])=O

> <preferred_name>


> <dsstox_substance_id>
DTXSID90879085

> <dsstox_compound_id>
DTXCID801017103

> <qc_level>


> <Canonical_QSARr>
CC1C=CC(O)=CC=1[N+]([O-])=O

> <InChI_Code_QSARr>
InChI=1S/C7H7NO3/c1-5-2-3-6(9)4-7(5)8(10)11/h2-4,9H,1H3

> <InChI Key_QSARr>
BQEXDUKMTVYBRK-UHFFFAOYSA-N

> <Salt_Solvent>


> <Salt_Solvent_ID>
0

> <MPID>
101953

> <LogKmHL>
-0.8

> <Tr_1_Tst_0>
1

$$$$
100327
  Mrv171c012251910542D          

 22 23  0  0  0  0            999 V2000
    2.5251   -1.6533    0.0000 C   0  0  0  0  0  0  0  0  0  0  0  0
    1.8106   -1.2408    0.0000 C   0  0  0  0  0  0  0  0  0  0  0  0
    1.8106   -0.4158    0.0000 Cl  0  0  0  0  0  0  0  0  0  0  0  0
    1.0961   -1.6533    0.0000 C   0  0  0  0  0  0  0  0  0  0  0  0
    0.3817   -1.2408    0.0000 Cl  0  0  0  0  0  0  0  0  0  0  0  0
    1.0961   -2.4783    0.0000 C   0  0  0  0  0  0  0  0  0  0  0  0
    0.3817   -2.8908    0.0000 Cl  0  0  0  0  0  0  0  0  0  0  0  0
    1.8106   -2.8908    0.0000 C   0  0  0  0  0  0  0  0  0  0  0  0
    1.8106   -3.7158    0.0000 Cl  0  0  0  0  0  0  0  0  0  0  0  0
    2.5251   -2.4783    0.0000 C   0  0  0  0  0  0  0  0  0  0  0  0
    3.2395   -2.8908    0.0000 Cl  0  0  0  0  0  0  0  0  0  0  0  0
    3.2395   -1.2408    0.0000 C   0  0  0  0  0  0  0  0  0  0  0  0
    3.9540   -1.6533    0.0000 C   0  0  0  0  0  0  0  0  0  0  0  0
    3.9540   -2.4783    0.0000 Cl  0  0  0  0  0  0  0  0  0  0  0  0
    4.6685   -1.2408    0.0000 C   0  0  0  0  0  0  0  0  0  0  0  0
    5.3829   -1.6533    0.0000 Cl  0  0  0  0  0  0  0  0  0  0  0  0
    4.6685   -0.4158    0.0000 C   0  0  0  0  0  0  0  0  0  0  0  0
    5.3829   -0.0033    0.0000 Cl  0  0  0  0  0  0  0  0  0  0  0  0
    3.9540   -0.0033    0.0000 C   0  0  0  0  0  0  0  0  0  0  0  0
    3.9540    0.8217    0.0000 Cl  0  0  0  0  0  0  0  0  0  0  0  0
    3.2395   -0.4158    0.0000 C   0  0  0  0  0  0  0  0  0  0  0  0
    2.5251   -0.0033    0.0000 Cl  0  0  0  0  0  0  0  0  0  0  0  0
  2  1  1  0  0  0  0
  2  3  1  0  0  0  0
  4  2  2  0  0  0  0
  4  5  1  0  0  0  0
  6  4  1  0  0  0  0
  6  7  1  0  0  0  0
  8  6  2  0  0  0  0
  8  9  1  0  0  0  0
 10  8  1  0  0  0  0
  1 10  2  0  0  0  0
 10 11  1  0  0  0  0
  1 12  1  0  0  0  0
 13 12  1  0  0  0  0
 13 14  1  0  0  0  0
 15 13  2  0  0  0  0
 15 16  1  0  0  0  0
 17 15  1  0  0  0  0
 17 18  1  0  0  0  0
 19 17  2  0  0  0  0
 19 20  1  0  0  0  0
 21 19  1  0  0  0  0
 12 21  2  0  0  0  0
 21 22  1  0  0  0  0
M  END
> <ChemID>
100327

> <CAS>
2051-24-3

> <Original_SMILES>
Clc1c(-c2c(Cl)c(Cl)c(Cl)c(Cl)c2Cl)c(Cl)c(Cl)c(Cl)c1Cl

> <preferred_name>
Decachlorobiphenyl

> <dsstox_substance_id>
DTXSID4047541

> <dsstox_compound_id>
DTXCID2027541

> <qc_level>
DSSTox_Low

> <Canonical_QSARr>
ClC1C(C2=C(Cl)C(Cl)=C(Cl)C(Cl)=C2Cl)=C(Cl)C(Cl)=C(Cl)C=1Cl

> <InChI_Code_QSARr>
InChI=1S/C12Cl10/c13-3-1(4(14)8(18)11(21)7(3)17)2-5(15)9(19)12(22)10(20)6(2)16

> <InChI Key_QSARr>
ONXPZLFXDMAPRO-UHFFFAOYSA-N

> <Salt_Solvent>


> <Salt_Solvent_ID>
0

> <MPID>
101954

> <LogKmHL>
2.86

> <Tr_1_Tst_0>
1

$$$$
100328
  Mrv171c012251910542D          

 10  9  0  0  0  0            999 V2000
    2.3607   -1.3590    0.0000 C   0  0  0  0  0  0  0  0  0  0  0  0
    1.6462   -0.9465    0.0000 C   0  0  0  0  0  0  0  0  0  0  0  0
    0.9317   -1.3590    0.0000 C   0  0  0  0  0  0  0  0  0  0  0  0
    0.2173   -0.9465    0.0000 C   0  0  0  0  0  0  0  0  0  0  0  0
   -0.4972   -1.3590    0.0000 C   0  0  0  0  0  0  0  0  0  0  0  0
    0.2173   -0.1215    0.0000 C   0  0  0  0  0  0  0  0  0  0  0  0
    3.0751   -0.9465    0.0000 C   0  0  0  0  0  0  0  0  0  0  0  0
    3.0751   -0.1215    0.0000 C   0  0  0  0  0  0  0  0  0  0  0  0
    3.7896   -1.3590    0.0000 C   0  0  0  0  0  0  0  0  0  0  0  0
    4.5041   -0.9465    0.0000 C   0  0  0  0  0  0  0  0  0  0  0  0
  1  2  1  0  0  0  0
  2  3  1  0  0  0  0
  3  4  1  0  0  0  0
  4  5  1  0  0  0  0
  4  6  1  0  0  0  0
  1  7  1  0  0  0  0
  7  8  1  0  0  0  0
  7  9  1  0  0  0  0
  9 10  1  0  0  0  0
M  END
> <ChemID>
100328

> <CAS>
2051-30-1

> <Original_SMILES>
CC(C)CCCC(C)CC

> <preferred_name>
2,6-Dimethyloctane

> <dsstox_substance_id>
DTXSID7058628

> <dsstox_compound_id>
DTXCID5032315

> <qc_level>
DSSTox_Low

> <Canonical_QSARr>
CC(C)CCCC(C)CC

> <InChI_Code_QSARr>
InChI=1S/C10H22/c1-5-10(4)8-6-7-9(2)3/h9-10H,5-8H2,1-4H3

> <InChI Key_QSARr>
ZALHPSXXQIPKTQ-UHFFFAOYSA-N

> <Salt_Solvent>


> <Salt_Solvent_ID>
0

> <MPID>
101955

> <LogKmHL>
0.61

> <Tr_1_Tst_0>
1

$$$$
100329
  Mrv171c012251910542D          

 21 22  0  0  0  0            999 V2000
    2.4555   -2.8039    0.0000 C   0  0  0  0  0  0  0  0  0  0  0  0
    3.2805   -2.8039    0.0000 C   0  0  0  0  0  0  0  0  0  0  0  0
    3.6930   -3.5183    0.0000 O   0  0  0  0  0  0  0  0  0  0  0  0
    4.5180   -3.5183    0.0000 P   0  0  0  0  0  0  0  0  0  0  0  0
    4.5180   -4.3433    0.0000 C   0  0  0  0  0  0  0  0  0  0  0  0
    3.8035   -4.7558    0.0000 C   0  0  0  0  0  0  0  0  0  0  0  0
    3.8035   -5.5808    0.0000 C   0  0  0  0  0  0  0  0  0  0  0  0
    4.5180   -5.9933    0.0000 C   0  0  0  0  0  0  0  0  0  0  0  0
    5.2325   -5.5808    0.0000 C   0  0  0  0  0  0  0  0  0  0  0  0
    5.2325   -4.7558    0.0000 C   0  0  0  0  0  0  0  0  0  0  0  0
    5.3430   -3.5183    0.0000 O   0  0  0  0  0  0  0  0  0  0  0  0
    5.7555   -2.8039    0.0000 C   0  0  0  0  0  0  0  0  0  0  0  0
    6.5805   -2.8039    0.0000 C   0  0  0  0  0  0  0  0  0  0  0  0
    6.9930   -2.0894    0.0000 C   0  0  0  0  0  0  0  0  0  0  0  0
    6.5805   -1.3749    0.0000 C   0  0  0  0  0  0  0  0  0  0  0  0
    6.9930   -0.6604    0.0000 N   0  3  0  0  0  0  0  0  0  0  0  0
    6.5805    0.0540    0.0000 O   0  5  0  0  0  0  0  0  0  0  0  0
    7.8180   -0.6604    0.0000 O   0  0  0  0  0  0  0  0  0  0  0  0
    5.7555   -1.3749    0.0000 C   0  0  0  0  0  0  0  0  0  0  0  0
    5.3430   -2.0894    0.0000 C   0  0  0  0  0  0  0  0  0  0  0  0
    4.5180   -2.6933    0.0000 S   0  0  0  0  0  0  0  0  0  0  0  0
  1  2  1  0  0  0  0
  2  3  1  0  0  0  0
  3  4  1  0  0  0  0
  4  5  1  0  0  0  0
  6  5  1  0  0  0  0
  7  6  2  0  0  0  0
  8  7  1  0  0  0  0
  9  8  2  0  0  0  0
 10  9  1  0  0  0  0
  5 10  2  0  0  0  0
  4 11  1  0  0  0  0
 11 12  1  0  0  0  0
 13 12  1  0  0  0  0
 14 13  2  0  0  0  0
 15 14  1  0  0  0  0
 15 16  1  0  0  0  0
 16 17  1  0  0  0  0
 16 18  2  0  0  0  0
 19 15  2  0  0  0  0
 20 19  1  0  0  0  0
 12 20  2  0  0  0  0
  4 21  2  0  0  0  0
M  CHG  2  16   1  17  -1
M  END
> <ChemID>
100329

> <CAS>
2104-64-5

> <Original_SMILES>
CCOP(=S)(Oc1ccc(cc1)[N+]([O-])=O)c1ccccc1

> <preferred_name>
EPN

> <dsstox_substance_id>
DTXSID7022174

> <dsstox_compound_id>
DTXCID102174

> <qc_level>
DSSTox_Low

> <Canonical_QSARr>
CCOP(=S)(OC1C=CC(=CC=1)[N+]([O-])=O)C1C=CC=CC=1

> <InChI_Code_QSARr>
InChI=1S/C14H14NO4PS/c1-2-18-20(21,14-6-4-3-5-7-14)19-13-10-8-12(9-11-13)15(16)17/h3-11H,2H2,1H3

> <InChI Key_QSARr>
AIGRXSNSLVJMEA-UHFFFAOYSA-N

> <Salt_Solvent>


> <Salt_Solvent_ID>
0

> <MPID>
101956

> <LogKmHL>
0.02

> <Tr_1_Tst_0>
0

$$$$
100330
  Mrv171c012251910542D          

 16 16  0  0  0  0            999 V2000
    3.2970   -1.9917    0.0000 P   0  0  0  0  0  0  0  0  0  0  0  0
    4.0115   -2.4042    0.0000 O   0  0  0  0  0  0  0  0  0  0  0  0
    4.7260   -1.9917    0.0000 C   0  0  0  0  0  0  0  0  0  0  0  0
    3.7095   -1.2772    0.0000 O   0  0  0  0  0  0  0  0  0  0  0  0
    3.2970   -0.5628    0.0000 C   0  0  0  0  0  0  0  0  0  0  0  0
    2.8845   -2.7062    0.0000 S   0  0  0  0  0  0  0  0  0  0  0  0
    2.5826   -1.5792    0.0000 O   0  0  0  0  0  0  0  0  0  0  0  0
    1.8681   -1.9917    0.0000 C   0  0  0  0  0  0  0  0  0  0  0  0
    1.1536   -1.5792    0.0000 C   0  0  0  0  0  0  0  0  0  0  0  0
    1.1536   -0.7542    0.0000 Cl  0  0  0  0  0  0  0  0  0  0  0  0
    0.4392   -1.9917    0.0000 C   0  0  0  0  0  0  0  0  0  0  0  0
    0.4392   -2.8167    0.0000 C   0  0  0  0  0  0  0  0  0  0  0  0
   -0.2753   -3.2292    0.0000 Br  0  0  0  0  0  0  0  0  0  0  0  0
    1.1536   -3.2292    0.0000 C   0  0  0  0  0  0  0  0  0  0  0  0
    1.1536   -4.0542    0.0000 Cl  0  0  0  0  0  0  0  0  0  0  0  0
    1.8681   -2.8167    0.0000 C   0  0  0  0  0  0  0  0  0  0  0  0
  1  2  1  0  0  0  0
  2  3  1  0  0  0  0
  1  4  1  0  0  0  0
  4  5  1  0  0  0  0
  1  6  2  0  0  0  0
  1  7  1  0  0  0  0
  7  8  1  0  0  0  0
  9  8  2  0  0  0  0
  9 10  1  0  0  0  0
 11  9  1  0  0  0  0
 12 11  2  0  0  0  0
 12 13  1  0  0  0  0
 14 12  1  0  0  0  0
 14 15  1  0  0  0  0
 16 14  2  0  0  0  0
  8 16  1  0  0  0  0
M  END
> <ChemID>
100330

> <CAS>
2104-96-3

> <Original_SMILES>
COP(=S)(Oc1cc(Cl)c(Br)cc1Cl)OC

> <preferred_name>
Bromofos

> <dsstox_substance_id>
DTXSID1041683

> <dsstox_compound_id>
DTXCID9021683

> <qc_level>
DSSTox_Low

> <Canonical_QSARr>
COP(=S)(OC1C=C(Cl)C(Br)=CC=1Cl)OC

> <InChI_Code_QSARr>
InChI=1S/C8H8BrCl2O3PS/c1-12-15(16,13-2)14-8-4-6(10)5(9)3-7(8)11/h3-4H,1-2H3

> <InChI Key_QSARr>
NYQDCVLCJXRDSK-UHFFFAOYSA-N

> <Salt_Solvent>


> <Salt_Solvent_ID>
0

> <MPID>
101957

> <LogKmHL>
0.97

> <Tr_1_Tst_0>
1

$$$$
100331
  Mrv171c012251910542D          

 15 16  0  0  0  0            999 V2000
    3.6147   -1.2353    0.0000 C   0  0  0  0  0  0  0  0  0  0  0  0
    2.9003   -0.8228    0.0000 C   0  0  0  0  0  0  0  0  0  0  0  0
    2.1858   -1.2353    0.0000 C   0  0  0  0  0  0  0  0  0  0  0  0
    1.4713   -0.8228    0.0000 O   0  0  0  0  0  0  0  0  0  0  0  0
    0.7569   -1.2353    0.0000 C   0  0  0  0  0  0  0  0  0  0  0  0
    0.0424   -0.8228    0.0000 C   0  0  0  0  0  0  0  0  0  0  0  0
   -0.6721   -1.2353    0.0000 C   0  0  0  0  0  0  0  0  0  0  0  0
    0.0424    0.0022    0.0000 C   0  0  0  0  0  0  0  0  0  0  0  0
    2.1858   -2.0603    0.0000 C   0  0  0  0  0  0  0  0  0  0  0  0
    2.9003   -2.4728    0.0000 C   0  0  0  0  0  0  0  0  0  0  0  0
    3.6147   -2.0603    0.0000 C   0  0  0  0  0  0  0  0  0  0  0  0
    4.3292   -2.4728    0.0000 C   0  0  0  0  0  0  0  0  0  0  0  0
    5.0437   -2.0603    0.0000 C   0  0  0  0  0  0  0  0  0  0  0  0
    5.0437   -1.2353    0.0000 C   0  0  0  0  0  0  0  0  0  0  0  0
    4.3292   -0.8228    0.0000 C   0  0  0  0  0  0  0  0  0  0  0  0
  2  1  1  0  0  0  0
  3  2  2  0  0  0  0
  3  4  1  0  0  0  0
  4  5  1  0  0  0  0
  5  6  1  0  0  0  0
  6  7  1  0  0  0  0
  6  8  1  0  0  0  0
  9  3  1  0  0  0  0
 10  9  2  0  0  0  0
 11 10  1  0  0  0  0
 11  1  1  0  0  0  0
 12 11  2  0  0  0  0
 13 12  1  0  0  0  0
 14 13  2  0  0  0  0
 15 14  1  0  0  0  0
  1 15  2  0  0  0  0
M  END
> <ChemID>
100331

> <CAS>
2173-57-1

> <Original_SMILES>
CC(C)COc1cc2ccccc2cc1

> <preferred_name>
Isobutyl 2-naphthyl ether

> <dsstox_substance_id>
DTXSID1051484

> <dsstox_compound_id>
DTXCID3030422

> <qc_level>
DSSTox_Low

> <Canonical_QSARr>
CC(C)COC1=CC2=CC=CC=C2C=C1

> <InChI_Code_QSARr>
InChI=1S/C14H16O/c1-11(2)10-15-14-8-7-12-5-3-4-6-13(12)9-14/h3-9,11H,10H2,1-2H3

> <InChI Key_QSARr>
XOHIHZHSDMWWMS-UHFFFAOYSA-N

> <Salt_Solvent>


> <Salt_Solvent_ID>
0

> <MPID>
101958

> <LogKmHL>
0.23

> <Tr_1_Tst_0>
1

$$$$
100332
  Mrv171c012251910542D          

 14 14  0  0  0  0            999 V2000
   -0.0000   -0.8250    0.0000 C   0  0  0  0  0  0  0  0  0  0  0  0
   -0.0000    0.0000    0.0000 C   0  0  0  0  0  0  0  0  0  0  0  0
   -0.7145    0.4125    0.0000 C   0  0  0  0  0  0  0  0  0  0  0  0
   -1.4290    0.0000    0.0000 C   0  0  0  0  0  0  0  0  0  0  0  0
   -1.4290   -0.8250    0.0000 C   0  0  0  0  0  0  0  0  0  0  0  0
   -0.7145   -1.2375    0.0000 C   0  0  0  0  0  0  0  0  0  0  0  0
    0.7144   -1.2375    0.0000 C   0  0  0  0  0  0  0  0  0  0  0  0
    1.4289   -0.8250    0.0000 C   0  0  0  0  0  0  0  0  0  0  0  0
    2.1434   -1.2375    0.0000 C   0  0  0  0  0  0  0  0  0  0  0  0
    2.8578   -0.8250    0.0000 C   0  0  0  0  0  0  0  0  0  0  0  0
    3.5723   -1.2375    0.0000 C   0  0  0  0  0  0  0  0  0  0  0  0
    4.2868   -0.8250    0.0000 C   0  0  0  0  0  0  0  0  0  0  0  0
    5.0012   -1.2375    0.0000 C   0  0  0  0  0  0  0  0  0  0  0  0
    5.7157   -0.8250    0.0000 C   0  0  0  0  0  0  0  0  0  0  0  0
  2  1  1  0  0  0  0
  3  2  2  0  0  0  0
  4  3  1  0  0  0  0
  5  4  2  0  0  0  0
  6  5  1  0  0  0  0
  1  6  2  0  0  0  0
  1  7  1  0  0  0  0
  7  8  1  0  0  0  0
  8  9  1  0  0  0  0
  9 10  1  0  0  0  0
 10 11  1  0  0  0  0
 11 12  1  0  0  0  0
 12 13  1  0  0  0  0
 13 14  1  0  0  0  0
M  END
> <ChemID>
100332

> <CAS>
2189-60-8

> <Original_SMILES>
CCCCCCCCc1ccccc1

> <preferred_name>
Benzene, octyl-

> <dsstox_substance_id>
DTXSID2062240

> <dsstox_compound_id>
DTXCID8036570

> <qc_level>
Public_High

> <Canonical_QSARr>
CCCCCCCCC1C=CC=CC=1

> <InChI_Code_QSARr>
InChI=1S/C14H22/c1-2-3-4-5-6-8-11-14-12-9-7-10-13-14/h7,9-10,12-13H,2-6,8,11H2,1H3

> <InChI Key_QSARr>
CDKDZKXSXLNROY-UHFFFAOYSA-N

> <Salt_Solvent>


> <Salt_Solvent_ID>
0

> <MPID>
101959

> <LogKmHL>
0.22

> <Tr_1_Tst_0>
1

$$$$
100333
  Mrv171c012251910542D          

 12 12  0  0  0  0            999 V2000
    1.7400   -1.2985    0.0000 N   0  0  0  0  0  0  0  0  0  0  0  0
    1.7400   -0.4735    0.0000 C   0  0  0  0  0  0  0  0  0  0  0  0
    2.4545   -0.0610    0.0000 S   0  0  0  0  0  0  0  0  0  0  0  0
    2.4545    0.7640    0.0000 C   0  0  0  0  0  0  0  0  0  0  0  0
    3.1689    1.1765    0.0000 C   0  0  0  0  0  0  0  0  0  0  0  0
    1.0255   -0.0610    0.0000 O   0  0  0  0  0  0  0  0  0  0  0  0
    0.9967   -1.6564    0.0000 C   0  0  0  0  0  0  0  0  0  0  0  0
    0.8131   -2.4607    0.0000 C   0  0  0  0  0  0  0  0  0  0  0  0
    1.3275   -3.1057    0.0000 C   0  0  0  0  0  0  0  0  0  0  0  0
    2.1525   -3.1057    0.0000 C   0  0  0  0  0  0  0  0  0  0  0  0
    2.6669   -2.4607    0.0000 C   0  0  0  0  0  0  0  0  0  0  0  0
    2.4833   -1.6564    0.0000 C   0  0  0  0  0  0  0  0  0  0  0  0
  1  2  1  0  0  0  0
  2  3  1  0  0  0  0
  3  4  1  0  0  0  0
  4  5  1  0  0  0  0
  2  6  2  0  0  0  0
  7  1  1  0  0  0  0
  8  7  1  0  0  0  0
  9  8  1  0  0  0  0
 10  9  1  0  0  0  0
 11 10  1  0  0  0  0
 12 11  1  0  0  0  0
  1 12  1  0  0  0  0
M  END
> <ChemID>
100333

> <CAS>
2212-67-1

> <Original_SMILES>
CCSC(=O)N1CCCCCC1

> <preferred_name>
Molinate

> <dsstox_substance_id>
DTXSID6024206

> <dsstox_compound_id>
DTXCID204206

> <qc_level>
DSSTox_Low

> <Canonical_QSARr>
CCSC(=O)N1CCCCCC1

> <InChI_Code_QSARr>
InChI=1S/C9H17NOS/c1-2-12-9(11)10-7-5-3-4-6-8-10/h2-8H2,1H3

> <InChI Key_QSARr>
DEDOPGXGGQYYMW-UHFFFAOYSA-N

> <Salt_Solvent>


> <Salt_Solvent_ID>
0

> <MPID>
101960

> <LogKmHL>
-1.08

> <Tr_1_Tst_0>
0

$$$$
100334
  Mrv171c012251910542D          

 12 13  0  0  0  0            999 V2000
    0.4763   -1.0312    0.0000 C   0  0  0  0  0  0  0  0  0  0  0  0
   -0.2382   -0.6187    0.0000 C   0  0  0  0  0  0  0  0  0  0  0  0
   -0.9526   -1.0312    0.0000 C   0  0  0  0  0  0  0  0  0  0  0  0
   -0.9526   -1.8562    0.0000 C   0  0  0  0  0  0  0  0  0  0  0  0
   -0.2382   -2.2687    0.0000 C   0  0  0  0  0  0  0  0  0  0  0  0
    0.4763   -1.8562    0.0000 C   0  0  0  0  0  0  0  0  0  0  0  0
    1.1908   -2.2687    0.0000 C   0  0  0  0  0  0  0  0  0  0  0  0
    1.9052   -1.8562    0.0000 C   0  0  0  0  0  0  0  0  0  0  0  0
    1.9052   -1.0312    0.0000 C   0  0  0  0  0  0  0  0  0  0  0  0
    1.1908   -0.6187    0.0000 C   0  0  0  0  0  0  0  0  0  0  0  0
    1.1908    0.2063    0.0000 O   0  0  0  0  0  0  0  0  0  0  0  0
    0.4763    0.6188    0.0000 C   0  0  0  0  0  0  0  0  0  0  0  0
  2  1  1  0  0  0  0
  3  2  2  0  0  0  0
  4  3  1  0  0  0  0
  5  4  2  0  0  0  0
  6  5  1  0  0  0  0
  6  1  1  0  0  0  0
  7  6  2  0  0  0  0
  8  7  1  0  0  0  0
  9  8  2  0  0  0  0
 10  9  1  0  0  0  0
  1 10  2  0  0  0  0
 10 11  1  0  0  0  0
 11 12  1  0  0  0  0
M  END
> <ChemID>
100334

> <CAS>
2216-69-5

> <Original_SMILES>
COc1cccc2ccccc21

> <preferred_name>
Naphthalene, 1-methoxy-

> <dsstox_substance_id>
DTXSID5062263

> <dsstox_compound_id>
DTXCID6036625

> <qc_level>
Public_High

> <Canonical_QSARr>
COC1C=CC=C2C=CC=CC2=1

> <InChI_Code_QSARr>
InChI=1S/C11H10O/c1-12-11-8-4-6-9-5-2-3-7-10(9)11/h2-8H,1H3

> <InChI Key_QSARr>
NQMUGNMMFTYOHK-UHFFFAOYSA-N

> <Salt_Solvent>


> <Salt_Solvent_ID>
0

> <MPID>
101961

> <LogKmHL>
0.39

> <Tr_1_Tst_0>
1

$$$$
100336
  Mrv171c012251910542D          

 18 19  0  0  0  0            999 V2000
    2.1490   -1.2439    0.0000 C   0  0  0  0  0  0  0  0  0  0  0  0
    1.4345   -0.8314    0.0000 C   0  0  0  0  0  0  0  0  0  0  0  0
    1.4345   -0.0064    0.0000 Cl  0  0  0  0  0  0  0  0  0  0  0  0
    0.7201   -1.2439    0.0000 C   0  0  0  0  0  0  0  0  0  0  0  0
    0.0056   -0.8314    0.0000 Cl  0  0  0  0  0  0  0  0  0  0  0  0
    0.7201   -2.0689    0.0000 C   0  0  0  0  0  0  0  0  0  0  0  0
    0.0056   -2.4814    0.0000 Cl  0  0  0  0  0  0  0  0  0  0  0  0
    1.4345   -2.4814    0.0000 C   0  0  0  0  0  0  0  0  0  0  0  0
    1.4345   -3.3064    0.0000 Cl  0  0  0  0  0  0  0  0  0  0  0  0
    2.1490   -2.0689    0.0000 C   0  0  0  0  0  0  0  0  0  0  0  0
    2.8635   -2.4814    0.0000 C   0  0  0  0  0  0  0  0  0  0  0  0
    2.8635   -3.3064    0.0000 Cl  0  0  0  0  0  0  0  0  0  0  0  0
    3.5779   -2.0689    0.0000 C   0  0  0  0  0  0  0  0  0  0  0  0
    4.2924   -2.4814    0.0000 Cl  0  0  0  0  0  0  0  0  0  0  0  0
    3.5779   -1.2439    0.0000 C   0  0  0  0  0  0  0  0  0  0  0  0
    4.2924   -0.8314    0.0000 Cl  0  0  0  0  0  0  0  0  0  0  0  0
    2.8635   -0.8314    0.0000 C   0  0  0  0  0  0  0  0  0  0  0  0
    2.8635   -0.0064    0.0000 Cl  0  0  0  0  0  0  0  0  0  0  0  0
  2  1  1  0  0  0  0
  2  3  1  0  0  0  0
  4  2  2  0  0  0  0
  4  5  1  0  0  0  0
  6  4  1  0  0  0  0
  6  7  1  0  0  0  0
  8  6  2  0  0  0  0
  8  9  1  0  0  0  0
 10  8  1  0  0  0  0
 10  1  1  0  0  0  0
 11 10  2  0  0  0  0
 11 12  1  0  0  0  0
 13 11  1  0  0  0  0
 13 14  1  0  0  0  0
 15 13  2  0  0  0  0
 15 16  1  0  0  0  0
 17 15  1  0  0  0  0
  1 17  2  0  0  0  0
 17 18  1  0  0  0  0
M  END
> <ChemID>
100336

> <CAS>
2234-13-1

> <Original_SMILES>
Clc1c2c(c(Cl)c(Cl)c1Cl)c(Cl)c(Cl)c(Cl)c2Cl

> <preferred_name>
Octachloronaphthalene

> <dsstox_substance_id>
DTXSID6025800

> <dsstox_compound_id>
DTXCID105800

> <qc_level>
DSSTox_Low

> <Canonical_QSARr>
ClC1C2C(=C(Cl)C(Cl)=C(Cl)C=2Cl)C(Cl)=C(Cl)C=1Cl

> <InChI_Code_QSARr>
InChI=1S/C10Cl8/c11-3-1-2(5(13)9(17)7(3)15)6(14)10(18)8(16)4(1)12

> <InChI Key_QSARr>
RTNLUFLDZOAXIC-UHFFFAOYSA-N

> <Salt_Solvent>


> <Salt_Solvent_ID>
0

> <MPID>
101962

> <LogKmHL>
1.62

> <Tr_1_Tst_0>
1

$$$$
100337
  Mrv171c012251910542D          

 12 13  0  0  0  0            999 V2000
    1.0713   -3.0929    0.0000 N   0  0  0  0  0  0  0  0  0  0  0  0
    1.0713   -2.2679    0.0000 C   0  0  0  0  0  0  0  0  0  0  0  0
    0.3568   -1.8554    0.0000 C   0  0  0  0  0  0  0  0  0  0  0  0
    0.3568   -1.0304    0.0000 C   0  0  0  0  0  0  0  0  0  0  0  0
    1.0713   -0.6179    0.0000 C   0  0  0  0  0  0  0  0  0  0  0  0
    1.7858   -1.0304    0.0000 C   0  0  0  0  0  0  0  0  0  0  0  0
    2.5003   -0.6179    0.0000 C   0  0  0  0  0  0  0  0  0  0  0  0
    2.5003    0.2071    0.0000 N   0  0  0  0  0  0  0  0  0  0  0  0
    3.2147   -1.0304    0.0000 C   0  0  0  0  0  0  0  0  0  0  0  0
    3.2147   -1.8554    0.0000 C   0  0  0  0  0  0  0  0  0  0  0  0
    2.5003   -2.2679    0.0000 C   0  0  0  0  0  0  0  0  0  0  0  0
    1.7858   -1.8554    0.0000 C   0  0  0  0  0  0  0  0  0  0  0  0
  1  2  1  0  0  0  0
  3  2  1  0  0  0  0
  4  3  2  0  0  0  0
  5  4  1  0  0  0  0
  6  5  2  0  0  0  0
  6  7  1  0  0  0  0
  7  8  1  0  0  0  0
  7  9  2  0  0  0  0
  9 10  1  0  0  0  0
 10 11  2  0  0  0  0
 11 12  1  0  0  0  0
  2 12  2  0  0  0  0
 12  6  1  0  0  0  0
M  END
> <ChemID>
100337

> <CAS>
2243-62-1

> <Original_SMILES>
Nc1cccc2c1cccc2N

> <preferred_name>
1,5-Naphthalenediamine

> <dsstox_substance_id>
DTXSID3020916

> <dsstox_compound_id>
DTXCID90916

> <qc_level>
DSSTox_Low

> <Canonical_QSARr>
NC1C=CC=C2C=1C=CC=C2N

> <InChI_Code_QSARr>
InChI=1S/C10H10N2/c11-9-5-1-3-7-8(9)4-2-6-10(7)12/h1-6H,11-12H2

> <InChI Key_QSARr>
KQSABULTKYLFEV-UHFFFAOYSA-N

> <Salt_Solvent>


> <Salt_Solvent_ID>
0

> <MPID>
101963

> <LogKmHL>
-0.52

> <Tr_1_Tst_0>
1

$$$$
100338
  Mrv171c012251910542D          

 17 17  0  0  0  0            999 V2000
    2.9641   -1.4017    0.0000 P   0  0  0  0  0  0  0  0  0  0  0  0
    2.5516   -0.6872    0.0000 O   0  0  0  0  0  0  0  0  0  0  0  0
    2.2497   -1.8142    0.0000 O   0  0  0  0  0  0  0  0  0  0  0  0
    2.2497   -2.6392    0.0000 C   0  0  0  0  0  0  0  0  0  0  0  0
    3.3766   -2.1162    0.0000 O   0  0  0  0  0  0  0  0  0  0  0  0
    2.9641   -2.8306    0.0000 C   0  0  0  0  0  0  0  0  0  0  0  0
    3.6786   -0.9892    0.0000 O   0  0  0  0  0  0  0  0  0  0  0  0
    3.6786   -0.1642    0.0000 C   0  0  0  0  0  0  0  0  0  0  0  0
    4.3931    0.2483    0.0000 C   0  0  0  0  0  0  0  0  0  0  0  0
    4.3931    1.0733    0.0000 C   0  0  0  0  0  0  0  0  0  0  0  0
    3.6786    1.4858    0.0000 C   0  0  0  0  0  0  0  0  0  0  0  0
    3.6786    2.3108    0.0000 N   0  3  0  0  0  0  0  0  0  0  0  0
    2.9641    2.7233    0.0000 O   0  0  0  0  0  0  0  0  0  0  0  0
    4.3931    2.7233    0.0000 O   0  5  0  0  0  0  0  0  0  0  0  0
    2.9641    1.0733    0.0000 C   0  0  0  0  0  0  0  0  0  0  0  0
    2.2497    1.4858    0.0000 C   0  0  0  0  0  0  0  0  0  0  0  0
    2.9641    0.2483    0.0000 C   0  0  0  0  0  0  0  0  0  0  0  0
  1  2  2  0  0  0  0
  1  3  1  0  0  0  0
  3  4  1  0  0  0  0
  1  5  1  0  0  0  0
  5  6  1  0  0  0  0
  1  7  1  0  0  0  0
  7  8  1  0  0  0  0
  9  8  1  0  0  0  0
 10  9  2  0  0  0  0
 11 10  1  0  0  0  0
 11 12  1  0  0  0  0
 12 13  2  0  0  0  0
 12 14  1  0  0  0  0
 15 11  2  0  0  0  0
 15 16  1  0  0  0  0
 17 15  1  0  0  0  0
  8 17  2  0  0  0  0
M  CHG  2  12   1  14  -1
M  END
> <ChemID>
100338

> <CAS>
2255-17-6

> <Original_SMILES>
Cc1cc(ccc1[N+]([O-])=O)OP(=O)(OC)OC

> <preferred_name>
Fenitrooxone

> <dsstox_substance_id>
DTXSID00177084

> <dsstox_compound_id>
DTXCID5099575

> <qc_level>
Public_Medium

> <Canonical_QSARr>
CC1C=C(C=CC=1[N+]([O-])=O)OP(=O)(OC)OC

> <InChI_Code_QSARr>
InChI=1S/C9H12NO6P/c1-7-6-8(4-5-9(7)10(11)12)16-17(13,14-2)15-3/h4-6H,1-3H3

> <InChI Key_QSARr>
MJNAIAPNXYJWCT-UHFFFAOYSA-N

> <Salt_Solvent>


> <Salt_Solvent_ID>
0

> <MPID>
101964

> <LogKmHL>
0.01

> <Tr_1_Tst_0>
0

$$$$
100339
  Mrv171c012251910542D          

 17 20  0  0  0  0            999 V2000
    4.2930   -2.8011    0.0000 C   0  0  0  0  0  0  0  0  0  0  0  0
    3.8805   -2.0866    0.0000 C   0  0  0  0  0  0  0  0  0  0  0  0
    3.0555   -2.0866    0.0000 C   0  0  0  0  0  0  0  0  0  0  0  0
    2.6430   -1.3721    0.0000 C   0  0  0  0  0  0  0  0  0  0  0  0
    1.8180   -1.3721    0.0000 C   0  0  0  0  0  0  0  0  0  0  0  0
    1.4055   -2.0866    0.0000 C   0  0  0  0  0  0  0  0  0  0  0  0
    1.8180   -2.8011    0.0000 C   0  0  0  0  0  0  0  0  0  0  0  0
    2.6430   -2.8011    0.0000 C   0  0  0  0  0  0  0  0  0  0  0  0
    0.5805   -2.0866    0.0000 C   0  0  0  0  0  0  0  0  0  0  0  0
    0.1680   -1.3721    0.0000 C   0  0  0  0  0  0  0  0  0  0  0  0
    0.5805   -0.6577    0.0000 C   0  0  0  0  0  0  0  0  0  0  0  0
    1.4055   -0.6577    0.0000 C   0  0  0  0  0  0  0  0  0  0  0  0
    1.8180    0.0568    0.0000 C   0  0  0  0  0  0  0  0  0  0  0  0
    2.6430    0.0568    0.0000 C   0  0  0  0  0  0  0  0  0  0  0  0
    3.0555   -0.6577    0.0000 C   0  0  0  0  0  0  0  0  0  0  0  0
    3.8805   -0.6577    0.0000 C   0  0  0  0  0  0  0  0  0  0  0  0
    4.2930   -1.3721    0.0000 C   0  0  0  0  0  0  0  0  0  0  0  0
  1  2  1  0  0  0  0
  3  2  1  0  0  0  0
  3  4  2  0  0  0  0
  4  5  1  0  0  0  0
  6  5  2  0  0  0  0
  6  7  1  0  0  0  0
  7  8  2  0  0  0  0
  8  3  1  0  0  0  0
  9  6  1  0  0  0  0
 10  9  2  0  0  0  0
 11 10  1  0  0  0  0
 12 11  2  0  0  0  0
  5 12  1  0  0  0  0
 12 13  1  0  0  0  0
 13 14  2  0  0  0  0
 14 15  1  0  0  0  0
 15  4  1  0  0  0  0
 16 15  2  0  0  0  0
 17 16  1  0  0  0  0
  2 17  2  0  0  0  0
M  END
> <ChemID>
100339

> <CAS>
2381-21-7

> <Original_SMILES>
Cc1ccc2ccc3cccc4ccc1c2c34

> <preferred_name>
1-Methylpyrene

> <dsstox_substance_id>
DTXSID0025654

> <dsstox_compound_id>
DTXCID805654

> <qc_level>
DSSTox_Low

> <Canonical_QSARr>
CC1=CC=C2C=CC3=CC=CC4C=CC1=C2C=43

> <InChI_Code_QSARr>
InChI=1S/C17H12/c1-11-5-6-14-8-7-12-3-2-4-13-9-10-15(11)17(14)16(12)13/h2-10H,1H3

> <InChI Key_QSARr>
KBSPJIWZDWBDGM-UHFFFAOYSA-N

> <Salt_Solvent>


> <Salt_Solvent_ID>
0

> <MPID>
101965

> <LogKmHL>
0.11

> <Tr_1_Tst_0>
1

$$$$
100340
  Mrv171c012251910542D          

 22 26  0  0  0  0            999 V2000
    2.1662   -0.5944    0.0000 C   0  0  0  0  0  0  0  0  0  0  0  0
    2.4248    0.1890    0.0000 Cl  0  0  0  0  0  0  0  0  0  0  0  0
    2.2004   -1.2333    0.0000 C   0  0  0  0  0  0  0  0  0  0  0  0
    2.2867   -2.3035    0.0000 C   0  0  0  0  0  0  0  0  0  0  0  0
    2.8140   -2.0472    0.0000 C   0  0  0  0  0  0  0  0  0  0  0  0
    1.7458   -2.2129    0.0000 C   0  0  0  0  0  0  0  0  0  0  0  0
    1.1128   -2.7419    0.0000 Cl  0  0  0  0  0  0  0  0  0  0  0  0
    1.9165   -1.6139    0.0000 C   0  0  0  0  0  0  0  0  0  0  0  0
    0.8878   -1.5630    0.0000 C   0  0  0  0  0  0  0  0  0  0  0  0
    1.2172   -0.7010    0.0000 C   0  0  0  0  0  0  0  0  0  0  0  0
    0.7121   -0.0487    0.0000 Cl  0  0  0  0  0  0  0  0  0  0  0  0
    1.4615   -1.2803    0.0000 C   0  0  0  0  0  0  0  0  0  0  0  0
    0.9991   -1.9636    0.0000 Cl  0  0  0  0  0  0  0  0  0  0  0  0
    0.5619   -2.3209    0.0000 Cl  0  0  0  0  0  0  0  0  0  0  0  0
    0.0628   -1.5561    0.0000 Cl  0  0  0  0  0  0  0  0  0  0  0  0
    1.7560   -0.8046    0.0000 Cl  0  0  0  0  0  0  0  0  0  0  0  0
    2.8089   -1.1927    0.0000 C   0  0  0  0  0  0  0  0  0  0  0  0
    3.6241   -1.3196    0.0000 Cl  0  0  0  0  0  0  0  0  0  0  0  0
    3.5146   -2.4828    0.0000 Cl  0  0  0  0  0  0  0  0  0  0  0  0
    1.5470   -2.6688    0.0000 Cl  0  0  0  0  0  0  0  0  0  0  0  0
    2.3479   -3.1262    0.0000 Cl  0  0  0  0  0  0  0  0  0  0  0  0
    3.0003   -1.4351    0.0000 Cl  0  0  0  0  0  0  0  0  0  0  0  0
  1  2  1  0  0  0  0
  3  1  1  0  0  0  0
  3  4  1  0  0  0  0
  4  5  1  0  0  0  0
  5  6  1  0  0  0  0
  6  7  1  0  0  0  0
  8  6  1  0  0  0  0
  9  8  1  0  0  0  0
 10  9  1  0  0  0  0
 10  1  1  0  0  0  0
 10 11  1  0  0  0  0
 12 10  1  0  0  0  0
 12  3  1  0  0  0  0
  6 12  1  0  0  0  0
 12 13  1  0  0  0  0
  9 14  1  0  0  0  0
  9 15  1  0  0  0  0
  8 16  1  0  0  0  0
  8 17  1  0  0  0  0
  1 17  1  0  0  0  0
 17  5  1  0  0  0  0
 17 18  1  0  0  0  0
  5 19  1  0  0  0  0
  4 20  1  0  0  0  0
  4 21  1  0  0  0  0
  3 22  1  0  0  0  0
M  END
> <ChemID>
100340

> <CAS>
2385-85-5

> <Original_SMILES>
ClC1(Cl)C2(Cl)C3(Cl)C4(Cl)C2(Cl)C2(Cl)C(Cl)(C3(Cl)C12Cl)C4(Cl)Cl

> <preferred_name>
Mirex

> <dsstox_substance_id>
DTXSID7020895

> <dsstox_compound_id>
DTXCID10895

> <qc_level>
DSSTox_Low

> <Canonical_QSARr>
ClC1(Cl)C2(Cl)C3(Cl)C4(Cl)C2(Cl)C2(Cl)C(Cl)(C3(Cl)C12Cl)C4(Cl)Cl

> <InChI_Code_QSARr>
InChI=1S/C10Cl12/c11-1-2(12)7(17)4(14)3(13,5(1,15)9(7,19)20)6(1,16)10(21,22)8(2,4)18

> <InChI Key_QSARr>
GVYLCNUFSHDAAW-UHFFFAOYSA-N

> <Salt_Solvent>


> <Salt_Solvent_ID>
0

> <MPID>
101966

> <LogKmHL>
1.8

> <Tr_1_Tst_0>
1

$$$$
100341
  Mrv171c012251910542D          

 13 12  0  0  0  0            999 V2000
    0.0401    0.0067    0.0000 C   0  0  0  0  0  0  0  0  0  0  0  0
    0.7545   -0.4058    0.0000 C   0  0  0  0  0  0  0  0  0  0  0  0
    1.4690    0.0067    0.0000 C   0  0  0  0  0  0  0  0  0  0  0  0
    2.1835   -0.4058    0.0000 C   0  0  0  0  0  0  0  0  0  0  0  0
    2.8979    0.0067    0.0000 C   0  0  0  0  0  0  0  0  0  0  0  0
    3.6124   -0.4058    0.0000 C   0  0  0  0  0  0  0  0  0  0  0  0
    4.3269    0.0067    0.0000 C   0  0  0  0  0  0  0  0  0  0  0  0
    5.0414   -0.4058    0.0000 C   0  0  0  0  0  0  0  0  0  0  0  0
    5.7558    0.0067    0.0000 C   0  0  0  0  0  0  0  0  0  0  0  0
    6.4703   -0.4058    0.0000 C   0  0  0  0  0  0  0  0  0  0  0  0
    7.1848    0.0067    0.0000 C   0  0  0  0  0  0  0  0  0  0  0  0
    7.8992   -0.4058    0.0000 C   0  0  0  0  0  0  0  0  0  0  0  0
    8.6137    0.0067    0.0000 C   0  0  0  0  0  0  0  0  0  0  0  0
  1  2  2  0  0  0  0
  2  3  1  0  0  0  0
  3  4  1  0  0  0  0
  4  5  1  0  0  0  0
  5  6  1  0  0  0  0
  6  7  1  0  0  0  0
  7  8  1  0  0  0  0
  8  9  1  0  0  0  0
  9 10  1  0  0  0  0
 10 11  1  0  0  0  0
 11 12  1  0  0  0  0
 12 13  1  0  0  0  0
M  END
> <ChemID>
100341

> <CAS>
2437-56-1

> <Original_SMILES>
CCCCCCCCCCCC=C

> <preferred_name>
1-Tridecene

> <dsstox_substance_id>
DTXSID3029235

> <dsstox_compound_id>
DTXCID209235

> <qc_level>
DSSTox_Low

> <Canonical_QSARr>
CCCCCCCCCCCC=C

> <InChI_Code_QSARr>
InChI=1S/C13H26/c1-3-5-7-9-11-13-12-10-8-6-4-2/h3H,1,4-13H2,2H3

> <InChI Key_QSARr>
VQOXUMQBYILCKR-UHFFFAOYSA-N

> <Salt_Solvent>


> <Salt_Solvent_ID>
0

> <MPID>
101967

> <LogKmHL>
0.73

> <Tr_1_Tst_0>
1

$$$$
100342
  Mrv171c012251910542D          

 11 11  0  0  0  0            999 V2000
    2.9873   -1.5008    0.0000 O   0  0  0  0  0  0  0  0  0  0  0  0
    2.2728   -1.0883    0.0000 C   0  0  0  0  0  0  0  0  0  0  0  0
    2.2728   -0.2633    0.0000 C   0  0  0  0  0  0  0  0  0  0  0  0
    1.5583    0.1492    0.0000 C   0  0  0  0  0  0  0  0  0  0  0  0
    1.5583    0.9742    0.0000 Cl  0  0  0  0  0  0  0  0  0  0  0  0
    0.8439   -0.2633    0.0000 C   0  0  0  0  0  0  0  0  0  0  0  0
    0.1294    0.1492    0.0000 Cl  0  0  0  0  0  0  0  0  0  0  0  0
    0.8439   -1.0883    0.0000 C   0  0  0  0  0  0  0  0  0  0  0  0
    1.5583   -1.5008    0.0000 C   0  0  0  0  0  0  0  0  0  0  0  0
    1.5583   -2.3258    0.0000 O   0  0  0  0  0  0  0  0  0  0  0  0
    2.2728   -2.7383    0.0000 C   0  0  0  0  0  0  0  0  0  0  0  0
  1  2  1  0  0  0  0
  3  2  1  0  0  0  0
  4  3  2  0  0  0  0
  4  5  1  0  0  0  0
  6  4  1  0  0  0  0
  6  7  1  0  0  0  0
  8  6  2  0  0  0  0
  9  8  1  0  0  0  0
  2  9  2  0  0  0  0
  9 10  1  0  0  0  0
 10 11  1  0  0  0  0
M  END
> <ChemID>
100342

> <CAS>
2460-49-3

> <Original_SMILES>
COc1cc(Cl)c(Cl)cc1O

> <preferred_name>
4,5-Dichloroguaiacol

> <dsstox_substance_id>
DTXSID5022192

> <dsstox_compound_id>
DTXCID902192

> <qc_level>
DSSTox_Low

> <Canonical_QSARr>
COC1C=C(Cl)C(Cl)=CC=1O

> <InChI_Code_QSARr>
InChI=1S/C7H6Cl2O2/c1-11-7-3-5(9)4(8)2-6(7)10/h2-3,10H,1H3

> <InChI Key_QSARr>
HAAFFTHBNFBVKY-UHFFFAOYSA-N

> <Salt_Solvent>


> <Salt_Solvent_ID>
0

> <MPID>
101968

> <LogKmHL>
-0.15

> <Tr_1_Tst_0>
0

$$$$
100343
  Mrv171c012251910542D          

 17 17  0  0  0  0            999 V2000
    2.2775   -3.4397    0.0000 N   0  3  0  0  0  0  0  0  0  0  0  0
    1.5630   -3.8522    0.0000 O   0  0  0  0  0  0  0  0  0  0  0  0
    2.9919   -3.8522    0.0000 O   0  5  0  0  0  0  0  0  0  0  0  0
    2.2775   -2.6147    0.0000 C   0  0  0  0  0  0  0  0  0  0  0  0
    2.9919   -2.2022    0.0000 C   0  0  0  0  0  0  0  0  0  0  0  0
    2.9919   -1.3772    0.0000 C   0  0  0  0  0  0  0  0  0  0  0  0
    2.2775   -0.9647    0.0000 C   0  0  0  0  0  0  0  0  0  0  0  0
    2.2775   -0.1397    0.0000 O   0  0  0  0  0  0  0  0  0  0  0  0
    2.9919    0.2728    0.0000 P   0  0  0  0  0  0  0  0  0  0  0  0
    3.7064    0.6853    0.0000 O   0  0  0  0  0  0  0  0  0  0  0  0
    3.7064    1.5103    0.0000 C   0  0  0  0  0  0  0  0  0  0  0  0
    3.4044   -0.4417    0.0000 O   0  0  0  0  0  0  0  0  0  0  0  0
    4.2294   -0.4417    0.0000 C   0  0  0  0  0  0  0  0  0  0  0  0
    2.5794    0.9872    0.0000 S   0  0  0  0  0  0  0  0  0  0  0  0
    1.5630   -1.3772    0.0000 C   0  0  0  0  0  0  0  0  0  0  0  0
    0.8485   -0.9647    0.0000 Cl  0  0  0  0  0  0  0  0  0  0  0  0
    1.5630   -2.2022    0.0000 C   0  0  0  0  0  0  0  0  0  0  0  0
  1  2  2  0  0  0  0
  1  3  1  0  0  0  0
  1  4  1  0  0  0  0
  5  4  2  0  0  0  0
  6  5  1  0  0  0  0
  7  6  2  0  0  0  0
  7  8  1  0  0  0  0
  8  9  1  0  0  0  0
  9 10  1  0  0  0  0
 10 11  1  0  0  0  0
  9 12  1  0  0  0  0
 12 13  1  0  0  0  0
  9 14  2  0  0  0  0
 15  7  1  0  0  0  0
 15 16  1  0  0  0  0
 17 15  2  0  0  0  0
  4 17  1  0  0  0  0
M  CHG  2   1   1   3  -1
M  END
> <ChemID>
100343

> <CAS>
2463-84-5

> <Original_SMILES>
COP(=S)(Oc1ccc(cc1Cl)[N+]([O-])=O)OC

> <preferred_name>
Dicapthon

> <dsstox_substance_id>
DTXSID0041850

> <dsstox_compound_id>
DTXCID8021850

> <qc_level>
DSSTox_Low

> <Canonical_QSARr>
COP(=S)(OC1=CC=C(C=C1Cl)[N+]([O-])=O)OC

> <InChI_Code_QSARr>
InChI=1S/C8H9ClNO5PS/c1-13-16(17,14-2)15-8-4-3-6(10(11)12)5-7(8)9/h3-5H,1-2H3

> <InChI Key_QSARr>
OTKXWJHPGBRXCR-UHFFFAOYSA-N

> <Salt_Solvent>


> <Salt_Solvent_ID>
0

> <MPID>
101969

> <LogKmHL>
0.01

> <Tr_1_Tst_0>
1

$$$$
100344
  Mrv171c012251910542D          

 16 15  0  0  0  0            999 V2000
    1.1555   -3.6693    0.0000 P   0  0  0  0  0  0  0  0  0  0  0  0
    1.1555   -4.4943    0.0000 O   0  0  0  0  0  0  0  0  0  0  0  0
    0.4410   -4.9068    0.0000 C   0  0  0  0  0  0  0  0  0  0  0  0
    0.4410   -5.7318    0.0000 C   0  0  0  0  0  0  0  0  0  0  0  0
    1.9805   -3.6693    0.0000 O   0  0  0  0  0  0  0  0  0  0  0  0
    2.3930   -2.9548    0.0000 C   0  0  0  0  0  0  0  0  0  0  0  0
    3.2180   -2.9548    0.0000 C   0  0  0  0  0  0  0  0  0  0  0  0
    1.1555   -2.8443    0.0000 S   0  0  0  0  0  0  0  0  0  0  0  0
    1.8699   -2.4318    0.0000 C   0  0  0  0  0  0  0  0  0  0  0  0
    1.8699   -1.6068    0.0000 C   0  0  0  0  0  0  0  0  0  0  0  0
    2.5844   -1.1943    0.0000 S   0  0  0  0  0  0  0  0  0  0  0  0
    2.9969   -1.9088    0.0000 O   0  0  0  0  0  0  0  0  0  0  0  0
    2.1719   -0.4798    0.0000 O   0  0  0  0  0  0  0  0  0  0  0  0
    3.2989   -0.7818    0.0000 C   0  0  0  0  0  0  0  0  0  0  0  0
    3.2989    0.0432    0.0000 C   0  0  0  0  0  0  0  0  0  0  0  0
    0.3305   -3.6693    0.0000 S   0  0  0  0  0  0  0  0  0  0  0  0
  1  2  1  0  0  0  0
  2  3  1  0  0  0  0
  3  4  1  0  0  0  0
  1  5  1  0  0  0  0
  5  6  1  0  0  0  0
  6  7  1  0  0  0  0
  1  8  1  0  0  0  0
  8  9  1  0  0  0  0
  9 10  1  0  0  0  0
 10 11  1  0  0  0  0
 11 12  2  0  0  0  0
 11 13  2  0  0  0  0
 11 14  1  0  0  0  0
 14 15  1  0  0  0  0
  1 16  2  0  0  0  0
M  END
> <ChemID>
100344

> <CAS>
2497-06-5

> <Original_SMILES>
CCS(=O)(=O)CCSP(=S)(OCC)OCC

> <preferred_name>
Disulfoton sulfone

> <dsstox_substance_id>
DTXSID8041901

> <dsstox_compound_id>
DTXCID6021901

> <qc_level>
DSSTox_High

> <Canonical_QSARr>
CCS(=O)(=O)CCSP(=S)(OCC)OCC

> <InChI_Code_QSARr>
InChI=1S/C8H19O4PS3/c1-4-11-13(14,12-5-2)15-7-8-16(9,10)6-3/h4-8H2,1-3H3

> <InChI Key_QSARr>
BKVJOVPVLOJPKJ-UHFFFAOYSA-N

> <Salt_Solvent>


> <Salt_Solvent_ID>
0

> <MPID>
101970

> <LogKmHL>
-0.67

> <Tr_1_Tst_0>
1

$$$$
100345
  Mrv171c012251910542D          

 20 23  0  0  0  0            999 V2000
    3.0701   -3.3785    0.0000 C   0  0  0  0  0  0  0  0  0  0  0  0
    3.8802   -3.5344    0.0000 C   0  0  0  0  0  0  0  0  0  0  0  0
    4.1503   -4.3140    0.0000 O   0  0  0  0  0  0  0  0  0  0  0  0
    4.4203   -2.9108    0.0000 C   0  0  0  0  0  0  0  0  0  0  0  0
    5.2305   -3.0667    0.0000 C   0  0  0  0  0  0  0  0  0  0  0  0
    5.5005   -3.8463    0.0000 C   0  0  0  0  0  0  0  0  0  0  0  0
    6.3106   -4.0022    0.0000 C   0  0  0  0  0  0  0  0  0  0  0  0
    6.8507   -3.3785    0.0000 C   0  0  0  0  0  0  0  0  0  0  0  0
    6.5807   -2.5990    0.0000 C   0  0  0  0  0  0  0  0  0  0  0  0
    5.7705   -2.4431    0.0000 C   0  0  0  0  0  0  0  0  0  0  0  0
    5.5005   -1.6635    0.0000 C   0  0  0  0  0  0  0  0  0  0  0  0
    4.6904   -1.5076    0.0000 C   0  0  0  0  0  0  0  0  0  0  0  0
    4.1503   -2.1312    0.0000 C   0  0  0  0  0  0  0  0  0  0  0  0
    3.3401   -1.9753    0.0000 C   0  0  0  0  0  0  0  0  0  0  0  0
    3.0701   -1.1958    0.0000 O   0  0  0  0  0  0  0  0  0  0  0  0
    2.8001   -2.5990    0.0000 C   0  0  0  0  0  0  0  0  0  0  0  0
    1.9899   -2.4431    0.0000 C   0  0  0  0  0  0  0  0  0  0  0  0
    1.4498   -3.0667    0.0000 C   0  0  0  0  0  0  0  0  0  0  0  0
    1.7199   -3.8463    0.0000 C   0  0  0  0  0  0  0  0  0  0  0  0
    2.5300   -4.0022    0.0000 C   0  0  0  0  0  0  0  0  0  0  0  0
  2  1  1  0  0  0  0
  2  3  2  0  0  0  0
  4  2  1  0  0  0  0
  4  5  1  0  0  0  0
  6  5  1  0  0  0  0
  7  6  2  0  0  0  0
  8  7  1  0  0  0  0
  9  8  2  0  0  0  0
 10  9  1  0  0  0  0
  5 10  2  0  0  0  0
 10 11  1  0  0  0  0
 11 12  2  0  0  0  0
 12 13  1  0  0  0  0
 13  4  2  0  0  0  0
 14 13  1  0  0  0  0
 14 15  2  0  0  0  0
 16 14  1  0  0  0  0
 16  1  1  0  0  0  0
 17 16  2  0  0  0  0
 18 17  1  0  0  0  0
 19 18  2  0  0  0  0
 20 19  1  0  0  0  0
  1 20  2  0  0  0  0
M  END
> <ChemID>
100345

> <CAS>
2498-66-0

> <Original_SMILES>
O=C1c2ccc3ccccc3c2C(=O)c2ccccc12

> <preferred_name>
7,12-Benz(a)anthraquinone

> <dsstox_substance_id>
DTXSID8051916

> <dsstox_compound_id>
DTXCID3030478

> <qc_level>
DSSTox_Low

> <Canonical_QSARr>
O=C1C2C3C=CC=CC=3C=CC=2C(=O)C2=CC=CC=C12

> <InChI_Code_QSARr>
InChI=1S/C18H10O2/c19-17-13-7-3-4-8-14(13)18(20)16-12-6-2-1-5-11(12)9-10-15(16)17/h1-10H

> <InChI Key_QSARr>
LHMRXAIRPKSGDE-UHFFFAOYSA-N

> <Salt_Solvent>


> <Salt_Solvent_ID>
0

> <MPID>
101971

> <LogKmHL>
-0.84

> <Tr_1_Tst_0>
1

$$$$
100346
  Mrv171c012251910542D          

 19 22  0  0  0  0            999 V2000
    2.7011    0.1904    0.0000 C   0  0  0  0  0  0  0  0  0  0  0  0
    3.2412    0.8140    0.0000 C   0  0  0  0  0  0  0  0  0  0  0  0
    4.0514    0.6581    0.0000 C   0  0  0  0  0  0  0  0  0  0  0  0
    4.5915    1.2817    0.0000 C   0  0  0  0  0  0  0  0  0  0  0  0
    5.4016    1.1258    0.0000 C   0  0  0  0  0  0  0  0  0  0  0  0
    5.6716    0.3463    0.0000 C   0  0  0  0  0  0  0  0  0  0  0  0
    5.1315   -0.2774    0.0000 C   0  0  0  0  0  0  0  0  0  0  0  0
    4.3214   -0.1215    0.0000 C   0  0  0  0  0  0  0  0  0  0  0  0
    3.7813   -0.7451    0.0000 C   0  0  0  0  0  0  0  0  0  0  0  0
    4.0514   -1.5247    0.0000 C   0  0  0  0  0  0  0  0  0  0  0  0
    2.9712   -0.5892    0.0000 C   0  0  0  0  0  0  0  0  0  0  0  0
    2.4311   -1.2128    0.0000 C   0  0  0  0  0  0  0  0  0  0  0  0
    1.6210   -1.0569    0.0000 C   0  0  0  0  0  0  0  0  0  0  0  0
    1.3509   -0.2774    0.0000 C   0  0  0  0  0  0  0  0  0  0  0  0
    0.5408   -0.1215    0.0000 C   0  0  0  0  0  0  0  0  0  0  0  0
    0.2707    0.6581    0.0000 C   0  0  0  0  0  0  0  0  0  0  0  0
    0.8108    1.2817    0.0000 C   0  0  0  0  0  0  0  0  0  0  0  0
    1.6210    1.1258    0.0000 C   0  0  0  0  0  0  0  0  0  0  0  0
    1.8910    0.3463    0.0000 C   0  0  0  0  0  0  0  0  0  0  0  0
  2  1  2  0  0  0  0
  3  2  1  0  0  0  0
  3  4  2  0  0  0  0
  4  5  1  0  0  0  0
  5  6  2  0  0  0  0
  6  7  1  0  0  0  0
  7  8  2  0  0  0  0
  8  3  1  0  0  0  0
  9  8  1  0  0  0  0
  9 10  1  0  0  0  0
 11  9  2  0  0  0  0
 11  1  1  0  0  0  0
 12 11  1  0  0  0  0
 13 12  2  0  0  0  0
 14 13  1  0  0  0  0
 14 15  2  0  0  0  0
 15 16  1  0  0  0  0
 16 17  2  0  0  0  0
 17 18  1  0  0  0  0
 18 19  2  0  0  0  0
  1 19  1  0  0  0  0
 19 14  1  0  0  0  0
M  END
> <ChemID>
100346

> <CAS>
2541-69-7

> <Original_SMILES>
Cc1c2ccccc2cc2c1ccc1ccccc12

> <preferred_name>
7-Methylbenz(a)anthracene

> <dsstox_substance_id>
DTXSID40180072

> <dsstox_compound_id>
DTXCID50102563

> <qc_level>
Public_Medium

> <Canonical_QSARr>
CC1C2=CC=CC=C2C=C2C3=CC=CC=C3C=CC2=1

> <InChI_Code_QSARr>
InChI=1S/C19H14/c1-13-16-8-4-3-7-15(16)12-19-17(13)11-10-14-6-2-5-9-18(14)19/h2-12H,1H3

> <InChI Key_QSARr>
DIIFUCUPDHMNIV-UHFFFAOYSA-N

> <Salt_Solvent>


> <Salt_Solvent_ID>
0

> <MPID>
101972

> <LogKmHL>
-0.05

> <Tr_1_Tst_0>
0

$$$$
100347
  Mrv171c012251910542D          

 19 19  0  0  0  0            999 V2000
    2.8679   -2.0669    0.0000 C   0  0  0  0  0  0  0  0  0  0  0  0
    2.8679   -1.2419    0.0000 C   0  0  0  0  0  0  0  0  0  0  0  0
    3.5824   -0.8294    0.0000 S   0  0  0  0  0  0  0  0  0  0  0  0
    4.2969   -1.2419    0.0000 P   0  0  0  0  0  0  0  0  0  0  0  0
    3.8844   -1.9564    0.0000 S   0  0  0  0  0  0  0  0  0  0  0  0
    5.0113   -1.6544    0.0000 O   0  0  0  0  0  0  0  0  0  0  0  0
    5.7258   -1.2419    0.0000 C   0  0  0  0  0  0  0  0  0  0  0  0
    4.7094   -0.5274    0.0000 O   0  0  0  0  0  0  0  0  0  0  0  0
    5.5344   -0.5274    0.0000 C   0  0  0  0  0  0  0  0  0  0  0  0
    2.1534   -0.8294    0.0000 C   0  0  0  0  0  0  0  0  0  0  0  0
    1.4390   -1.2419    0.0000 O   0  0  0  0  0  0  0  0  0  0  0  0
    0.7245   -0.8294    0.0000 C   0  0  0  0  0  0  0  0  0  0  0  0
    0.0100   -1.2419    0.0000 C   0  0  0  0  0  0  0  0  0  0  0  0
    2.1534   -0.0044    0.0000 O   0  0  0  0  0  0  0  0  0  0  0  0
    2.1534   -2.4794    0.0000 C   0  0  0  0  0  0  0  0  0  0  0  0
    2.1534   -3.3044    0.0000 C   0  0  0  0  0  0  0  0  0  0  0  0
    2.8679   -3.7169    0.0000 C   0  0  0  0  0  0  0  0  0  0  0  0
    3.5824   -3.3044    0.0000 C   0  0  0  0  0  0  0  0  0  0  0  0
    3.5824   -2.4794    0.0000 C   0  0  0  0  0  0  0  0  0  0  0  0
  1  2  1  0  0  0  0
  2  3  1  0  0  0  0
  3  4  1  0  0  0  0
  4  5  2  0  0  0  0
  4  6  1  0  0  0  0
  6  7  1  0  0  0  0
  4  8  1  0  0  0  0
  8  9  1  0  0  0  0
  2 10  1  0  0  0  0
 10 11  1  0  0  0  0
 11 12  1  0  0  0  0
 12 13  1  0  0  0  0
 10 14  2  0  0  0  0
 15  1  2  0  0  0  0
 16 15  1  0  0  0  0
 17 16  2  0  0  0  0
 18 17  1  0  0  0  0
 19 18  2  0  0  0  0
  1 19  1  0  0  0  0
M  END
> <ChemID>
100347

> <CAS>
2597-03-7

> <Original_SMILES>
CCOC(=O)C(SP(=S)(OC)OC)c1ccccc1

> <preferred_name>
Phenthoate

> <dsstox_substance_id>
DTXSID6042280

> <dsstox_compound_id>
DTXCID4022280

> <qc_level>
DSSTox_Low

> <Canonical_QSARr>
CCOC(=O)C(SP(=S)(OC)OC)C1C=CC=CC=1

> <InChI_Code_QSARr>
InChI=1S/C12H17O4PS2/c1-4-16-12(13)11(10-8-6-5-7-9-10)19-17(18,14-2)15-3/h5-9,11H,4H2,1-3H3

> <InChI Key_QSARr>
XAMUDJHXFNRLCY-UHFFFAOYSA-N

> <Salt_Solvent>


> <Salt_Solvent_ID>
0

> <MPID>
101973

> <LogKmHL>
-0.75

> <Tr_1_Tst_0>
1

$$$$
100348
  Mrv171c012251910542D          

 14 14  0  0  0  0            999 V2000
    0.2756   -2.2800    0.0000 C   0  0  0  0  0  0  0  0  0  0  0  0
   -0.4388   -1.8675    0.0000 N   0  0  0  0  0  0  0  0  0  0  0  0
   -0.4388   -1.0425    0.0000 C   0  0  0  0  0  0  0  0  0  0  0  0
    0.9901   -1.8675    0.0000 O   0  0  0  0  0  0  0  0  0  0  0  0
    1.7046   -2.2800    0.0000 C   0  0  0  0  0  0  0  0  0  0  0  0
    1.7046   -3.1050    0.0000 C   0  0  0  0  0  0  0  0  0  0  0  0
    2.4190   -3.5175    0.0000 C   0  0  0  0  0  0  0  0  0  0  0  0
    3.1335   -3.1050    0.0000 C   0  0  0  0  0  0  0  0  0  0  0  0
    3.1335   -2.2800    0.0000 C   0  0  0  0  0  0  0  0  0  0  0  0
    2.4190   -1.8675    0.0000 C   0  0  0  0  0  0  0  0  0  0  0  0
    2.4190   -1.0425    0.0000 C   0  0  0  0  0  0  0  0  0  0  0  0
    1.7046   -0.6300    0.0000 C   0  0  0  0  0  0  0  0  0  0  0  0
    3.1335   -0.6300    0.0000 C   0  0  0  0  0  0  0  0  0  0  0  0
    0.2756   -3.1050    0.0000 O   0  0  0  0  0  0  0  0  0  0  0  0
  1  2  1  0  0  0  0
  2  3  1  0  0  0  0
  1  4  1  0  0  0  0
  4  5  1  0  0  0  0
  6  5  1  0  0  0  0
  7  6  2  0  0  0  0
  8  7  1  0  0  0  0
  9  8  2  0  0  0  0
 10  9  1  0  0  0  0
  5 10  2  0  0  0  0
 10 11  1  0  0  0  0
 11 12  1  0  0  0  0
 11 13  1  0  0  0  0
  1 14  2  0  0  0  0
M  END
> <ChemID>
100348

> <CAS>
2631-40-5

> <Original_SMILES>
CNC(=O)Oc1ccccc1C(C)C

> <preferred_name>
Isoprocarb

> <dsstox_substance_id>
DTXSID6042072

> <dsstox_compound_id>
DTXCID4022072

> <qc_level>
DSSTox_Low

> <Canonical_QSARr>
CNC(=O)OC1C=CC=CC=1C(C)C

> <InChI_Code_QSARr>
InChI=1S/C11H15NO2/c1-8(2)9-6-4-5-7-10(9)14-11(13)12-3/h4-8H,1-3H3,(H,12,13)

> <InChI Key_QSARr>
QBSJMKIUCUGGNG-UHFFFAOYSA-N

> <Salt_Solvent>


> <Salt_Solvent_ID>
0

> <MPID>
101974

> <LogKmHL>
-1.25

> <Tr_1_Tst_0>
1

$$$$
100349
  Mrv171c012251910542D          

 15 15  0  0  0  0            999 V2000
    2.0776   -2.3588    0.0000 P   0  0  0  0  0  0  0  0  0  0  0  0
    1.3631   -2.7713    0.0000 O   0  0  0  0  0  0  0  0  0  0  0  0
    1.3631   -3.5963    0.0000 C   0  0  0  0  0  0  0  0  0  0  0  0
    2.4901   -3.0733    0.0000 O   0  0  0  0  0  0  0  0  0  0  0  0
    3.3151   -3.0733    0.0000 C   0  0  0  0  0  0  0  0  0  0  0  0
    2.7920   -1.9463    0.0000 O   0  0  0  0  0  0  0  0  0  0  0  0
    2.7920   -1.1213    0.0000 C   0  0  0  0  0  0  0  0  0  0  0  0
    3.5065   -0.7088    0.0000 C   0  0  0  0  0  0  0  0  0  0  0  0
    3.5065    0.1162    0.0000 C   0  0  0  0  0  0  0  0  0  0  0  0
    2.7920    0.5287    0.0000 C   0  0  0  0  0  0  0  0  0  0  0  0
    2.7920    1.3537    0.0000 C   0  0  0  0  0  0  0  0  0  0  0  0
    2.7920    2.1787    0.0000 N   0  0  0  0  0  0  0  0  0  0  0  0
    2.0776    0.1162    0.0000 C   0  0  0  0  0  0  0  0  0  0  0  0
    2.0776   -0.7088    0.0000 C   0  0  0  0  0  0  0  0  0  0  0  0
    1.6651   -1.6444    0.0000 S   0  0  0  0  0  0  0  0  0  0  0  0
  1  2  1  0  0  0  0
  2  3  1  0  0  0  0
  1  4  1  0  0  0  0
  4  5  1  0  0  0  0
  1  6  1  0  0  0  0
  6  7  1  0  0  0  0
  8  7  2  0  0  0  0
  9  8  1  0  0  0  0
 10  9  2  0  0  0  0
 10 11  1  0  0  0  0
 11 12  3  0  0  0  0
 13 10  1  0  0  0  0
 14 13  2  0  0  0  0
  7 14  1  0  0  0  0
  1 15  2  0  0  0  0
M  END
> <ChemID>
100349

> <CAS>
2636-26-2

> <Original_SMILES>
COP(=S)(Oc1ccc(cc1)C#N)OC

> <preferred_name>
Cyanophos

> <dsstox_substance_id>
DTXSID0041806

> <dsstox_compound_id>
DTXCID8021806

> <qc_level>
DSSTox_Low

> <Canonical_QSARr>
COP(=S)(OC1C=CC(=CC=1)C#N)OC

> <InChI_Code_QSARr>
InChI=1S/C9H10NO3PS/c1-11-14(15,12-2)13-9-5-3-8(7-10)4-6-9/h3-6H,1-2H3

> <InChI Key_QSARr>
SCKHCCSZFPSHGR-UHFFFAOYSA-N

> <Salt_Solvent>


> <Salt_Solvent_ID>
0

> <MPID>
101975

> <LogKmHL>
0.23

> <Tr_1_Tst_0>
1

$$$$
100350
  Mrv171c012251910542D          

 21 22  0  0  0  0            999 V2000
    1.1908    2.3375    0.0000 C   0  0  0  0  0  0  0  0  0  0  0  0
    1.1908    3.1625    0.0000 C   0  0  0  0  0  0  0  0  0  0  0  0
    0.4763    3.5750    0.0000 C   0  0  0  0  0  0  0  0  0  0  0  0
    0.4763    4.4000    0.0000 C   0  0  0  0  0  0  0  0  0  0  0  0
    0.4763    5.2250    0.0000 C   0  0  0  0  0  0  0  0  0  0  0  0
   -0.3487    4.4000    0.0000 C   0  0  0  0  0  0  0  0  0  0  0  0
    1.3013    4.4000    0.0000 C   0  0  0  0  0  0  0  0  0  0  0  0
   -0.2382    3.1625    0.0000 C   0  0  0  0  0  0  0  0  0  0  0  0
   -0.9526    3.5750    0.0000 O   0  0  0  0  0  0  0  0  0  0  0  0
   -0.2382    2.3375    0.0000 C   0  0  0  0  0  0  0  0  0  0  0  0
   -0.9526    1.9250    0.0000 C   0  0  0  0  0  0  0  0  0  0  0  0
   -1.6671    1.5125    0.0000 C   0  0  0  0  0  0  0  0  0  0  0  0
   -0.5401    1.2105    0.0000 C   0  0  0  0  0  0  0  0  0  0  0  0
   -1.3651    2.6395    0.0000 C   0  0  0  0  0  0  0  0  0  0  0  0
    0.4763    1.9250    0.0000 C   0  0  0  0  0  0  0  0  0  0  0  0
    1.9053    1.9250    0.0000 C   0  0  0  0  0  0  0  0  0  0  0  0
    1.9053    1.1000    0.0000 C   0  0  0  0  0  0  0  0  0  0  0  0
    2.6197    0.6875    0.0000 C   0  0  0  0  0  0  0  0  0  0  0  0
    3.3342    1.1000    0.0000 C   0  0  0  0  0  0  0  0  0  0  0  0
    3.3342    1.9250    0.0000 C   0  0  0  0  0  0  0  0  0  0  0  0
    2.6197    2.3375    0.0000 C   0  0  0  0  0  0  0  0  0  0  0  0
  2  1  1  0  0  0  0
  3  2  2  0  0  0  0
  3  4  1  0  0  0  0
  4  5  1  0  0  0  0
  4  6  1  0  0  0  0
  4  7  1  0  0  0  0
  8  3  1  0  0  0  0
  8  9  1  0  0  0  0
 10  8  2  0  0  0  0
 10 11  1  0  0  0  0
 11 12  1  0  0  0  0
 11 13  1  0  0  0  0
 11 14  1  0  0  0  0
 15 10  1  0  0  0  0
  1 15  2  0  0  0  0
  1 16  1  0  0  0  0
 17 16  1  0  0  0  0
 18 17  2  0  0  0  0
 19 18  1  0  0  0  0
 20 19  2  0  0  0  0
 21 20  1  0  0  0  0
 16 21  2  0  0  0  0
M  END
> <ChemID>
100350

> <CAS>
2668-47-5

> <Original_SMILES>
CC(C)(C)c1cc(cc(c1O)C(C)(C)C)-c1ccccc1

> <preferred_name>
[1,1'-Biphenyl]-4-ol, 3,5-bis(1,1-dimethylethyl)-

> <dsstox_substance_id>
DTXSID7062582

> <dsstox_compound_id>
DTXCID8037544

> <qc_level>
Public_High

> <Canonical_QSARr>
CC(C)(C)C1=CC(=CC(=C1O)C(C)(C)C)C1C=CC=CC=1

> <InChI_Code_QSARr>
InChI=1S/C20H26O/c1-19(2,3)16-12-15(14-10-8-7-9-11-14)13-17(18(16)21)20(4,5)6/h7-13,21H,1-6H3

> <InChI Key_QSARr>
JIEWQZNTUPWNMX-UHFFFAOYSA-N

> <Salt_Solvent>


> <Salt_Solvent_ID>
0

> <MPID>
101976

> <LogKmHL>
1.16

> <Tr_1_Tst_0>
0

$$$$
100351
  Mrv171c012251910542D          

 18 18  0  0  0  0            999 V2000
    2.9781   -2.2291    0.0000 S   0  0  0  0  0  0  0  0  0  0  0  0
    3.3906   -1.5147    0.0000 P   0  0  0  0  0  0  0  0  0  0  0  0
    4.1050   -1.9272    0.0000 O   0  0  0  0  0  0  0  0  0  0  0  0
    4.8195   -1.5147    0.0000 C   0  0  0  0  0  0  0  0  0  0  0  0
    5.5340   -1.9272    0.0000 C   0  0  0  0  0  0  0  0  0  0  0  0
    3.8031   -0.8002    0.0000 O   0  0  0  0  0  0  0  0  0  0  0  0
    4.6281   -0.8002    0.0000 C   0  0  0  0  0  0  0  0  0  0  0  0
    5.0406   -0.0857    0.0000 C   0  0  0  0  0  0  0  0  0  0  0  0
    2.6761   -1.1022    0.0000 O   0  0  0  0  0  0  0  0  0  0  0  0
    1.9616   -1.5147    0.0000 C   0  0  0  0  0  0  0  0  0  0  0  0
    1.2471   -1.1022    0.0000 C   0  0  0  0  0  0  0  0  0  0  0  0
    1.2471   -0.2772    0.0000 Cl  0  0  0  0  0  0  0  0  0  0  0  0
    0.5327   -1.5147    0.0000 C   0  0  0  0  0  0  0  0  0  0  0  0
    0.5327   -2.3397    0.0000 C   0  0  0  0  0  0  0  0  0  0  0  0
   -0.1818   -2.7522    0.0000 Cl  0  0  0  0  0  0  0  0  0  0  0  0
    1.2471   -2.7522    0.0000 C   0  0  0  0  0  0  0  0  0  0  0  0
    1.2471   -3.5772    0.0000 Cl  0  0  0  0  0  0  0  0  0  0  0  0
    1.9616   -2.3397    0.0000 N   0  0  0  0  0  0  0  0  0  0  0  0
  1  2  2  0  0  0  0
  2  3  1  0  0  0  0
  3  4  1  0  0  0  0
  4  5  1  0  0  0  0
  2  6  1  0  0  0  0
  6  7  1  0  0  0  0
  7  8  1  0  0  0  0
  2  9  1  0  0  0  0
  9 10  1  0  0  0  0
 11 10  1  0  0  0  0
 11 12  1  0  0  0  0
 13 11  2  0  0  0  0
 14 13  1  0  0  0  0
 14 15  1  0  0  0  0
 16 14  2  0  0  0  0
 16 17  1  0  0  0  0
 18 16  1  0  0  0  0
 10 18  2  0  0  0  0
M  END
> <ChemID>
100351

> <CAS>
2921-88-2

> <Original_SMILES>
CCOP(=S)(Oc1[n]c(Cl)c(Cl)cc1Cl)OCC

> <preferred_name>
Chlorpyrifos

> <dsstox_substance_id>
DTXSID4020458

> <dsstox_compound_id>
DTXCID80458

> <qc_level>
DSSTox_Low

> <Canonical_QSARr>
CCOP(=S)(OC1=NC(Cl)=C(Cl)C=C1Cl)OCC

> <InChI_Code_QSARr>
InChI=1S/C9H11Cl3NO3PS/c1-3-14-17(18,15-4-2)16-9-7(11)5-6(10)8(12)13-9/h5H,3-4H2,1-2H3

> <InChI Key_QSARr>
SBPBAQFWLVIOKP-UHFFFAOYSA-N

> <Salt_Solvent>


> <Salt_Solvent_ID>
0

> <MPID>
101977

> <LogKmHL>
0.77

> <Tr_1_Tst_0>
1

$$$$
100352
  Mrv171c012251910542D          

 10  9  0  0  0  0            999 V2000
    4.5079    0.6188    0.0000 C   0  0  0  0  0  0  0  0  0  0  0  0
    3.7934    0.2063    0.0000 C   0  0  0  0  0  0  0  0  0  0  0  0
    3.0790    0.6188    0.0000 C   0  0  0  0  0  0  0  0  0  0  0  0
    2.3645    0.2063    0.0000 C   0  0  0  0  0  0  0  0  0  0  0  0
    1.6500    0.6188    0.0000 C   0  0  0  0  0  0  0  0  0  0  0  0
    2.3645   -0.6187    0.0000 C   0  0  0  0  0  0  0  0  0  0  0  0
    5.2224    0.2063    0.0000 C   0  0  0  0  0  0  0  0  0  0  0  0
    5.9369    0.6188    0.0000 C   0  0  0  0  0  0  0  0  0  0  0  0
    6.6513    0.2063    0.0000 C   0  0  0  0  0  0  0  0  0  0  0  0
    7.3658    0.6188    0.0000 C   0  0  0  0  0  0  0  0  0  0  0  0
  1  2  1  0  0  0  0
  2  3  1  0  0  0  0
  3  4  1  0  0  0  0
  4  5  2  0  0  0  0
  4  6  1  0  0  0  0
  1  7  1  0  0  0  0
  7  8  1  0  0  0  0
  8  9  1  0  0  0  0
  9 10  1  0  0  0  0
M  END
> <ChemID>
100352

> <CAS>
2980-71-4

> <Original_SMILES>
CCCCCCCC(C)=C

> <preferred_name>
2-Methyl-1-nonene

> <dsstox_substance_id>
DTXSID40183942

> <dsstox_compound_id>
DTXCID80106433

> <qc_level>
Public_Medium

> <Canonical_QSARr>
CCCCCCCC(C)=C

> <InChI_Code_QSARr>
InChI=1S/C10H20/c1-4-5-6-7-8-9-10(2)3/h2,4-9H2,1,3H3

> <InChI Key_QSARr>
YLZQHQUVNZVGOK-UHFFFAOYSA-N

> <Salt_Solvent>


> <Salt_Solvent_ID>
0

> <MPID>
101978

> <LogKmHL>
-0.06

> <Tr_1_Tst_0>
1

$$$$
100353
  Mrv171c012251910542D          

  9  8  0  0  0  0            999 V2000
    0.0091   -0.8247    0.0000 C   0  0  0  0  0  0  0  0  0  0  0  0
    0.7235   -1.2372    0.0000 C   0  0  0  0  0  0  0  0  0  0  0  0
    0.7235   -2.0622    0.0000 C   0  0  0  0  0  0  0  0  0  0  0  0
    1.4380   -0.8247    0.0000 C   0  0  0  0  0  0  0  0  0  0  0  0
    1.4380    0.0003    0.0000 C   0  0  0  0  0  0  0  0  0  0  0  0
    2.1525   -1.2372    0.0000 C   0  0  0  0  0  0  0  0  0  0  0  0
    2.8670   -0.8247    0.0000 C   0  0  0  0  0  0  0  0  0  0  0  0
    3.5814   -1.2372    0.0000 C   0  0  0  0  0  0  0  0  0  0  0  0
    4.2959   -0.8247    0.0000 C   0  0  0  0  0  0  0  0  0  0  0  0
  1  2  1  0  0  0  0
  2  3  1  0  0  0  0
  2  4  1  0  0  0  0
  4  5  1  0  0  0  0
  4  6  1  0  0  0  0
  6  7  1  0  0  0  0
  7  8  1  0  0  0  0
  8  9  1  0  0  0  0
M  END
> <ChemID>
100353

> <CAS>
3074-71-3

> <Original_SMILES>
CC(C)C(C)CCCC

> <preferred_name>


> <dsstox_substance_id>
DTXSID30871008

> <dsstox_compound_id>
DTXCID20818684

> <qc_level>


> <Canonical_QSARr>
CC(C)C(C)CCCC

> <InChI_Code_QSARr>
InChI=1S/C9H20/c1-5-6-7-9(4)8(2)3/h8-9H,5-7H2,1-4H3

> <InChI Key_QSARr>
WBRFDUJXCLCKPX-UHFFFAOYSA-N

> <Salt_Solvent>


> <Salt_Solvent_ID>
0

> <MPID>
101979

> <LogKmHL>
1.28

> <Tr_1_Tst_0>
1

$$$$
100355
  Mrv171c012251910542D          

 11 11  0  0  0  0            999 V2000
    2.4539   -0.8309    0.0000 N   0  3  0  0  0  0  0  0  0  0  0  0
    1.7395   -1.2434    0.0000 C   0  0  0  0  0  0  0  0  0  0  0  0
    1.0250   -0.8309    0.0000 C   0  0  0  0  0  0  0  0  0  0  0  0
    1.0250   -0.0059    0.0000 Cl  0  0  0  0  0  0  0  0  0  0  0  0
    0.3105   -1.2434    0.0000 C   0  0  0  0  0  0  0  0  0  0  0  0
   -0.4039   -0.8309    0.0000 Cl  0  0  0  0  0  0  0  0  0  0  0  0
    0.3105   -2.0684    0.0000 C   0  0  0  0  0  0  0  0  0  0  0  0
    1.0250   -2.4809    0.0000 C   0  0  0  0  0  0  0  0  0  0  0  0
    1.7395   -2.0684    0.0000 C   0  0  0  0  0  0  0  0  0  0  0  0
    2.4539   -0.0059    0.0000 O   0  5  0  0  0  0  0  0  0  0  0  0
    3.1684   -1.2434    0.0000 O   0  0  0  0  0  0  0  0  0  0  0  0
  1  2  1  0  0  0  0
  3  2  1  0  0  0  0
  3  4  1  0  0  0  0
  5  3  2  0  0  0  0
  5  6  1  0  0  0  0
  7  5  1  0  0  0  0
  8  7  2  0  0  0  0
  9  8  1  0  0  0  0
  2  9  2  0  0  0  0
  1 10  1  0  0  0  0
  1 11  2  0  0  0  0
M  CHG  2   1   1  10  -1
M  END
> <ChemID>
100355

> <CAS>
3209-22-1

> <Original_SMILES>
[O-][N+](=O)c1cccc(Cl)c1Cl

> <preferred_name>
2,3-Dichloronitrobenzene

> <dsstox_substance_id>
DTXSID8024997

> <dsstox_compound_id>
DTXCID704997

> <qc_level>
DSSTox_Low

> <Canonical_QSARr>
[O-][N+](=O)C1=CC=CC(Cl)=C1Cl

> <InChI_Code_QSARr>
InChI=1S/C6H3Cl2NO2/c7-4-2-1-3-5(6(4)8)9(10)11/h1-3H

> <InChI Key_QSARr>
CMVQZRLQEOAYSW-UHFFFAOYSA-N

> <Salt_Solvent>


> <Salt_Solvent_ID>
0

> <MPID>
101980

> <LogKmHL>
0.54

> <Tr_1_Tst_0>
0

$$$$
100356
  Mrv171c012251910542D          

  9  8  0  0  0  0            999 V2000
    2.6664    0.7145    0.0000 Br  0  0  0  0  0  0  0  0  0  0  0  0
    1.9520    0.3020    0.0000 C   0  0  0  0  0  0  0  0  0  0  0  0
    1.2375    0.7145    0.0000 C   0  0  0  0  0  0  0  0  0  0  0  0
    0.5230    1.1270    0.0000 C   0  0  0  0  0  0  0  0  0  0  0  0
   -0.1915    0.7145    0.0000 Br  0  0  0  0  0  0  0  0  0  0  0  0
    1.6500    1.4289    0.0000 C   0  0  0  0  0  0  0  0  0  0  0  0
    1.2375    2.1434    0.0000 Br  0  0  0  0  0  0  0  0  0  0  0  0
    0.8250   -0.0000    0.0000 C   0  0  0  0  0  0  0  0  0  0  0  0
   -0.0000   -0.0000    0.0000 Br  0  0  0  0  0  0  0  0  0  0  0  0
  1  2  1  0  0  0  0
  2  3  1  0  0  0  0
  3  4  1  0  0  0  0
  4  5  1  0  0  0  0
  3  6  1  0  0  0  0
  6  7  1  0  0  0  0
  3  8  1  0  0  0  0
  8  9  1  0  0  0  0
M  END
> <ChemID>
100356

> <CAS>
3229-00-3

> <Original_SMILES>
BrCC(CBr)(CBr)CBr

> <preferred_name>
Propane, 1,3-dibromo-2,2-bis(bromomethyl)-

> <dsstox_substance_id>
DTXSID1062916

> <dsstox_compound_id>
DTXCID9038478

> <qc_level>
Public_High

> <Canonical_QSARr>
BrCC(CBr)(CBr)CBr

> <InChI_Code_QSARr>
InChI=1S/C5H8Br4/c6-1-5(2-7,3-8)4-9/h1-4H2

> <InChI Key_QSARr>
OYSVBCSOQFXYHK-UHFFFAOYSA-N

> <Salt_Solvent>


> <Salt_Solvent_ID>
0

> <MPID>
101981

> <LogKmHL>
0.76

> <Tr_1_Tst_0>
1

$$$$
100357
  Mrv171c012251910542D          

 22 24  0  0  0  0            999 V2000
    1.4307   -3.2990    0.0000 Cl  0  0  0  0  0  0  0  0  0  0  0  0
    1.4307   -2.4740    0.0000 C   0  0  0  0  0  0  0  0  0  0  0  0
    2.1451   -2.0615    0.0000 C   0  0  0  0  0  0  0  0  0  0  0  0
    2.8596   -2.4740    0.0000 O   0  0  0  0  0  0  0  0  0  0  0  0
    3.5741   -2.0615    0.0000 C   0  0  0  0  0  0  0  0  0  0  0  0
    4.2885   -2.4740    0.0000 C   0  0  0  0  0  0  0  0  0  0  0  0
    4.2885   -3.2990    0.0000 Cl  0  0  0  0  0  0  0  0  0  0  0  0
    5.0030   -2.0615    0.0000 C   0  0  0  0  0  0  0  0  0  0  0  0
    5.7175   -2.4740    0.0000 Cl  0  0  0  0  0  0  0  0  0  0  0  0
    5.0030   -1.2365    0.0000 C   0  0  0  0  0  0  0  0  0  0  0  0
    5.7175   -0.8240    0.0000 Cl  0  0  0  0  0  0  0  0  0  0  0  0
    4.2885   -0.8240    0.0000 C   0  0  0  0  0  0  0  0  0  0  0  0
    4.2885    0.0010    0.0000 Cl  0  0  0  0  0  0  0  0  0  0  0  0
    3.5741   -1.2365    0.0000 C   0  0  0  0  0  0  0  0  0  0  0  0
    2.8596   -0.8240    0.0000 O   0  0  0  0  0  0  0  0  0  0  0  0
    2.1451   -1.2365    0.0000 C   0  0  0  0  0  0  0  0  0  0  0  0
    1.4307   -0.8240    0.0000 C   0  0  0  0  0  0  0  0  0  0  0  0
    1.4307    0.0010    0.0000 Cl  0  0  0  0  0  0  0  0  0  0  0  0
    0.7162   -1.2365    0.0000 C   0  0  0  0  0  0  0  0  0  0  0  0
    0.0017   -0.8240    0.0000 Cl  0  0  0  0  0  0  0  0  0  0  0  0
    0.7162   -2.0615    0.0000 C   0  0  0  0  0  0  0  0  0  0  0  0
    0.0017   -2.4740    0.0000 Cl  0  0  0  0  0  0  0  0  0  0  0  0
  1  2  1  0  0  0  0
  3  2  1  0  0  0  0
  3  4  1  0  0  0  0
  4  5  1  0  0  0  0
  6  5  2  0  0  0  0
  6  7  1  0  0  0  0
  8  6  1  0  0  0  0
  8  9  1  0  0  0  0
 10  8  2  0  0  0  0
 10 11  1  0  0  0  0
 12 10  1  0  0  0  0
 12 13  1  0  0  0  0
 14 12  2  0  0  0  0
  5 14  1  0  0  0  0
 14 15  1  0  0  0  0
 15 16  1  0  0  0  0
 16  3  2  0  0  0  0
 17 16  1  0  0  0  0
 17 18  1  0  0  0  0
 19 17  2  0  0  0  0
 19 20  1  0  0  0  0
 21 19  1  0  0  0  0
  2 21  2  0  0  0  0
 21 22  1  0  0  0  0
M  END
> <ChemID>
100357

> <CAS>
3268-87-9

> <Original_SMILES>
Clc1c2Oc3c(Oc2c(Cl)c(Cl)c1Cl)c(Cl)c(Cl)c(Cl)c3Cl

> <preferred_name>
Octachlorodibenzo-p-dioxin

> <dsstox_substance_id>
DTXSID4025799

> <dsstox_compound_id>
DTXCID205799

> <qc_level>
DSSTox_Low

> <Canonical_QSARr>
ClC1C2OC3C(OC=2C(Cl)=C(Cl)C=1Cl)=C(Cl)C(Cl)=C(Cl)C=3Cl

> <InChI_Code_QSARr>
InChI=1S/C12Cl8O2/c13-1-2(14)6(18)10-9(5(1)17)21-11-7(19)3(15)4(16)8(20)12(11)22-10

> <InChI Key_QSARr>
FOIBFBMSLDGNHL-UHFFFAOYSA-N

> <Salt_Solvent>


> <Salt_Solvent_ID>
0

> <MPID>
101982

> <LogKmHL>
1.16

> <Tr_1_Tst_0>
1

$$$$
100358
  Mrv171c012251910542D          

  9  8  0  0  0  0            999 V2000
    2.8051   -1.4772    0.0000 O   0  0  0  0  0  0  0  0  0  0  0  0
    2.0907   -1.8897    0.0000 C   0  0  0  0  0  0  0  0  0  0  0  0
    1.3762   -1.4772    0.0000 C   0  0  0  0  0  0  0  0  0  0  0  0
    0.6617   -1.0647    0.0000 C   0  0  0  0  0  0  0  0  0  0  0  0
   -0.0527   -1.4772    0.0000 Br  0  0  0  0  0  0  0  0  0  0  0  0
    1.7887   -0.7627    0.0000 C   0  0  0  0  0  0  0  0  0  0  0  0
    1.3762   -0.0482    0.0000 Br  0  0  0  0  0  0  0  0  0  0  0  0
    0.9637   -2.1917    0.0000 C   0  0  0  0  0  0  0  0  0  0  0  0
    0.1387   -2.1917    0.0000 O   0  0  0  0  0  0  0  0  0  0  0  0
  1  2  1  0  0  0  0
  2  3  1  0  0  0  0
  3  4  1  0  0  0  0
  4  5  1  0  0  0  0
  3  6  1  0  0  0  0
  6  7  1  0  0  0  0
  3  8  1  0  0  0  0
  8  9  1  0  0  0  0
M  END
> <ChemID>
100358

> <CAS>
3296-90-0

> <Original_SMILES>
OCC(CBr)(CBr)CO

> <preferred_name>
2,2-Bis(bromomethyl)-1,3-propanediol

> <dsstox_substance_id>
DTXSID9020164

> <dsstox_compound_id>
DTXCID50164

> <qc_level>
DSSTox_Low

> <Canonical_QSARr>
OCC(CBr)(CBr)CO

> <InChI_Code_QSARr>
InChI=1S/C5H10Br2O2/c6-1-5(2-7,3-8)4-9/h8-9H,1-4H2

> <InChI Key_QSARr>
CHUGKEQJSLOLHL-UHFFFAOYSA-N

> <Salt_Solvent>


> <Salt_Solvent_ID>
0

> <MPID>
101983

> <LogKmHL>
-1.4

> <Tr_1_Tst_0>
1

$$$$
100359
  Mrv171c012251910542D          

 14 15  0  0  0  0            999 V2000
    2.3645   -1.0312    0.0000 C   0  0  0  0  0  0  0  0  0  0  0  0
    1.6500   -1.4438    0.0000 C   0  0  0  0  0  0  0  0  0  0  0  0
    1.6500   -2.2688    0.0000 C   0  0  0  0  0  0  0  0  0  0  0  0
    2.3645   -2.6813    0.0000 C   0  0  0  0  0  0  0  0  0  0  0  0
    3.0790   -2.2688    0.0000 C   0  0  0  0  0  0  0  0  0  0  0  0
    3.0790   -1.4437    0.0000 C   0  0  0  0  0  0  0  0  0  0  0  0
    2.3645   -0.2062    0.0000 C   0  0  0  0  0  0  0  0  0  0  0  0
    3.0790    0.2062    0.0000 C   0  0  0  0  0  0  0  0  0  0  0  0
    3.0790    1.0312    0.0000 C   0  0  0  0  0  0  0  0  0  0  0  0
    3.7934    1.4438    0.0000 C   0  0  0  0  0  0  0  0  0  0  0  0
    3.7934    2.2688    0.0000 C   0  0  0  0  0  0  0  0  0  0  0  0
    3.0790    2.6813    0.0000 C   0  0  0  0  0  0  0  0  0  0  0  0
    2.3645    2.2687    0.0000 C   0  0  0  0  0  0  0  0  0  0  0  0
    2.3645    1.4437    0.0000 C   0  0  0  0  0  0  0  0  0  0  0  0
  2  1  1  0  0  0  0
  3  2  1  0  0  0  0
  4  3  1  0  0  0  0
  5  4  1  0  0  0  0
  6  5  1  0  0  0  0
  1  6  1  0  0  0  0
  1  7  1  0  0  0  0
  7  8  1  0  0  0  0
  8  9  1  0  0  0  0
 10  9  1  0  0  0  0
 11 10  1  0  0  0  0
 12 11  1  0  0  0  0
 13 12  1  0  0  0  0
 14 13  1  0  0  0  0
  9 14  1  0  0  0  0
M  END
> <ChemID>
100359

> <CAS>
3321-50-4

> <Original_SMILES>
C(CC1CCCCC1)C1CCCCC1

> <preferred_name>
1,2-Dicyclohexylethane

> <dsstox_substance_id>
DTXSID70186860

> <dsstox_compound_id>
DTXCID10109351

> <qc_level>
Public_Medium

> <Canonical_QSARr>
C(CC1CCCCC1)C1CCCCC1

> <InChI_Code_QSARr>
InChI=1S/C14H26/c1-3-7-13(8-4-1)11-12-14-9-5-2-6-10-14/h13-14H,1-12H2

> <InChI Key_QSARr>
IBLVSWYGUFGDMF-UHFFFAOYSA-N

> <Salt_Solvent>


> <Salt_Solvent_ID>
0

> <MPID>
101984

> <LogKmHL>
0.13

> <Tr_1_Tst_0>
0

$$$$
100360
  Mrv171c012251910542D          

 16 18  0  0  0  0            999 V2000
    4.1900    0.3973    0.0000 C   0  0  0  0  0  0  0  0  0  0  0  0
    5.0150    0.3973    0.0000 C   0  0  0  0  0  0  0  0  0  0  0  0
    5.4275   -0.3172    0.0000 C   0  0  0  0  0  0  0  0  0  0  0  0
    5.0150   -1.0317    0.0000 C   0  0  0  0  0  0  0  0  0  0  0  0
    4.1900   -1.0317    0.0000 C   0  0  0  0  0  0  0  0  0  0  0  0
    3.7775   -0.3172    0.0000 C   0  0  0  0  0  0  0  0  0  0  0  0
    2.9525   -0.3172    0.0000 C   0  0  0  0  0  0  0  0  0  0  0  0
    2.5400   -1.0317    0.0000 C   0  0  0  0  0  0  0  0  0  0  0  0
    1.7150   -1.0317    0.0000 C   0  0  0  0  0  0  0  0  0  0  0  0
    1.3025   -0.3172    0.0000 C   0  0  0  0  0  0  0  0  0  0  0  0
    1.7150    0.3973    0.0000 C   0  0  0  0  0  0  0  0  0  0  0  0
    2.5400    0.3973    0.0000 C   0  0  0  0  0  0  0  0  0  0  0  0
    2.9525    1.1117    0.0000 C   0  0  0  0  0  0  0  0  0  0  0  0
    3.7775    1.1117    0.0000 C   0  0  0  0  0  0  0  0  0  0  0  0
    4.1900    1.8262    0.0000 C   0  0  0  0  0  0  0  0  0  0  0  0
    5.0150    1.8262    0.0000 C   0  0  0  0  0  0  0  0  0  0  0  0
  2  1  2  0  0  0  0
  3  2  1  0  0  0  0
  4  3  2  0  0  0  0
  5  4  1  0  0  0  0
  6  5  2  0  0  0  0
  6  1  1  0  0  0  0
  7  6  1  0  0  0  0
  7  8  2  0  0  0  0
  8  9  1  0  0  0  0
  9 10  2  0  0  0  0
 10 11  1  0  0  0  0
 11 12  2  0  0  0  0
 12  7  1  0  0  0  0
 13 12  1  0  0  0  0
 14 13  2  0  0  0  0
  1 14  1  0  0  0  0
 14 15  1  0  0  0  0
 15 16  1  0  0  0  0
M  END
> <ChemID>
100360

> <CAS>
3674-75-7

> <Original_SMILES>
CCc1cc2ccccc2c2ccccc21

> <preferred_name>
Phenanthrene, 9-ethyl- (8CI)(9CI)

> <dsstox_substance_id>
DTXSID90190202

> <dsstox_compound_id>
DTXCID60112693

> <qc_level>
Public_Medium

> <Canonical_QSARr>
CCC1=CC2=CC=CC=C2C2=CC=CC=C21

> <InChI_Code_QSARr>
InChI=1S/C16H14/c1-2-12-11-13-7-3-4-9-15(13)16-10-6-5-8-14(12)16/h3-11H,2H2,1H3

> <InChI Key_QSARr>
ZWANHXINCHPSIK-UHFFFAOYSA-N

> <Salt_Solvent>


> <Salt_Solvent_ID>
0

> <MPID>
101985

> <LogKmHL>
0.29

> <Tr_1_Tst_0>
1

$$$$
100361
  Mrv171c012251910542D          

 17 17  0  0  0  0            999 V2000
    3.8224   -0.9224    0.0000 C   0  0  0  0  0  0  0  0  0  0  0  0
    3.1079   -1.3349    0.0000 C   0  0  0  0  0  0  0  0  0  0  0  0
    2.3935   -0.9224    0.0000 C   0  0  0  0  0  0  0  0  0  0  0  0
    2.3935   -0.0974    0.0000 S   0  0  0  0  0  0  0  0  0  0  0  0
    1.6790    0.3151    0.0000 O   0  0  0  0  0  0  0  0  0  0  0  0
    3.1079    0.3151    0.0000 C   0  0  0  0  0  0  0  0  0  0  0  0
    1.6790   -1.3349    0.0000 C   0  0  0  0  0  0  0  0  0  0  0  0
    1.6790   -2.1599    0.0000 C   0  0  0  0  0  0  0  0  0  0  0  0
    2.3935   -2.5724    0.0000 C   0  0  0  0  0  0  0  0  0  0  0  0
    2.3935   -3.3974    0.0000 O   0  0  0  0  0  0  0  0  0  0  0  0
    1.6790   -3.8099    0.0000 P   0  0  0  0  0  0  0  0  0  0  0  0
    1.2665   -3.0955    0.0000 S   0  0  0  0  0  0  0  0  0  0  0  0
    0.9645   -4.2224    0.0000 O   0  0  0  0  0  0  0  0  0  0  0  0
    0.9645   -5.0474    0.0000 C   0  0  0  0  0  0  0  0  0  0  0  0
    2.0915   -4.5244    0.0000 O   0  0  0  0  0  0  0  0  0  0  0  0
    1.6790   -5.2389    0.0000 C   0  0  0  0  0  0  0  0  0  0  0  0
    3.1079   -2.1599    0.0000 C   0  0  0  0  0  0  0  0  0  0  0  0
  1  2  1  0  0  0  0
  3  2  2  0  0  0  0
  3  4  1  0  0  0  0
  4  5  2  0  0  0  0
  4  6  1  0  0  0  0
  7  3  1  0  0  0  0
  8  7  2  0  0  0  0
  9  8  1  0  0  0  0
  9 10  1  0  0  0  0
 10 11  1  0  0  0  0
 11 12  2  0  0  0  0
 11 13  1  0  0  0  0
 13 14  1  0  0  0  0
 11 15  1  0  0  0  0
 15 16  1  0  0  0  0
 17  9  2  0  0  0  0
  2 17  1  0  0  0  0
M  END
> <ChemID>
100361

> <CAS>
3761-41-9

> <Original_SMILES>
Cc1cc(ccc1S(C)=O)OP(=S)(OC)OC

> <preferred_name>
Mesulfenfos

> <dsstox_substance_id>
DTXSID9058076

> <dsstox_compound_id>
DTXCID5031844

> <qc_level>
DSSTox_High

> <Canonical_QSARr>
CC1C=C(C=CC=1S(C)=O)OP(=S)(OC)OC

> <InChI_Code_QSARr>
InChI=1S/C10H15O4PS2/c1-8-7-9(5-6-10(8)17(4)11)14-15(16,12-2)13-3/h5-7H,1-4H3

> <InChI Key_QSARr>
DLAPIMGBBDILHJ-UHFFFAOYSA-N

> <Salt_Solvent>


> <Salt_Solvent_ID>
0

> <MPID>
101986

> <LogKmHL>
-0.38

> <Tr_1_Tst_0>
1

$$$$
100362
  Mrv171c012251910542D          

 18 18  0  0  0  0            999 V2000
    3.5767   -3.1836    0.0000 S   0  0  0  0  0  0  0  0  0  0  0  0
    3.9892   -3.8981    0.0000 P   0  0  0  0  0  0  0  0  0  0  0  0
    3.2747   -4.3106    0.0000 O   0  0  0  0  0  0  0  0  0  0  0  0
    3.2747   -5.1356    0.0000 C   0  0  0  0  0  0  0  0  0  0  0  0
    4.4017   -4.6126    0.0000 O   0  0  0  0  0  0  0  0  0  0  0  0
    3.9892   -5.3271    0.0000 C   0  0  0  0  0  0  0  0  0  0  0  0
    4.7037   -3.4856    0.0000 O   0  0  0  0  0  0  0  0  0  0  0  0
    4.7037   -2.6606    0.0000 C   0  0  0  0  0  0  0  0  0  0  0  0
    5.4182   -2.2481    0.0000 C   0  0  0  0  0  0  0  0  0  0  0  0
    5.4182   -1.4231    0.0000 C   0  0  0  0  0  0  0  0  0  0  0  0
    4.7037   -1.0106    0.0000 C   0  0  0  0  0  0  0  0  0  0  0  0
    4.7037   -0.1856    0.0000 S   0  0  0  0  0  0  0  0  0  0  0  0
    4.7037    0.6394    0.0000 O   0  0  0  0  0  0  0  0  0  0  0  0
    5.5287   -0.1856    0.0000 O   0  0  0  0  0  0  0  0  0  0  0  0
    3.8787   -0.1856    0.0000 C   0  0  0  0  0  0  0  0  0  0  0  0
    3.9892   -1.4231    0.0000 C   0  0  0  0  0  0  0  0  0  0  0  0
    3.2747   -1.0106    0.0000 C   0  0  0  0  0  0  0  0  0  0  0  0
    3.9892   -2.2481    0.0000 C   0  0  0  0  0  0  0  0  0  0  0  0
  1  2  2  0  0  0  0
  2  3  1  0  0  0  0
  3  4  1  0  0  0  0
  2  5  1  0  0  0  0
  5  6  1  0  0  0  0
  2  7  1  0  0  0  0
  7  8  1  0  0  0  0
  9  8  1  0  0  0  0
 10  9  2  0  0  0  0
 11 10  1  0  0  0  0
 11 12  1  0  0  0  0
 12 13  2  0  0  0  0
 12 14  2  0  0  0  0
 12 15  1  0  0  0  0
 16 11  2  0  0  0  0
 16 17  1  0  0  0  0
 18 16  1  0  0  0  0
  8 18  2  0  0  0  0
M  END
> <ChemID>
100362

> <CAS>
3761-42-0

> <Original_SMILES>
Cc1cc(ccc1S(C)(=O)=O)OP(=S)(OC)OC

> <preferred_name>
Fenthion sulfone

> <dsstox_substance_id>
DTXSID6041975

> <dsstox_compound_id>
DTXCID4021975

> <qc_level>
DSSTox_High

> <Canonical_QSARr>
CC1C=C(C=CC=1S(C)(=O)=O)OP(=S)(OC)OC

> <InChI_Code_QSARr>
InChI=1S/C10H15O5PS2/c1-8-7-9(15-16(17,13-2)14-3)5-6-10(8)18(4,11)12/h5-7H,1-4H3

> <InChI Key_QSARr>
ZDHYERRNXRANLI-UHFFFAOYSA-N

> <Salt_Solvent>


> <Salt_Solvent_ID>
0

> <MPID>
101987

> <LogKmHL>
-0.03

> <Tr_1_Tst_0>
1

$$$$
100363
  Mrv171c012251910542D          

 15 15  0  0  0  0            999 V2000
    4.8220   -2.1478    0.0000 C   0  0  0  0  0  0  0  0  0  0  0  0
    4.1075   -2.5603    0.0000 C   0  0  0  0  0  0  0  0  0  0  0  0
    3.3931   -2.1478    0.0000 C   0  0  0  0  0  0  0  0  0  0  0  0
    2.6786   -2.5603    0.0000 C   0  0  0  0  0  0  0  0  0  0  0  0
    1.9641   -2.1478    0.0000 C   0  0  0  0  0  0  0  0  0  0  0  0
    1.9641   -1.3228    0.0000 O   0  0  0  0  0  0  0  0  0  0  0  0
    1.2497   -0.9103    0.0000 C   0  0  0  0  0  0  0  0  0  0  0  0
    0.5352   -1.3228    0.0000 O   0  0  0  0  0  0  0  0  0  0  0  0
    1.2497   -0.0853    0.0000 N   0  0  0  0  0  0  0  0  0  0  0  0
    0.5352    0.3272    0.0000 C   0  0  0  0  0  0  0  0  0  0  0  0
    1.2497   -2.5603    0.0000 C   0  0  0  0  0  0  0  0  0  0  0  0
    1.2497   -3.3853    0.0000 C   0  0  0  0  0  0  0  0  0  0  0  0
    1.9641   -3.7978    0.0000 C   0  0  0  0  0  0  0  0  0  0  0  0
    2.6786   -3.3853    0.0000 C   0  0  0  0  0  0  0  0  0  0  0  0
    3.3931   -1.3228    0.0000 C   0  0  0  0  0  0  0  0  0  0  0  0
  1  2  1  0  0  0  0
  2  3  1  0  0  0  0
  3  4  1  0  0  0  0
  5  4  1  0  0  0  0
  5  6  1  0  0  0  0
  6  7  1  0  0  0  0
  7  8  2  0  0  0  0
  7  9  1  0  0  0  0
  9 10  1  0  0  0  0
 11  5  2  0  0  0  0
 12 11  1  0  0  0  0
 13 12  2  0  0  0  0
 14 13  1  0  0  0  0
  4 14  2  0  0  0  0
  3 15  1  0  0  0  0
M  END
> <ChemID>
100363

> <CAS>
3766-81-2

> <Original_SMILES>
CCC(C)c1ccccc1OC(=O)NC

> <preferred_name>
Fenobucarb

> <dsstox_substance_id>
DTXSID4058077

> <dsstox_compound_id>
DTXCID0031845

> <qc_level>
DSSTox_High

> <Canonical_QSARr>
CCC(C)C1=CC=CC=C1OC(=O)NC

> <InChI_Code_QSARr>
InChI=1S/C12H17NO2/c1-4-9(2)10-7-5-6-8-11(10)15-12(14)13-3/h5-9H,4H2,1-3H3,(H,13,14)

> <InChI Key_QSARr>
DIRFUJHNVNOBMY-UHFFFAOYSA-N

> <Salt_Solvent>


> <Salt_Solvent_ID>
0

> <MPID>
101988

> <LogKmHL>
-0.52

> <Tr_1_Tst_0>
0

$$$$
100364
  Mrv171c012251910542D          

 13 14  0  0  0  0            999 V2000
    1.6343   -0.3601    0.0000 O   0  0  0  0  0  0  0  0  0  0  0  0
    2.3488   -0.7726    0.0000 C   0  0  0  0  0  0  0  0  0  0  0  0
    3.0633   -0.3601    0.0000 C   0  0  0  0  0  0  0  0  0  0  0  0
    3.7777   -0.7726    0.0000 C   0  0  0  0  0  0  0  0  0  0  0  0
    3.7777   -1.5976    0.0000 C   0  0  0  0  0  0  0  0  0  0  0  0
    3.0633   -2.0101    0.0000 C   0  0  0  0  0  0  0  0  0  0  0  0
    2.3488   -1.5976    0.0000 C   0  0  0  0  0  0  0  0  0  0  0  0
    1.6343   -2.0101    0.0000 C   0  0  0  0  0  0  0  0  0  0  0  0
    0.9199   -1.5976    0.0000 O   0  0  0  0  0  0  0  0  0  0  0  0
    0.9199   -0.7726    0.0000 P   0  0  0  0  0  0  0  0  0  0  0  0
    0.0954   -0.7438    0.0000 O   0  0  0  0  0  0  0  0  0  0  0  0
   -0.3418   -1.4434    0.0000 C   0  0  0  0  0  0  0  0  0  0  0  0
    0.4827   -0.0729    0.0000 S   0  0  0  0  0  0  0  0  0  0  0  0
  2  1  1  0  0  0  0
  2  3  2  0  0  0  0
  3  4  1  0  0  0  0
  4  5  2  0  0  0  0
  5  6  1  0  0  0  0
  6  7  2  0  0  0  0
  7  2  1  0  0  0  0
  8  7  1  0  0  0  0
  9  8  1  0  0  0  0
 10  9  1  0  0  0  0
  1 10  1  0  0  0  0
 10 11  1  0  0  0  0
 11 12  1  0  0  0  0
 10 13  2  0  0  0  0
M  END
> <ChemID>
100364

> <CAS>
3811-49-2

> <Original_SMILES>
COP1(=S)OCc2ccccc2O1

> <preferred_name>
Dioxabenzofos

> <dsstox_substance_id>
DTXSID7041885

> <dsstox_compound_id>
DTXCID5021885

> <qc_level>
DSSTox_Low

> <Canonical_QSARr>
COP1(=S)OCC2=CC=CC=C2O1

> <InChI_Code_QSARr>
InChI=1S/C8H9O3PS/c1-9-12(13)10-6-7-4-2-3-5-8(7)11-12/h2-5H,6H2,1H3

> <InChI Key_QSARr>
OUNSASXJZHBGAI-UHFFFAOYSA-N

> <Salt_Solvent>


> <Salt_Solvent_ID>
0

> <MPID>
101989

> <LogKmHL>
-1.15

> <Tr_1_Tst_0>
1

$$$$
100365
  Mrv171c012251910542D          

 24 26  0  0  0  0            999 V2000
    5.8886   -1.7362    0.0000 C   0  0  0  0  0  0  0  0  0  0  0  0
    5.1742   -1.3237    0.0000 C   0  0  0  0  0  0  0  0  0  0  0  0
    4.4597   -1.7362    0.0000 C   0  0  0  0  0  0  0  0  0  0  0  0
    3.6751   -1.4812    0.0000 N   0  0  0  0  0  0  0  0  0  0  0  0
    3.1901   -2.1487    0.0000 N   0  0  0  0  0  0  0  0  0  0  0  0
    2.3651   -2.1487    0.0000 C   0  0  0  0  0  0  0  0  0  0  0  0
    1.9526   -1.4342    0.0000 C   0  0  0  0  0  0  0  0  0  0  0  0
    2.3651   -0.7197    0.0000 O   0  0  0  0  0  0  0  0  0  0  0  0
    1.1276   -1.4342    0.0000 C   0  0  0  0  0  0  0  0  0  0  0  0
    0.7151   -0.7197    0.0000 C   0  0  0  0  0  0  0  0  0  0  0  0
    0.3026   -0.0053    0.0000 C   0  0  0  0  0  0  0  0  0  0  0  0
    1.4296   -0.3072    0.0000 C   0  0  0  0  0  0  0  0  0  0  0  0
    0.0007   -1.1322    0.0000 C   0  0  0  0  0  0  0  0  0  0  0  0
    0.7151   -2.1487    0.0000 C   0  0  0  0  0  0  0  0  0  0  0  0
    1.1276   -2.8632    0.0000 C   0  0  0  0  0  0  0  0  0  0  0  0
    0.7151   -3.5776    0.0000 C   0  0  0  0  0  0  0  0  0  0  0  0
    0.3026   -4.2921    0.0000 C   0  0  0  0  0  0  0  0  0  0  0  0
    1.4296   -3.9901    0.0000 C   0  0  0  0  0  0  0  0  0  0  0  0
    0.0007   -3.1651    0.0000 C   0  0  0  0  0  0  0  0  0  0  0  0
    1.9526   -2.8632    0.0000 C   0  0  0  0  0  0  0  0  0  0  0  0
    3.6751   -2.8161    0.0000 N   0  0  0  0  0  0  0  0  0  0  0  0
    4.4597   -2.5612    0.0000 C   0  0  0  0  0  0  0  0  0  0  0  0
    5.1742   -2.9737    0.0000 C   0  0  0  0  0  0  0  0  0  0  0  0
    5.8886   -2.5612    0.0000 C   0  0  0  0  0  0  0  0  0  0  0  0
  2  1  2  0  0  0  0
  3  2  1  0  0  0  0
  3  4  2  0  0  0  0
  4  5  1  0  0  0  0
  5  6  1  0  0  0  0
  7  6  2  0  0  0  0
  7  8  1  0  0  0  0
  9  7  1  0  0  0  0
  9 10  1  0  0  0  0
 10 11  1  0  0  0  0
 10 12  1  0  0  0  0
 10 13  1  0  0  0  0
 14  9  2  0  0  0  0
 15 14  1  0  0  0  0
 15 16  1  0  0  0  0
 16 17  1  0  0  0  0
 16 18  1  0  0  0  0
 16 19  1  0  0  0  0
 20 15  2  0  0  0  0
  6 20  1  0  0  0  0
  5 21  1  0  0  0  0
 21 22  2  0  0  0  0
 22  3  1  0  0  0  0
 23 22  1  0  0  0  0
 24 23  2  0  0  0  0
  1 24  1  0  0  0  0
M  END
> <ChemID>
100365

> <CAS>
3846-71-7

> <Original_SMILES>
CC(C)(C)c1cc(cc(c1O)-[n]1[n]c2ccccc2[n]1)C(C)(C)C

> <preferred_name>
2-Benzotriazol-2-yl-4,6-di-tert-butylphenol

> <dsstox_substance_id>
DTXSID4052059

> <dsstox_compound_id>
DTXCID9030626

> <qc_level>
DSSTox_Low

> <Canonical_QSARr>
CC(C)(C)C1C=C(C(O)=C(C=1)N1N=C2C=CC=CC2=N1)C(C)(C)C

> <InChI_Code_QSARr>
InChI=1S/C20H25N3O/c1-19(2,3)13-11-14(20(4,5)6)18(24)17(12-13)23-21-15-9-7-8-10-16(15)22-23/h7-12,24H,1-6H3

> <InChI Key_QSARr>
LHPPDQUVECZQSW-UHFFFAOYSA-N

> <Salt_Solvent>


> <Salt_Solvent_ID>
0

> <MPID>
101990

> <LogKmHL>
0.89

> <Tr_1_Tst_0>
1

$$$$
100366
  Mrv171c012251910542D          

 25 27  0  0  0  0            999 V2000
    2.3444   -1.9241    0.0000 C   0  0  0  0  0  0  0  0  0  0  0  0
    1.5194   -1.9241    0.0000 C   0  0  0  0  0  0  0  0  0  0  0  0
    1.1069   -1.2096    0.0000 C   0  0  0  0  0  0  0  0  0  0  0  0
    0.6944   -0.4952    0.0000 C   0  0  0  0  0  0  0  0  0  0  0  0
    0.3924   -1.6221    0.0000 C   0  0  0  0  0  0  0  0  0  0  0  0
    1.8213   -0.7971    0.0000 C   0  0  0  0  0  0  0  0  0  0  0  0
    1.1069   -2.6386    0.0000 C   0  0  0  0  0  0  0  0  0  0  0  0
    1.5194   -3.3530    0.0000 C   0  0  0  0  0  0  0  0  0  0  0  0
    1.1069   -4.0675    0.0000 C   0  0  0  0  0  0  0  0  0  0  0  0
    0.6944   -4.7820    0.0000 C   0  0  0  0  0  0  0  0  0  0  0  0
    1.8213   -4.4800    0.0000 C   0  0  0  0  0  0  0  0  0  0  0  0
    0.3924   -3.6550    0.0000 C   0  0  0  0  0  0  0  0  0  0  0  0
    2.3444   -3.3530    0.0000 C   0  0  0  0  0  0  0  0  0  0  0  0
    2.7569   -2.6386    0.0000 C   0  0  0  0  0  0  0  0  0  0  0  0
    3.5819   -2.6386    0.0000 N   0  0  0  0  0  0  0  0  0  0  0  0
    4.0668   -1.9711    0.0000 N   0  0  0  0  0  0  0  0  0  0  0  0
    4.8514   -2.2261    0.0000 C   0  0  0  0  0  0  0  0  0  0  0  0
    5.5659   -1.8136    0.0000 C   0  0  0  0  0  0  0  0  0  0  0  0
    6.2804   -2.2261    0.0000 C   0  0  0  0  0  0  0  0  0  0  0  0
    6.2804   -3.0511    0.0000 C   0  0  0  0  0  0  0  0  0  0  0  0
    6.9948   -3.4636    0.0000 Cl  0  0  0  0  0  0  0  0  0  0  0  0
    5.5659   -3.4636    0.0000 C   0  0  0  0  0  0  0  0  0  0  0  0
    4.8514   -3.0511    0.0000 C   0  0  0  0  0  0  0  0  0  0  0  0
    4.0668   -3.3060    0.0000 N   0  0  0  0  0  0  0  0  0  0  0  0
    2.7569   -1.2096    0.0000 O   0  0  0  0  0  0  0  0  0  0  0  0
  2  1  1  0  0  0  0
  2  3  1  0  0  0  0
  3  4  1  0  0  0  0
  3  5  1  0  0  0  0
  3  6  1  0  0  0  0
  7  2  2  0  0  0  0
  8  7  1  0  0  0  0
  8  9  1  0  0  0  0
  9 10  1  0  0  0  0
  9 11  1  0  0  0  0
  9 12  1  0  0  0  0
 13  8  2  0  0  0  0
 14 13  1  0  0  0  0
  1 14  2  0  0  0  0
 14 15  1  0  0  0  0
 16 15  1  0  0  0  0
 17 16  2  0  0  0  0
 17 18  1  0  0  0  0
 18 19  2  0  0  0  0
 19 20  1  0  0  0  0
 20 21  1  0  0  0  0
 20 22  2  0  0  0  0
 22 23  1  0  0  0  0
 23 17  1  0  0  0  0
 24 23  2  0  0  0  0
 15 24  1  0  0  0  0
  1 25  1  0  0  0  0
M  END
> <ChemID>
100366

> <CAS>
3864-99-1

> <Original_SMILES>
CC(C)(C)c1cc(cc(c1O)-[n]1[n]c2ccc(Cl)cc2[n]1)C(C)(C)C

> <preferred_name>
Phenol, 2-(5-chloro-2H-benzotriazol-2-yl)-4,6-bis(1,1-dimethylethyl)-

> <dsstox_substance_id>
DTXSID4038893

> <dsstox_compound_id>
DTXCID2018893

> <qc_level>
DSSTox_Low

> <Canonical_QSARr>
CC(C)(C)C1C=C(C(O)=C(C=1)N1N=C2C=CC(Cl)=CC2=N1)C(C)(C)C

> <InChI_Code_QSARr>
InChI=1S/C20H24ClN3O/c1-19(2,3)12-9-14(20(4,5)6)18(25)17(10-12)24-22-15-8-7-13(21)11-16(15)23-24/h7-11,25H,1-6H3

> <InChI Key_QSARr>
UWSMKYBKUPAEJQ-UHFFFAOYSA-N

> <Salt_Solvent>


> <Salt_Solvent_ID>
0

> <MPID>
101991

> <LogKmHL>
0.72

> <Tr_1_Tst_0>
1

$$$$
100367
  Mrv171c012251910542D          

 15 14  0  0  0  0            999 V2000
    3.4185   -0.4117    0.0000 C   0  0  0  0  0  0  0  0  0  0  0  0
    2.7040   -0.8242    0.0000 C   0  0  0  0  0  0  0  0  0  0  0  0
    1.9895   -0.4117    0.0000 C   0  0  0  0  0  0  0  0  0  0  0  0
    1.2751   -0.8242    0.0000 C   0  0  0  0  0  0  0  0  0  0  0  0
    1.2751   -1.6492    0.0000 C   0  0  0  0  0  0  0  0  0  0  0  0
    0.5606   -0.4117    0.0000 C   0  0  0  0  0  0  0  0  0  0  0  0
   -0.1539   -0.8242    0.0000 C   0  0  0  0  0  0  0  0  0  0  0  0
    4.1329   -0.8242    0.0000 C   0  0  0  0  0  0  0  0  0  0  0  0
    4.1329   -1.6492    0.0000 C   0  0  0  0  0  0  0  0  0  0  0  0
    4.8474   -0.4117    0.0000 C   0  0  0  0  0  0  0  0  0  0  0  0
    5.5619   -0.8242    0.0000 C   0  0  0  0  0  0  0  0  0  0  0  0
    6.2764   -0.4117    0.0000 C   0  0  0  0  0  0  0  0  0  0  0  0
    6.9908   -0.8242    0.0000 C   0  0  0  0  0  0  0  0  0  0  0  0
    7.7053   -0.4117    0.0000 C   0  0  0  0  0  0  0  0  0  0  0  0
    6.9908   -1.6492    0.0000 C   0  0  0  0  0  0  0  0  0  0  0  0
  1  2  1  0  0  0  0
  2  3  1  0  0  0  0
  3  4  1  0  0  0  0
  4  5  1  0  0  0  0
  4  6  1  0  0  0  0
  6  7  1  0  0  0  0
  1  8  1  0  0  0  0
  8  9  1  0  0  0  0
  8 10  1  0  0  0  0
 10 11  1  0  0  0  0
 11 12  1  0  0  0  0
 12 13  1  0  0  0  0
 13 14  1  0  0  0  0
 13 15  1  0  0  0  0
M  END
> <ChemID>
100367

> <CAS>
3891-98-3

> <Original_SMILES>
CC(C)CCCC(C)CCCC(C)CC

> <preferred_name>
2,6,10-Trimethyldodecane

> <dsstox_substance_id>
DTXSID1058634

> <dsstox_compound_id>
DTXCID9032321

> <qc_level>
DSSTox_Low

> <Canonical_QSARr>
CC(C)CCCC(C)CCCC(C)CC

> <InChI_Code_QSARr>
InChI=1S/C15H32/c1-6-14(4)10-8-12-15(5)11-7-9-13(2)3/h13-15H,6-12H2,1-5H3

> <InChI Key_QSARr>
YFHFHLSMISYUAQ-UHFFFAOYSA-N

> <Salt_Solvent>


> <Salt_Solvent_ID>
0

> <MPID>
101992

> <LogKmHL>
1.36

> <Tr_1_Tst_0>
0

$$$$
100369
  Mrv171c012251910542D          

 17 17  0  0  0  0            999 V2000
    2.6156   -1.0137    0.0000 C   0  0  0  0  0  0  0  0  0  0  0  0
    1.9011   -0.6012    0.0000 C   0  0  0  0  0  0  0  0  0  0  0  0
    1.9011    0.2238    0.0000 C   0  0  0  0  0  0  0  0  0  0  0  0
    1.9011    1.0488    0.0000 C   0  0  0  0  0  0  0  0  0  0  0  0
    1.0761    0.2238    0.0000 C   0  0  0  0  0  0  0  0  0  0  0  0
    2.7261    0.2238    0.0000 C   0  0  0  0  0  0  0  0  0  0  0  0
    1.1867   -1.0137    0.0000 C   0  0  0  0  0  0  0  0  0  0  0  0
    1.1867   -1.8387    0.0000 C   0  0  0  0  0  0  0  0  0  0  0  0
    0.4722   -2.2512    0.0000 C   0  0  0  0  0  0  0  0  0  0  0  0
    0.4722   -3.0762    0.0000 C   0  0  0  0  0  0  0  0  0  0  0  0
    1.9011   -2.2512    0.0000 C   0  0  0  0  0  0  0  0  0  0  0  0
    2.6156   -1.8387    0.0000 C   0  0  0  0  0  0  0  0  0  0  0  0
    3.3301   -2.2512    0.0000 C   0  0  0  0  0  0  0  0  0  0  0  0
    4.0445   -2.6637    0.0000 C   0  0  0  0  0  0  0  0  0  0  0  0
    3.7426   -1.5367    0.0000 C   0  0  0  0  0  0  0  0  0  0  0  0
    2.9176   -2.9657    0.0000 C   0  0  0  0  0  0  0  0  0  0  0  0
    3.3301   -0.6012    0.0000 O   0  0  0  0  0  0  0  0  0  0  0  0
  2  1  1  0  0  0  0
  2  3  1  0  0  0  0
  3  4  1  0  0  0  0
  3  5  1  0  0  0  0
  3  6  1  0  0  0  0
  7  2  2  0  0  0  0
  8  7  1  0  0  0  0
  8  9  1  0  0  0  0
  9 10  1  0  0  0  0
 11  8  2  0  0  0  0
 12 11  1  0  0  0  0
  1 12  2  0  0  0  0
 12 13  1  0  0  0  0
 13 14  1  0  0  0  0
 13 15  1  0  0  0  0
 13 16  1  0  0  0  0
  1 17  1  0  0  0  0
M  END
> <ChemID>
100369

> <CAS>
4130-42-1

> <Original_SMILES>
CCc1cc(c(O)c(c1)C(C)(C)C)C(C)(C)C

> <preferred_name>
2,6-Di-tert-butyl-4-ethylphenol

> <dsstox_substance_id>
DTXSID0029262

> <dsstox_compound_id>
DTXCID909262

> <qc_level>
DSSTox_Low

> <Canonical_QSARr>
CCC1=CC(=C(O)C(=C1)C(C)(C)C)C(C)(C)C

> <InChI_Code_QSARr>
InChI=1S/C16H26O/c1-8-11-9-12(15(2,3)4)14(17)13(10-11)16(5,6)7/h9-10,17H,8H2,1-7H3

> <InChI Key_QSARr>
BVUXDWXKPROUDO-UHFFFAOYSA-N

> <Salt_Solvent>


> <Salt_Solvent_ID>
0

> <MPID>
101993

> <LogKmHL>
0.86

> <Tr_1_Tst_0>
1

$$$$
100371
  Mrv171c012251910542D          

 12 12  0  0  0  0            999 V2000
    0.0000   -0.8250    0.0000 C   0  0  0  0  0  0  0  0  0  0  0  0
    0.0000   -0.0000    0.0000 C   0  0  0  0  0  0  0  0  0  0  0  0
   -0.7145    0.4125    0.0000 C   0  0  0  0  0  0  0  0  0  0  0  0
   -1.4289   -0.0000    0.0000 C   0  0  0  0  0  0  0  0  0  0  0  0
   -1.4289   -0.8250    0.0000 C   0  0  0  0  0  0  0  0  0  0  0  0
   -0.7145   -1.2375    0.0000 C   0  0  0  0  0  0  0  0  0  0  0  0
    0.7145   -1.2375    0.0000 C   0  0  0  0  0  0  0  0  0  0  0  0
    1.4290   -0.8250    0.0000 C   0  0  0  0  0  0  0  0  0  0  0  0
    2.1434   -1.2375    0.0000 C   0  0  0  0  0  0  0  0  0  0  0  0
    2.8579   -0.8250    0.0000 C   0  0  0  0  0  0  0  0  0  0  0  0
    3.5724   -1.2375    0.0000 C   0  0  0  0  0  0  0  0  0  0  0  0
    4.2868   -0.8250    0.0000 C   0  0  0  0  0  0  0  0  0  0  0  0
  2  1  1  0  0  0  0
  3  2  1  0  0  0  0
  4  3  1  0  0  0  0
  5  4  1  0  0  0  0
  6  5  1  0  0  0  0
  1  6  1  0  0  0  0
  1  7  1  0  0  0  0
  7  8  1  0  0  0  0
  8  9  1  0  0  0  0
  9 10  1  0  0  0  0
 10 11  1  0  0  0  0
 11 12  1  0  0  0  0
M  END
> <ChemID>
100371

> <CAS>
4292-75-5

> <Original_SMILES>
CCCCCCC1CCCCC1

> <preferred_name>
Cyclohexane, hexyl-

> <dsstox_substance_id>
DTXSID7063398

> <dsstox_compound_id>
DTXCID3040192

> <qc_level>
Public_High

> <Canonical_QSARr>
CCCCCCC1CCCCC1

> <InChI_Code_QSARr>
InChI=1S/C12H24/c1-2-3-4-6-9-12-10-7-5-8-11-12/h12H,2-11H2,1H3

> <InChI Key_QSARr>
QHWAQXOSHHKCFK-UHFFFAOYSA-N

> <Salt_Solvent>


> <Salt_Solvent_ID>
0

> <MPID>
101994

> <LogKmHL>
0.7

> <Tr_1_Tst_0>
1

$$$$
100373
  Mrv171c012251910542D          

 16 15  0  0  0  0            999 V2000
    3.3973    0.6451    0.0000 C   0  0  0  0  0  0  0  0  0  0  0  0
    2.9848    1.3595    0.0000 C   0  0  0  0  0  0  0  0  0  0  0  0
    2.5723    2.0740    0.0000 C   0  0  0  0  0  0  0  0  0  0  0  0
    2.2704    0.9470    0.0000 C   0  0  0  0  0  0  0  0  0  0  0  0
    3.6993    1.7720    0.0000 C   0  0  0  0  0  0  0  0  0  0  0  0
    2.9848   -0.0694    0.0000 C   0  0  0  0  0  0  0  0  0  0  0  0
    3.3973   -0.7839    0.0000 C   0  0  0  0  0  0  0  0  0  0  0  0
    2.9848   -1.4984    0.0000 C   0  0  0  0  0  0  0  0  0  0  0  0
    2.2704   -1.0859    0.0000 C   0  0  0  0  0  0  0  0  0  0  0  0
    3.6993   -1.9109    0.0000 C   0  0  0  0  0  0  0  0  0  0  0  0
    2.5723   -2.2128    0.0000 C   0  0  0  0  0  0  0  0  0  0  0  0
    2.9848   -2.9273    0.0000 C   0  0  0  0  0  0  0  0  0  0  0  0
    3.3973   -3.6418    0.0000 C   0  0  0  0  0  0  0  0  0  0  0  0
    2.2704   -3.3398    0.0000 C   0  0  0  0  0  0  0  0  0  0  0  0
    3.6993   -2.5148    0.0000 C   0  0  0  0  0  0  0  0  0  0  0  0
    2.1598   -0.0694    0.0000 C   0  0  0  0  0  0  0  0  0  0  0  0
  1  2  1  0  0  0  0
  2  3  1  0  0  0  0
  2  4  1  0  0  0  0
  2  5  1  0  0  0  0
  1  6  1  0  0  0  0
  6  7  1  0  0  0  0
  7  8  1  0  0  0  0
  8  9  1  0  0  0  0
  8 10  1  0  0  0  0
  8 11  1  0  0  0  0
 11 12  1  0  0  0  0
 12 13  1  0  0  0  0
 12 14  1  0  0  0  0
 12 15  1  0  0  0  0
  6 16  1  0  0  0  0
M  END
> <ChemID>
100373

> <CAS>
4390-04-9

> <Original_SMILES>
CC(CC(C)(C)C)CC(C)(C)CC(C)(C)C

> <preferred_name>
2,2,4,4,6,8,8-Heptamethylnonane

> <dsstox_substance_id>
DTXSID7052101

> <dsstox_compound_id>
DTXCID5030668

> <qc_level>
DSSTox_High

> <Canonical_QSARr>
CC(CC(C)(C)C)CC(C)(C)CC(C)(C)C

> <InChI_Code_QSARr>
InChI=1S/C16H34/c1-13(10-14(2,3)4)11-16(8,9)12-15(5,6)7/h13H,10-12H2,1-9H3

> <InChI Key_QSARr>
VCLJODPNBNEBKW-UHFFFAOYSA-N

> <Salt_Solvent>


> <Salt_Solvent_ID>
0

> <MPID>
101995

> <LogKmHL>
1.81

> <Tr_1_Tst_0>
1

$$$$
100374
  Mrv171c012251910542D          

 19 21  0  0  0  0            999 V2000
    5.1848    0.6405    0.0000 O   0  0  0  0  0  0  0  0  0  0  0  0
    4.4703    0.2280    0.0000 C   0  0  0  0  0  0  0  0  0  0  0  0
    3.7558    0.6405    0.0000 C   0  0  0  0  0  0  0  0  0  0  0  0
    3.7558    1.4655    0.0000 C   0  0  0  0  0  0  0  0  0  0  0  0
    4.4703    1.8780    0.0000 C   0  0  0  0  0  0  0  0  0  0  0  0
    4.4703    2.7030    0.0000 C   0  0  0  0  0  0  0  0  0  0  0  0
    3.7558    3.1155    0.0000 C   0  0  0  0  0  0  0  0  0  0  0  0
    3.0414    2.7030    0.0000 C   0  0  0  0  0  0  0  0  0  0  0  0
    3.0414    1.8780    0.0000 C   0  0  0  0  0  0  0  0  0  0  0  0
    3.0414    0.2280    0.0000 C   0  0  0  0  0  0  0  0  0  0  0  0
    3.0414   -0.5970    0.0000 C   0  0  0  0  0  0  0  0  0  0  0  0
    3.7558   -1.0095    0.0000 C   0  0  0  0  0  0  0  0  0  0  0  0
    4.4703   -0.5970    0.0000 C   0  0  0  0  0  0  0  0  0  0  0  0
    5.1848   -1.0095    0.0000 C   0  0  0  0  0  0  0  0  0  0  0  0
    5.1848   -1.8345    0.0000 C   0  0  0  0  0  0  0  0  0  0  0  0
    5.8993   -2.2470    0.0000 C   0  0  0  0  0  0  0  0  0  0  0  0
    6.6137   -1.8345    0.0000 C   0  0  0  0  0  0  0  0  0  0  0  0
    6.6137   -1.0095    0.0000 C   0  0  0  0  0  0  0  0  0  0  0  0
    5.8993   -0.5970    0.0000 C   0  0  0  0  0  0  0  0  0  0  0  0
  1  2  1  0  0  0  0
  3  2  1  0  0  0  0
  3  4  1  0  0  0  0
  5  4  1  0  0  0  0
  6  5  1  0  0  0  0
  7  6  1  0  0  0  0
  8  7  1  0  0  0  0
  9  8  1  0  0  0  0
  4  9  1  0  0  0  0
 10  3  2  0  0  0  0
 11 10  1  0  0  0  0
 12 11  2  0  0  0  0
 13 12  1  0  0  0  0
  2 13  2  0  0  0  0
 13 14  1  0  0  0  0
 15 14  1  0  0  0  0
 16 15  1  0  0  0  0
 17 16  1  0  0  0  0
 18 17  1  0  0  0  0
 19 18  1  0  0  0  0
 14 19  1  0  0  0  0
M  END
> <ChemID>
100374

> <CAS>
4821-19-6

> <Original_SMILES>
Oc1c(cccc1C1CCCCC1)C1CCCCC1

> <preferred_name>
2,6-Dicyclohexylphenol

> <dsstox_substance_id>
DTXSID60197465

> <dsstox_compound_id>
DTXCID70119956

> <qc_level>
Public_Medium

> <Canonical_QSARr>
OC1C(=CC=CC=1C1CCCCC1)C1CCCCC1

> <InChI_Code_QSARr>
InChI=1S/C18H26O/c19-18-16(14-8-3-1-4-9-14)12-7-13-17(18)15-10-5-2-6-11-15/h7,12-15,19H,1-6,8-11H2

> <InChI Key_QSARr>
AUEZNTKYSSUTGZ-UHFFFAOYSA-N

> <Salt_Solvent>


> <Salt_Solvent_ID>
0

> <MPID>
101996

> <LogKmHL>
0.2

> <Tr_1_Tst_0>
0

$$$$
100376
  Mrv171c012251910542D          

 12 12  0  0  0  0            999 V2000
    1.4289    0.8250    0.0000 C   0  0  0  0  0  0  0  0  0  0  0  0
    2.1434    1.2375    0.0000 C   0  0  0  0  0  0  0  0  0  0  0  0
    2.8579    0.8250    0.0000 C   0  0  0  0  0  0  0  0  0  0  0  0
    2.8579   -0.0000    0.0000 C   0  0  0  0  0  0  0  0  0  0  0  0
    2.1434   -0.4125    0.0000 C   0  0  0  0  0  0  0  0  0  0  0  0
    2.1434   -1.2375    0.0000 C   0  0  0  0  0  0  0  0  0  0  0  0
    1.4289   -1.6500    0.0000 C   0  0  0  0  0  0  0  0  0  0  0  0
    0.7145   -1.2375    0.0000 C   0  0  0  0  0  0  0  0  0  0  0  0
    0.7145   -0.4125    0.0000 C   0  0  0  0  0  0  0  0  0  0  0  0
   -0.0000    0.0000    0.0000 C   0  0  0  0  0  0  0  0  0  0  0  0
   -0.0000    0.8250    0.0000 C   0  0  0  0  0  0  0  0  0  0  0  0
    0.7145    1.2375    0.0000 C   0  0  0  0  0  0  0  0  0  0  0  0
  1  2  1  0  0  0  0
  3  2  1  4  0  0  0
  3  4  2  0  0  0  0
  4  5  1  0  0  0  0
  5  6  1  0  0  0  0
  7  6  1  4  0  0  0
  7  8  2  0  0  0  0
  8  9  1  0  0  0  0
  9 10  1  0  0  0  0
 11 10  1  4  0  0  0
 11 12  2  0  0  0  0
  1 12  1  0  0  0  0
M  END
> <ChemID>
100376

> <CAS>
4904-61-4

> <Original_SMILES>
C1CC=CCCC=CCCC=C1

> <preferred_name>
1,5,9-Cyclododecatriene

> <dsstox_substance_id>
DTXSID8027581

> <dsstox_compound_id>
DTXCID5065308

> <qc_level>
DSSTox_Low

> <Canonical_QSARr>
C1CC=CCCC=CCCC=C1

> <InChI_Code_QSARr>
InChI=1S/C12H18/c1-2-4-6-8-10-12-11-9-7-5-3-1/h1-2,7-10H,3-6,11-12H2/b2-1+,9-7+,10-8+

> <InChI Key_QSARr>
ZOLLIQAKMYWTBR-FFWAUJBHSA-N

> <Salt_Solvent>


> <Salt_Solvent_ID>
0

> <MPID>
101997

> <LogKmHL>
1.74

> <Tr_1_Tst_0>
1

$$$$
100377
  Mrv171c012251910542D          

 16 17  0  0  0  0            999 V2000
    0.7145    2.0625    0.0000 C   0  0  0  0  0  0  0  0  0  0  0  0
    1.4289    2.4750    0.0000 C   0  0  0  0  0  0  0  0  0  0  0  0
    1.4289    3.3000    0.0000 C   0  0  0  0  0  0  0  0  0  0  0  0
    0.7145    3.7125    0.0000 C   0  0  0  0  0  0  0  0  0  0  0  0
    0.7145    4.5375    0.0000 C   0  0  0  0  0  0  0  0  0  0  0  0
   -0.0000    3.3000    0.0000 C   0  0  0  0  0  0  0  0  0  0  0  0
   -0.7145    3.7125    0.0000 C   0  0  0  0  0  0  0  0  0  0  0  0
   -0.0000    2.4750    0.0000 C   0  0  0  0  0  0  0  0  0  0  0  0
    0.7145    1.2375    0.0000 C   0  0  0  0  0  0  0  0  0  0  0  0
   -0.0000    0.8250    0.0000 C   0  0  0  0  0  0  0  0  0  0  0  0
   -0.0000   -0.0000    0.0000 C   0  0  0  0  0  0  0  0  0  0  0  0
    0.7145   -0.4125    0.0000 C   0  0  0  0  0  0  0  0  0  0  0  0
    0.7145   -1.2375    0.0000 C   0  0  0  0  0  0  0  0  0  0  0  0
    1.4289   -0.0000    0.0000 C   0  0  0  0  0  0  0  0  0  0  0  0
    2.1434   -0.4125    0.0000 C   0  0  0  0  0  0  0  0  0  0  0  0
    1.4289    0.8250    0.0000 C   0  0  0  0  0  0  0  0  0  0  0  0
  2  1  1  0  0  0  0
  3  2  2  0  0  0  0
  4  3  1  0  0  0  0
  4  5  1  0  0  0  0
  6  4  2  0  0  0  0
  6  7  1  0  0  0  0
  8  6  1  0  0  0  0
  1  8  2  0  0  0  0
  1  9  1  0  0  0  0
 10  9  1  0  0  0  0
 11 10  2  0  0  0  0
 12 11  1  0  0  0  0
 12 13  1  0  0  0  0
 14 12  2  0  0  0  0
 14 15  1  0  0  0  0
 16 14  1  0  0  0  0
  9 16  2  0  0  0  0
M  END
> <ChemID>
100377

> <CAS>
4920-95-0

> <Original_SMILES>
Cc1ccc(cc1C)-c1cc(C)c(C)cc1

> <preferred_name>
1,1'-Biphenyl, 3,3',4,4'-tetramethyl-

> <dsstox_substance_id>
DTXSID9074646

> <dsstox_compound_id>
DTXCID4040680

> <qc_level>
Public_High

> <Canonical_QSARr>
CC1C=CC(=CC=1C)C1=CC(C)=C(C)C=C1

> <InChI_Code_QSARr>
InChI=1S/C16H18/c1-11-5-7-15(9-13(11)3)16-8-6-12(2)14(4)10-16/h5-10H,1-4H3

> <InChI Key_QSARr>
YXBIAYXZUDJVEB-UHFFFAOYSA-N

> <Salt_Solvent>


> <Salt_Solvent_ID>
0

> <MPID>
101998

> <LogKmHL>
-0.01

> <Tr_1_Tst_0>
1

$$$$
100380
  Mrv171c012251910542D          

 26 28  0  0  0  0            999 V2000
    4.3229   -4.4937    0.0000 C   0  0  0  0  0  0  0  0  0  0  0  0
    3.6085   -4.0812    0.0000 N   0  0  0  0  0  0  0  0  0  0  0  0
    3.6085   -3.2562    0.0000 S   0  0  0  0  0  0  0  0  0  0  0  0
    3.6085   -2.4312    0.0000 C   0  0  0  0  0  0  0  0  0  0  0  0
    2.8940   -2.0187    0.0000 C   0  0  0  0  0  0  0  0  0  0  0  0
    2.8940   -1.1937    0.0000 C   0  0  0  0  0  0  0  0  0  0  0  0
    3.6085   -0.7812    0.0000 C   0  0  0  0  0  0  0  0  0  0  0  0
    3.6085    0.0438    0.0000 N   0  0  0  0  0  0  0  0  0  0  0  0
    2.8940    0.4563    0.0000 C   0  0  0  0  0  0  0  0  0  0  0  0
    2.8940    1.2813    0.0000 C   0  0  0  0  0  0  0  0  0  0  0  0
    2.1795    1.6938    0.0000 C   0  0  0  0  0  0  0  0  0  0  0  0
    1.4650    1.2813    0.0000 C   0  0  0  0  0  0  0  0  0  0  0  0
    1.4650    0.4563    0.0000 C   0  0  0  0  0  0  0  0  0  0  0  0
    2.1795    0.0438    0.0000 C   0  0  0  0  0  0  0  0  0  0  0  0
    4.3229   -1.1937    0.0000 C   0  0  0  0  0  0  0  0  0  0  0  0
    5.0374   -0.7812    0.0000 N   0  3  0  0  0  0  0  0  0  0  0  0
    5.7519   -1.1937    0.0000 O   0  0  0  0  0  0  0  0  0  0  0  0
    5.0374    0.0438    0.0000 O   0  5  0  0  0  0  0  0  0  0  0  0
    4.3229   -2.0187    0.0000 C   0  0  0  0  0  0  0  0  0  0  0  0
    2.7835   -3.2562    0.0000 O   0  0  0  0  0  0  0  0  0  0  0  0
    4.4335   -3.2562    0.0000 O   0  0  0  0  0  0  0  0  0  0  0  0
    4.3229   -5.3187    0.0000 C   0  0  0  0  0  0  0  0  0  0  0  0
    5.0374   -5.7312    0.0000 C   0  0  0  0  0  0  0  0  0  0  0  0
    5.7519   -5.3187    0.0000 C   0  0  0  0  0  0  0  0  0  0  0  0
    5.7519   -4.4937    0.0000 C   0  0  0  0  0  0  0  0  0  0  0  0
    5.0374   -4.0812    0.0000 C   0  0  0  0  0  0  0  0  0  0  0  0
  1  2  1  0  0  0  0
  2  3  1  0  0  0  0
  3  4  1  0  0  0  0
  5  4  2  0  0  0  0
  6  5  1  0  0  0  0
  7  6  2  0  0  0  0
  7  8  1  0  0  0  0
  8  9  1  0  0  0  0
 10  9  2  0  0  0  0
 11 10  1  0  0  0  0
 12 11  2  0  0  0  0
 13 12  1  0  0  0  0
 14 13  2  0  0  0  0
  9 14  1  0  0  0  0
 15  7  1  0  0  0  0
 15 16  1  0  0  0  0
 16 17  2  0  0  0  0
 16 18  1  0  0  0  0
 19 15  2  0  0  0  0
  4 19  1  0  0  0  0
  3 20  2  0  0  0  0
  3 21  2  0  0  0  0
 22  1  2  0  0  0  0
 23 22  1  0  0  0  0
 24 23  2  0  0  0  0
 25 24  1  0  0  0  0
 26 25  2  0  0  0  0
  1 26  1  0  0  0  0
M  CHG  2  16   1  18  -1
M  END
> <ChemID>
100380

> <CAS>
5124-25-4

> <Original_SMILES>
[O-][N+](=O)c1cc(ccc1Nc1ccccc1)S(=O)(=O)Nc1ccccc1

> <preferred_name>
C.I.Disperse Yellow 42

> <dsstox_substance_id>
DTXSID8052148

> <dsstox_compound_id>
DTXCID3030717

> <qc_level>
DSSTox_Low

> <Canonical_QSARr>
[O-][N+](=O)C1=CC(=CC=C1NC1C=CC=CC=1)S(=O)(=O)NC1C=CC=CC=1

> <InChI_Code_QSARr>
InChI=1S/C18H15N3O4S/c22-21(23)18-13-16(26(24,25)20-15-9-5-2-6-10-15)11-12-17(18)19-14-7-3-1-4-8-14/h1-13,19-20H

> <InChI Key_QSARr>
BBFRYSKTTHYWQZ-UHFFFAOYSA-N

> <Salt_Solvent>


> <Salt_Solvent_ID>
0

> <MPID>
102001

> <LogKmHL>
-0.66

> <Tr_1_Tst_0>
1

$$$$
100382
  Mrv171c012251910542D          

 14 16  0  0  0  0            999 V2000
    3.0328   -0.3782    0.0000 C   0  0  0  0  0  0  0  0  0  0  0  0
    3.8578   -0.3782    0.0000 C   0  0  0  0  0  0  0  0  0  0  0  0
    4.2703   -1.0926    0.0000 C   0  0  0  0  0  0  0  0  0  0  0  0
    5.0953   -1.0926    0.0000 C   0  0  0  0  0  0  0  0  0  0  0  0
    5.5078   -0.3782    0.0000 C   0  0  0  0  0  0  0  0  0  0  0  0
    5.0953    0.3363    0.0000 C   0  0  0  0  0  0  0  0  0  0  0  0
    4.2703    0.3363    0.0000 C   0  0  0  0  0  0  0  0  0  0  0  0
    3.8578    1.0508    0.0000 C   0  0  0  0  0  0  0  0  0  0  0  0
    3.0328    1.0508    0.0000 C   0  0  0  0  0  0  0  0  0  0  0  0
    2.6203    0.3363    0.0000 C   0  0  0  0  0  0  0  0  0  0  0  0
    1.7953    0.3363    0.0000 C   0  0  0  0  0  0  0  0  0  0  0  0
    1.3828   -0.3782    0.0000 C   0  0  0  0  0  0  0  0  0  0  0  0
    1.7953   -1.0926    0.0000 C   0  0  0  0  0  0  0  0  0  0  0  0
    2.6203   -1.0926    0.0000 C   0  0  0  0  0  0  0  0  0  0  0  0
  2  1  1  0  0  0  0
  2  3  1  0  0  0  0
  3  4  1  0  0  0  0
  4  5  1  0  0  0  0
  5  6  1  0  0  0  0
  6  7  1  0  0  0  0
  7  2  2  0  0  0  0
  8  7  1  0  0  0  0
  9  8  2  0  0  0  0
 10  9  1  0  0  0  0
 10  1  2  0  0  0  0
 11 10  1  0  0  0  0
 12 11  1  0  0  0  0
 13 12  1  0  0  0  0
 14 13  1  0  0  0  0
  1 14  1  0  0  0  0
M  END
> <ChemID>
100382

> <CAS>
5325-97-3

> <Original_SMILES>
C1CCCc2c3CCCCc3ccc21

> <preferred_name>
1,2,3,4,5,6,7,8-Octahydrophenanthrene

> <dsstox_substance_id>
DTXSID50201363

> <dsstox_compound_id>
DTXCID50123854

> <qc_level>
Public_Medium

> <Canonical_QSARr>
C1CCCC2C3CCCCC=3C=CC=21

> <InChI_Code_QSARr>
InChI=1S/C14H18/c1-3-7-13-11(5-1)9-10-12-6-2-4-8-14(12)13/h9-10H,1-8H2

> <InChI Key_QSARr>
YSZLFGZFQTTZIQ-UHFFFAOYSA-N

> <Salt_Solvent>


> <Salt_Solvent_ID>
0

> <MPID>
102002

> <LogKmHL>
0.76

> <Tr_1_Tst_0>
0

$$$$
100383
  Mrv171c012251910542D          

 11 11  0  0  0  0            999 V2000
    1.6887   -0.9000    0.0000 O   0  0  0  0  0  0  0  0  0  0  0  0
    1.6887   -0.0750    0.0000 N   0  3  0  0  0  0  0  0  0  0  0  0
    0.9743    0.3375    0.0000 C   0  0  0  0  0  0  0  0  0  0  0  0
    0.9743    1.1625    0.0000 C   0  0  0  0  0  0  0  0  0  0  0  0
    0.2598    1.5750    0.0000 C   0  0  0  0  0  0  0  0  0  0  0  0
    0.2598    2.4000    0.0000 O   0  0  0  0  0  0  0  0  0  0  0  0
   -0.4547    1.1625    0.0000 C   0  0  0  0  0  0  0  0  0  0  0  0
   -1.1691    1.5750    0.0000 C   0  0  0  0  0  0  0  0  0  0  0  0
   -0.4547    0.3375    0.0000 C   0  0  0  0  0  0  0  0  0  0  0  0
    0.2598   -0.0750    0.0000 C   0  0  0  0  0  0  0  0  0  0  0  0
    2.4032    0.3375    0.0000 O   0  5  0  0  0  0  0  0  0  0  0  0
  1  2  2  0  0  0  0
  2  3  1  0  0  0  0
  4  3  1  0  0  0  0
  5  4  2  0  0  0  0
  5  6  1  0  0  0  0
  7  5  1  0  0  0  0
  7  8  1  0  0  0  0
  9  7  2  0  0  0  0
 10  9  1  0  0  0  0
  3 10  2  0  0  0  0
  2 11  1  0  0  0  0
M  CHG  2   2   1  11  -1
M  END
> <ChemID>
100383

> <CAS>
5428-54-6

> <Original_SMILES>
Cc1ccc(cc1O)[N+]([O-])=O

> <preferred_name>
Phenol, 2-methyl-5-nitro-

> <dsstox_substance_id>
DTXSID4063874

> <dsstox_compound_id>
DTXCID3041661

> <qc_level>
Public_High

> <Canonical_QSARr>
CC1=CC=C(C=C1O)[N+]([O-])=O

> <InChI_Code_QSARr>
InChI=1S/C7H7NO3/c1-5-2-3-6(8(10)11)4-7(5)9/h2-4,9H,1H3

> <InChI Key_QSARr>
UMFDLIXUUJMPSI-UHFFFAOYSA-N

> <Salt_Solvent>


> <Salt_Solvent_ID>
0

> <MPID>
102003

> <LogKmHL>
-1.24

> <Tr_1_Tst_0>
1

$$$$
100384
  Mrv171c012251910542D          

 17 18  0  0  0  0            999 V2000
    2.2640   -1.8416    0.0000 O   0  0  0  0  0  0  0  0  0  0  0  0
    2.2640   -1.0166    0.0000 C   0  0  0  0  0  0  0  0  0  0  0  0
    2.9784   -0.6041    0.0000 C   0  0  0  0  0  0  0  0  0  0  0  0
    2.9784    0.2209    0.0000 C   0  0  0  0  0  0  0  0  0  0  0  0
    2.2640    0.6334    0.0000 C   0  0  0  0  0  0  0  0  0  0  0  0
    2.2640    1.4584    0.0000 Br  0  0  0  0  0  0  0  0  0  0  0  0
    1.5495    0.2209    0.0000 C   0  0  0  0  0  0  0  0  0  0  0  0
    1.5495   -0.6041    0.0000 C   0  0  0  0  0  0  0  0  0  0  0  0
    0.8350   -1.0166    0.0000 Br  0  0  0  0  0  0  0  0  0  0  0  0
    2.9784   -2.2541    0.0000 C   0  0  0  0  0  0  0  0  0  0  0  0
    2.9784   -3.0791    0.0000 C   0  0  0  0  0  0  0  0  0  0  0  0
    2.2640   -3.4916    0.0000 Br  0  0  0  0  0  0  0  0  0  0  0  0
    3.6929   -3.4916    0.0000 C   0  0  0  0  0  0  0  0  0  0  0  0
    4.4074   -3.0791    0.0000 C   0  0  0  0  0  0  0  0  0  0  0  0
    5.1219   -3.4916    0.0000 Br  0  0  0  0  0  0  0  0  0  0  0  0
    4.4074   -2.2541    0.0000 C   0  0  0  0  0  0  0  0  0  0  0  0
    3.6929   -1.8416    0.0000 C   0  0  0  0  0  0  0  0  0  0  0  0
  1  2  1  0  0  0  0
  3  2  1  0  0  0  0
  4  3  2  0  0  0  0
  5  4  1  0  0  0  0
  5  6  1  0  0  0  0
  7  5  2  0  0  0  0
  8  7  1  0  0  0  0
  2  8  2  0  0  0  0
  8  9  1  0  0  0  0
  1 10  1  0  0  0  0
 11 10  1  0  0  0  0
 11 12  1  0  0  0  0
 13 11  2  0  0  0  0
 14 13  1  0  0  0  0
 14 15  1  0  0  0  0
 16 14  2  0  0  0  0
 17 16  1  0  0  0  0
 10 17  2  0  0  0  0
M  END
> <ChemID>
100384

> <CAS>
5436-43-1

> <Original_SMILES>
Brc1cc(Br)c(cc1)Oc1ccc(Br)cc1Br

> <preferred_name>
2,2'4,4'-Tetrabromodiphenyl ether

> <dsstox_substance_id>
DTXSID3030056

> <dsstox_compound_id>
DTXCID1010056

> <qc_level>
DSSTox_Low

> <Canonical_QSARr>
BrC1C=C(Br)C=CC=1OC1=CC=C(Br)C=C1Br

> <InChI_Code_QSARr>
InChI=1S/C12H6Br4O/c13-7-1-3-11(9(15)5-7)17-12-4-2-8(14)6-10(12)16/h1-6H

> <InChI Key_QSARr>
XYBSIYMGXVUVGY-UHFFFAOYSA-N

> <Salt_Solvent>


> <Salt_Solvent_ID>
0

> <MPID>
102004

> <LogKmHL>
1.6

> <Tr_1_Tst_0>
1

$$$$
100385
  Mrv171c012251910542D          

 15 15  0  0  0  0            999 V2000
    3.0517   -0.9337    0.0000 C   0  0  0  0  0  0  0  0  0  0  0  0
    2.3372   -0.5212    0.0000 C   0  0  0  0  0  0  0  0  0  0  0  0
    2.3372    0.3038    0.0000 C   0  0  0  0  0  0  0  0  0  0  0  0
    3.0517    0.7163    0.0000 C   0  0  0  0  0  0  0  0  0  0  0  0
    1.6227    0.7163    0.0000 C   0  0  0  0  0  0  0  0  0  0  0  0
    1.6227    1.5413    0.0000 C   0  0  0  0  0  0  0  0  0  0  0  0
    1.6227   -0.9337    0.0000 C   0  0  0  0  0  0  0  0  0  0  0  0
    1.6227   -1.7587    0.0000 C   0  0  0  0  0  0  0  0  0  0  0  0
    2.3372   -2.1712    0.0000 C   0  0  0  0  0  0  0  0  0  0  0  0
    3.0517   -1.7587    0.0000 C   0  0  0  0  0  0  0  0  0  0  0  0
    3.7661   -2.1712    0.0000 C   0  0  0  0  0  0  0  0  0  0  0  0
    4.4806   -1.7587    0.0000 C   0  0  0  0  0  0  0  0  0  0  0  0
    3.7661   -2.9962    0.0000 C   0  0  0  0  0  0  0  0  0  0  0  0
    4.4806   -3.4087    0.0000 C   0  0  0  0  0  0  0  0  0  0  0  0
    3.7661   -0.5212    0.0000 O   0  0  0  0  0  0  0  0  0  0  0  0
  2  1  1  0  0  0  0
  2  3  1  0  0  0  0
  3  4  1  0  0  0  0
  3  5  1  0  0  0  0
  5  6  1  0  0  0  0
  7  2  2  0  0  0  0
  8  7  1  0  0  0  0
  9  8  2  0  0  0  0
 10  9  1  0  0  0  0
  1 10  2  0  0  0  0
 10 11  1  0  0  0  0
 11 12  1  0  0  0  0
 11 13  1  0  0  0  0
 13 14  1  0  0  0  0
  1 15  1  0  0  0  0
M  END
> <ChemID>
100385

> <CAS>
5510-99-6

> <Original_SMILES>
CC(CC)c1cccc(C(C)CC)c1O

> <preferred_name>
2,6-Di(butan-2-yl)phenol

> <dsstox_substance_id>
DTXSID0044440

> <dsstox_compound_id>
DTXCID8024440

> <qc_level>
DSSTox_Low

> <Canonical_QSARr>
CC(CC)C1=CC=CC(C(C)CC)=C1O

> <InChI_Code_QSARr>
InChI=1S/C14H22O/c1-5-10(3)12-8-7-9-13(14(12)15)11(4)6-2/h7-11,15H,5-6H2,1-4H3

> <InChI Key_QSARr>
FHTGJZOULSYEOB-UHFFFAOYSA-N

> <Salt_Solvent>


> <Salt_Solvent_ID>
0

> <MPID>
102005

> <LogKmHL>
-0.22

> <Tr_1_Tst_0>
0

$$$$
100386
  Mrv171c012251910542D          

 18 20  0  0  0  0            999 V2000
    1.4064    0.9634    0.0000 C   0  0  0  0  0  0  0  0  0  0  0  0
    1.8859    0.2921    0.0000 C   0  0  0  0  0  0  0  0  0  0  0  0
    2.6495    0.7421    0.0000 Cl  0  0  0  0  0  0  0  0  0  0  0  0
    2.6129   -0.2075    0.0000 Cl  0  0  0  0  0  0  0  0  0  0  0  0
    1.3955   -0.3714    0.0000 C   0  0  0  0  0  0  0  0  0  0  0  0
    0.5005   -0.0790    0.0000 C   0  0  0  0  0  0  0  0  0  0  0  0
    0.5073    0.7460    0.0000 C   0  0  0  0  0  0  0  0  0  0  0  0
   -0.0914    1.1332    0.0000 C   0  0  0  0  0  0  0  0  0  0  0  0
   -0.8092    0.7265    0.0000 C   0  0  0  0  0  0  0  0  0  0  0  0
   -1.5622    1.1457    0.0000 Cl  0  0  0  0  0  0  0  0  0  0  0  0
   -0.8159   -0.0984    0.0000 C   0  0  0  0  0  0  0  0  0  0  0  0
   -1.5785   -0.5041    0.0000 Cl  0  0  0  0  0  0  0  0  0  0  0  0
   -0.1048   -0.5167    0.0000 C   0  0  0  0  0  0  0  0  0  0  0  0
   -0.3125   -1.3673    0.0000 Cl  0  0  0  0  0  0  0  0  0  0  0  0
    0.1082    0.3066    0.0000 C   0  0  0  0  0  0  0  0  0  0  0  0
    0.7249   -0.5866    0.0000 Cl  0  0  0  0  0  0  0  0  0  0  0  0
    1.0534    0.6543    0.0000 Cl  0  0  0  0  0  0  0  0  0  0  0  0
   -0.2559    1.9829    0.0000 Cl  0  0  0  0  0  0  0  0  0  0  0  0
  2  1  1  0  0  0  0
  2  3  1  0  0  0  0
  2  4  1  0  0  0  0
  5  2  1  0  0  0  0
  6  5  1  0  0  0  0
  6  7  1  0  0  0  0
  1  7  1  0  0  0  0
  7  8  1  0  0  0  0
  9  8  1  0  0  0  0
  9 10  1  0  0  0  0
 11  9  2  0  0  0  0
 11 12  1  0  0  0  0
 13 11  1  0  0  0  0
 13  6  1  0  0  0  0
 13 14  1  0  0  0  0
 15 13  1  0  0  0  0
  8 15  1  0  0  0  0
 15 16  1  0  0  0  0
 15 17  1  0  0  0  0
  8 18  1  0  0  0  0
M  END
> <ChemID>
100386

> <CAS>
5566-34-7

> <Original_SMILES>
ClC1(Cl)CC2C(C1)C1(Cl)C(Cl)=C(Cl)C2(Cl)C1(Cl)Cl

> <preferred_name>
2,2,4,5,6,7,8,8-Octachloro-2,3,3a,4,7,7a-hexahydro-4,7-methano-1H-indene

> <dsstox_substance_id>
DTXSID10858938

> <dsstox_compound_id>
DTXCID10811528

> <qc_level>
DSSTox_Low

> <Canonical_QSARr>
ClC1(Cl)CC2C(C1)C1(Cl)C(Cl)=C(Cl)C2(Cl)C1(Cl)Cl

> <InChI_Code_QSARr>
InChI=1S/C10H6Cl8/c11-5-6(12)9(16)4-2-7(13,14)1-3(4)8(5,15)10(9,17)18/h3-4H,1-2H2

> <InChI Key_QSARr>
JBZJEPYXXVKOKF-UHFFFAOYSA-N

> <Salt_Solvent>


> <Salt_Solvent_ID>
0

> <MPID>
102006

> <LogKmHL>
2.23

> <Tr_1_Tst_0>
1

$$$$
100387
  Mrv171c012251910542D          

 13 13  0  0  0  0            999 V2000
    1.4226   -0.4151    0.0000 C   0  0  0  0  0  0  0  0  0  0  0  0
    0.7081   -0.0026    0.0000 C   0  0  0  0  0  0  0  0  0  0  0  0
   -0.0064   -0.4151    0.0000 C   0  0  0  0  0  0  0  0  0  0  0  0
   -0.0064   -1.2401    0.0000 C   0  0  0  0  0  0  0  0  0  0  0  0
    0.7081   -1.6526    0.0000 C   0  0  0  0  0  0  0  0  0  0  0  0
    1.4226   -1.2401    0.0000 C   0  0  0  0  0  0  0  0  0  0  0  0
    2.1371   -0.0026    0.0000 C   0  0  0  0  0  0  0  0  0  0  0  0
    2.8515   -0.4151    0.0000 C   0  0  0  0  0  0  0  0  0  0  0  0
    3.5660   -0.0026    0.0000 C   0  0  0  0  0  0  0  0  0  0  0  0
    4.2805   -0.4151    0.0000 C   0  0  0  0  0  0  0  0  0  0  0  0
    4.9949   -0.0026    0.0000 C   0  0  0  0  0  0  0  0  0  0  0  0
    5.7094   -0.4151    0.0000 C   0  0  0  0  0  0  0  0  0  0  0  0
    6.4239   -0.0026    0.0000 C   0  0  0  0  0  0  0  0  0  0  0  0
  2  1  1  0  0  0  0
  3  2  1  0  0  0  0
  4  3  1  0  0  0  0
  5  4  1  0  0  0  0
  6  5  1  0  0  0  0
  1  6  1  0  0  0  0
  1  7  1  0  0  0  0
  7  8  1  0  0  0  0
  8  9  1  0  0  0  0
  9 10  1  0  0  0  0
 10 11  1  0  0  0  0
 11 12  1  0  0  0  0
 12 13  1  0  0  0  0
M  END
> <ChemID>
100387

> <CAS>
5617-41-4

> <Original_SMILES>
CCCCCCCC1CCCCC1

> <preferred_name>
Heptylcyclohexane

> <dsstox_substance_id>
DTXSID1058636

> <dsstox_compound_id>
DTXCID9032323

> <qc_level>
DSSTox_Low

> <Canonical_QSARr>
CCCCCCCC1CCCCC1

> <InChI_Code_QSARr>
InChI=1S/C13H26/c1-2-3-4-5-7-10-13-11-8-6-9-12-13/h13H,2-12H2,1H3

> <InChI Key_QSARr>
MSTLSCNJAHAQNU-UHFFFAOYSA-N

> <Salt_Solvent>


> <Salt_Solvent_ID>
0

> <MPID>
102007

> <LogKmHL>
0.17

> <Tr_1_Tst_0>
1

$$$$
100388
  Mrv171c012251910542D          

 14 15  0  0  0  0            999 V2000
    0.7145    2.0626    0.0000 C   0  0  0  0  0  0  0  0  0  0  0  0
    1.4290    2.4751    0.0000 C   0  0  0  0  0  0  0  0  0  0  0  0
    1.4290    3.3001    0.0000 C   0  0  0  0  0  0  0  0  0  0  0  0
    0.7145    3.7126    0.0000 C   0  0  0  0  0  0  0  0  0  0  0  0
    0.7145    4.5376    0.0000 C   0  0  0  0  0  0  0  0  0  0  0  0
    0.0000    4.9501    0.0000 C   0  0  0  0  0  0  0  0  0  0  0  0
    0.0000    3.3001    0.0000 C   0  0  0  0  0  0  0  0  0  0  0  0
    0.0000    2.4751    0.0000 C   0  0  0  0  0  0  0  0  0  0  0  0
    0.7145    1.2376    0.0000 C   0  0  0  0  0  0  0  0  0  0  0  0
    0.0000    0.8251    0.0000 C   0  0  0  0  0  0  0  0  0  0  0  0
    0.0000    0.0001    0.0000 C   0  0  0  0  0  0  0  0  0  0  0  0
    0.7145   -0.4124    0.0000 C   0  0  0  0  0  0  0  0  0  0  0  0
    1.4290    0.0001    0.0000 C   0  0  0  0  0  0  0  0  0  0  0  0
    1.4290    0.8251    0.0000 C   0  0  0  0  0  0  0  0  0  0  0  0
  2  1  1  0  0  0  0
  3  2  2  0  0  0  0
  4  3  1  0  0  0  0
  4  5  1  0  0  0  0
  5  6  1  0  0  0  0
  7  4  2  0  0  0  0
  8  7  1  0  0  0  0
  1  8  2  0  0  0  0
  1  9  1  0  0  0  0
 10  9  1  0  0  0  0
 11 10  2  0  0  0  0
 12 11  1  0  0  0  0
 13 12  2  0  0  0  0
 14 13  1  0  0  0  0
  9 14  2  0  0  0  0
M  END
> <ChemID>
100388

> <CAS>
5707-44-8

> <Original_SMILES>
CCc1ccc(cc1)-c1ccccc1

> <preferred_name>
1,1'-Biphenyl, 4-ethyl-

> <dsstox_substance_id>
DTXSID7073355

> <dsstox_compound_id>
DTXCID0042163

> <qc_level>
Public_High

> <Canonical_QSARr>
CCC1C=CC(=CC=1)C1C=CC=CC=1

> <InChI_Code_QSARr>
InChI=1S/C14H14/c1-2-12-8-10-14(11-9-12)13-6-4-3-5-7-13/h3-11H,2H2,1H3

> <InChI Key_QSARr>
SRQOBNUBCLPPPH-UHFFFAOYSA-N

> <Salt_Solvent>


> <Salt_Solvent_ID>
0

> <MPID>
102008

> <LogKmHL>
0.06

> <Tr_1_Tst_0>
1

$$$$
100389
  Mrv171c012251910542D          

 13 12  0  0  0  0            999 V2000
    4.8309   -2.2825    0.0000 C   0  0  0  0  0  0  0  0  0  0  0  0
    4.8309   -1.4575    0.0000 C   0  0  0  0  0  0  0  0  0  0  0  0
    4.1164   -1.0450    0.0000 C   0  0  0  0  0  0  0  0  0  0  0  0
    3.4019   -1.4575    0.0000 C   0  0  0  0  0  0  0  0  0  0  0  0
    2.6875   -1.0450    0.0000 C   0  0  0  0  0  0  0  0  0  0  0  0
    1.9730   -1.4575    0.0000 C   0  0  0  0  0  0  0  0  0  0  0  0
    1.2585   -1.0450    0.0000 C   0  0  0  0  0  0  0  0  0  0  0  0
    0.5441   -1.4575    0.0000 C   0  0  0  0  0  0  0  0  0  0  0  0
   -0.1704   -1.0450    0.0000 C   0  0  0  0  0  0  0  0  0  0  0  0
   -0.8849   -1.4575    0.0000 C   0  0  0  0  0  0  0  0  0  0  0  0
    5.5454   -1.0450    0.0000 C   0  0  0  0  0  0  0  0  0  0  0  0
    6.2598   -1.4575    0.0000 C   0  0  0  0  0  0  0  0  0  0  0  0
    6.9743   -1.0450    0.0000 C   0  0  0  0  0  0  0  0  0  0  0  0
  1  2  1  0  0  0  0
  2  3  1  0  0  0  0
  3  4  1  0  0  0  0
  4  5  1  0  0  0  0
  5  6  1  0  0  0  0
  6  7  1  0  0  0  0
  7  8  1  0  0  0  0
  8  9  1  0  0  0  0
  9 10  1  0  0  0  0
  2 11  1  0  0  0  0
 11 12  1  0  0  0  0
 12 13  1  0  0  0  0
M  END
> <ChemID>
100389

> <CAS>
6117-97-1

> <Original_SMILES>
CCCCCCCCC(C)CCC

> <preferred_name>
4-Methyldodecane

> <dsstox_substance_id>
DTXSID1058638

> <dsstox_compound_id>
DTXCID9032325

> <qc_level>
DSSTox_Low

> <Canonical_QSARr>
CCCCCCCCC(C)CCC

> <InChI_Code_QSARr>
InChI=1S/C13H28/c1-4-6-7-8-9-10-12-13(3)11-5-2/h13H,4-12H2,1-3H3

> <InChI Key_QSARr>
UZTXSMATBUWDDZ-UHFFFAOYSA-N

> <Salt_Solvent>


> <Salt_Solvent_ID>
0

> <MPID>
102009

> <LogKmHL>
0.98

> <Tr_1_Tst_0>
0

$$$$
100390
  Mrv171c012251910542D          

 16 17  0  0  0  0            999 V2000
    1.7139   -3.0679    0.0000 C   0  0  0  0  0  0  0  0  0  0  0  0
    2.4283   -2.6554    0.0000 C   0  0  0  0  0  0  0  0  0  0  0  0
    0.9994   -2.6554    0.0000 C   0  0  0  0  0  0  0  0  0  0  0  0
    0.9994   -1.8304    0.0000 C   0  0  0  0  0  0  0  0  0  0  0  0
    1.7139   -1.4179    0.0000 C   0  0  0  0  0  0  0  0  0  0  0  0
    2.4283   -1.8304    0.0000 C   0  0  0  0  0  0  0  0  0  0  0  0
    3.1428   -1.4179    0.0000 C   0  0  0  0  0  0  0  0  0  0  0  0
    3.1428   -0.5929    0.0000 C   0  0  0  0  0  0  0  0  0  0  0  0
    2.4283   -0.1804    0.0000 C   0  0  0  0  0  0  0  0  0  0  0  0
    1.7139   -0.5929    0.0000 C   0  0  0  0  0  0  0  0  0  0  0  0
    0.2849   -1.4179    0.0000 C   0  0  0  0  0  0  0  0  0  0  0  0
    0.2849   -3.0679    0.0000 C   0  0  0  0  0  0  0  0  0  0  0  0
    0.2849   -3.8929    0.0000 C   0  0  0  0  0  0  0  0  0  0  0  0
   -0.4296   -4.3054    0.0000 C   0  0  0  0  0  0  0  0  0  0  0  0
    0.9994   -4.3054    0.0000 C   0  0  0  0  0  0  0  0  0  0  0  0
    1.7139   -3.8929    0.0000 C   0  0  0  0  0  0  0  0  0  0  0  0
  1  2  1  0  0  0  0
  3  1  1  0  0  0  0
  3  4  1  0  0  0  0
  4  5  1  0  0  0  0
  6  5  1  0  0  0  0
  7  6  2  0  0  0  0
  8  7  1  0  0  0  0
  9  8  2  0  0  0  0
 10  9  1  0  0  0  0
  5 10  2  0  0  0  0
  4 11  1  0  0  0  0
 12  3  2  0  0  0  0
 13 12  1  0  0  0  0
 13 14  1  0  0  0  0
 15 13  2  0  0  0  0
 16 15  1  0  0  0  0
  1 16  2  0  0  0  0
M  END
> <ChemID>
100390

> <CAS>
6165-51-1

> <Original_SMILES>
Cc1cc(C(C)c2ccccc2)c(C)cc1

> <preferred_name>


> <dsstox_substance_id>
DTXSID30879781

> <dsstox_compound_id>
DTXCID101017788

> <qc_level>


> <Canonical_QSARr>
CC1C=C(C(C)C2C=CC=CC=2)C(C)=CC=1

> <InChI_Code_QSARr>
InChI=1S/C16H18/c1-12-9-10-13(2)16(11-12)14(3)15-7-5-4-6-8-15/h4-11,14H,1-3H3

> <InChI Key_QSARr>
FRAOOIFTSMORED-UHFFFAOYSA-N

> <Salt_Solvent>


> <Salt_Solvent_ID>
0

> <MPID>
102010

> <LogKmHL>
0.1

> <Tr_1_Tst_0>
1

$$$$
100391
  Mrv171c012251910542D          

 10 10  0  0  0  0            999 V2000
    1.4289   -0.0000    0.0000 C   0  0  0  0  0  0  0  0  0  0  0  0
    2.1434   -0.4125    0.0000 C   0  0  0  0  0  0  0  0  0  0  0  0
    1.4289    0.8250    0.0000 C   0  0  0  0  0  0  0  0  0  0  0  0
    0.7145    1.2375    0.0000 C   0  0  0  0  0  0  0  0  0  0  0  0
    0.7145    2.0625    0.0000 Cl  0  0  0  0  0  0  0  0  0  0  0  0
   -0.0000    0.8250    0.0000 C   0  0  0  0  0  0  0  0  0  0  0  0
   -0.7145    1.2375    0.0000 Cl  0  0  0  0  0  0  0  0  0  0  0  0
   -0.0000    0.0000    0.0000 C   0  0  0  0  0  0  0  0  0  0  0  0
    0.7145   -0.4125    0.0000 C   0  0  0  0  0  0  0  0  0  0  0  0
    0.7145   -1.2375    0.0000 Cl  0  0  0  0  0  0  0  0  0  0  0  0
  1  2  1  0  0  0  0
  3  1  1  0  0  0  0
  4  3  2  0  0  0  0
  4  5  1  0  0  0  0
  6  4  1  0  0  0  0
  6  7  1  0  0  0  0
  8  6  2  0  0  0  0
  9  8  1  0  0  0  0
  1  9  2  0  0  0  0
  9 10  1  0  0  0  0
M  END
> <ChemID>
100391

> <CAS>
6639-30-1

> <Original_SMILES>
Cc1cc(Cl)c(Cl)cc1Cl

> <preferred_name>
2,4,5-Trichlorotoluene

> <dsstox_substance_id>
DTXSID8064434

> <dsstox_compound_id>
DTXCID1044801

> <qc_level>
Public_High

> <Canonical_QSARr>
CC1C=C(Cl)C(Cl)=CC=1Cl

> <InChI_Code_QSARr>
InChI=1S/C7H5Cl3/c1-4-2-6(9)7(10)3-5(4)8/h2-3H,1H3

> <InChI Key_QSARr>
ZCXHZKNWIYVQNC-UHFFFAOYSA-N

> <Salt_Solvent>


> <Salt_Solvent_ID>
0

> <MPID>
102011

> <LogKmHL>
2.01

> <Tr_1_Tst_0>
1

$$$$
100393
  Mrv171c012251910542D          

 11 10  0  0  0  0            999 V2000
   -2.4988   -0.0225    0.0000 C   0  0  0  0  0  0  0  0  0  0  0  0
   -3.2133   -0.4350    0.0000 C   0  0  0  0  0  0  0  0  0  0  0  0
   -1.7844   -0.4350    0.0000 C   0  0  0  0  0  0  0  0  0  0  0  0
   -1.0699   -0.0225    0.0000 C   0  0  0  0  0  0  0  0  0  0  0  0
   -0.3554   -0.4350    0.0000 C   0  0  0  0  0  0  0  0  0  0  0  0
    0.3590   -0.0225    0.0000 C   0  0  0  0  0  0  0  0  0  0  0  0
    1.0735   -0.4350    0.0000 C   0  0  0  0  0  0  0  0  0  0  0  0
    1.7880   -0.0225    0.0000 C   0  0  0  0  0  0  0  0  0  0  0  0
    2.5025   -0.4350    0.0000 C   0  0  0  0  0  0  0  0  0  0  0  0
    3.2169   -0.0225    0.0000 C   0  0  0  0  0  0  0  0  0  0  0  0
    2.5025   -1.2600    0.0000 C   0  0  0  0  0  0  0  0  0  0  0  0
  1  2  1  0  0  0  0
  1  3  1  0  0  0  0
  3  4  1  0  0  0  0
  4  5  1  0  0  0  0
  5  6  1  0  0  0  0
  6  7  1  0  0  0  0
  7  8  1  0  0  0  0
  8  9  1  0  0  0  0
  9 10  1  0  0  0  0
  9 11  1  0  0  0  0
M  END
> <ChemID>
100393

> <CAS>
6975-98-0

> <Original_SMILES>
CCCCCCCCC(C)C

> <preferred_name>
2-Methyldecane

> <dsstox_substance_id>
DTXSID2058677

> <dsstox_compound_id>
DTXCID708713

> <qc_level>
DSSTox_High

> <Canonical_QSARr>
CCCCCCCCC(C)C

> <InChI_Code_QSARr>
InChI=1S/C11H24/c1-4-5-6-7-8-9-10-11(2)3/h11H,4-10H2,1-3H3

> <InChI Key_QSARr>
CNPVJWYWYZMPDS-UHFFFAOYSA-N

> <Salt_Solvent>


> <Salt_Solvent_ID>
0

> <MPID>
102012

> <LogKmHL>
0.1

> <Tr_1_Tst_0>
1

$$$$
100394
  Mrv171c012251910542D          

 15 16  0  0  0  0            999 V2000
    3.4818   -0.5312    0.0000 C   0  0  0  0  0  0  0  0  0  0  0  0
    4.1963   -0.9437    0.0000 Cl  0  0  0  0  0  0  0  0  0  0  0  0
    3.4818    0.2938    0.0000 C   0  0  0  0  0  0  0  0  0  0  0  0
    2.7673    0.7063    0.0000 C   0  0  0  0  0  0  0  0  0  0  0  0
    2.7673    1.5313    0.0000 Cl  0  0  0  0  0  0  0  0  0  0  0  0
    2.0528    0.2938    0.0000 C   0  0  0  0  0  0  0  0  0  0  0  0
    2.0528   -0.5312    0.0000 C   0  0  0  0  0  0  0  0  0  0  0  0
    2.7673   -0.9437    0.0000 C   0  0  0  0  0  0  0  0  0  0  0  0
    2.7673   -1.7687    0.0000 C   0  0  0  0  0  0  0  0  0  0  0  0
    2.0528   -2.1812    0.0000 C   0  0  0  0  0  0  0  0  0  0  0  0
    2.0528   -3.0062    0.0000 C   0  0  0  0  0  0  0  0  0  0  0  0
    2.7673   -3.4187    0.0000 C   0  0  0  0  0  0  0  0  0  0  0  0
    2.7673   -4.2437    0.0000 Cl  0  0  0  0  0  0  0  0  0  0  0  0
    3.4818   -3.0062    0.0000 C   0  0  0  0  0  0  0  0  0  0  0  0
    3.4818   -2.1812    0.0000 C   0  0  0  0  0  0  0  0  0  0  0  0
  1  2  1  0  0  0  0
  3  1  1  0  0  0  0
  4  3  2  0  0  0  0
  4  5  1  0  0  0  0
  6  4  1  0  0  0  0
  7  6  2  0  0  0  0
  8  7  1  0  0  0  0
  1  8  2  0  0  0  0
  8  9  1  0  0  0  0
 10  9  2  0  0  0  0
 11 10  1  0  0  0  0
 12 11  2  0  0  0  0
 12 13  1  0  0  0  0
 14 12  1  0  0  0  0
 15 14  2  0  0  0  0
  9 15  1  0  0  0  0
M  END
> <ChemID>
100394

> <CAS>
7012-37-5

> <Original_SMILES>
Clc1cc(Cl)ccc1-c1ccc(Cl)cc1

> <preferred_name>
2,4,4'-Trichlorobiphenyl

> <dsstox_substance_id>
DTXSID2038310

> <dsstox_compound_id>
DTXCID0018310

> <qc_level>
DSSTox_Low

> <Canonical_QSARr>
ClC1=CC(Cl)=C(C=C1)C1C=CC(Cl)=CC=1

> <InChI_Code_QSARr>
InChI=1S/C12H7Cl3/c13-9-3-1-8(2-4-9)11-6-5-10(14)7-12(11)15/h1-7H

> <InChI Key_QSARr>
BZTYNSQSZHARAZ-UHFFFAOYSA-N

> <Salt_Solvent>


> <Salt_Solvent_ID>
0

> <MPID>
102013

> <LogKmHL>
1.88

> <Tr_1_Tst_0>
0

$$$$
100396
  Mrv171c012251910542D          

 17 18  0  0  0  0            999 V2000
   -1.4289   -4.1250    0.0000 C   0  0  0  0  0  0  0  0  0  0  0  0
   -0.7145   -3.7125    0.0000 C   0  0  0  0  0  0  0  0  0  0  0  0
   -0.0000   -4.1250    0.0000 C   0  0  0  0  0  0  0  0  0  0  0  0
    0.7145   -3.7125    0.0000 C   0  0  0  0  0  0  0  0  0  0  0  0
    1.4289   -4.1250    0.0000 C   0  0  0  0  0  0  0  0  0  0  0  0
    2.1434   -3.7125    0.0000 C   0  0  0  0  0  0  0  0  0  0  0  0
   -2.1434   -3.7125    0.0000 C   0  0  0  0  0  0  0  0  0  0  0  0
   -2.8579   -4.1250    0.0000 C   0  0  0  0  0  0  0  0  0  0  0  0
   -2.8579   -4.9500    0.0000 C   0  0  0  0  0  0  0  0  0  0  0  0
   -3.5724   -5.3625    0.0000 C   0  0  0  0  0  0  0  0  0  0  0  0
   -4.2868   -4.9500    0.0000 C   0  0  0  0  0  0  0  0  0  0  0  0
   -5.0013   -5.3625    0.0000 C   0  0  0  0  0  0  0  0  0  0  0  0
   -5.0013   -6.1875    0.0000 C   0  0  0  0  0  0  0  0  0  0  0  0
   -4.2868   -6.6000    0.0000 C   0  0  0  0  0  0  0  0  0  0  0  0
   -3.5724   -6.1875    0.0000 C   0  0  0  0  0  0  0  0  0  0  0  0
   -2.1434   -5.3625    0.0000 C   0  0  0  0  0  0  0  0  0  0  0  0
   -1.4289   -4.9500    0.0000 C   0  0  0  0  0  0  0  0  0  0  0  0
  1  2  1  0  0  0  0
  2  3  1  0  0  0  0
  3  4  1  0  0  0  0
  4  5  1  0  0  0  0
  5  6  1  0  0  0  0
  7  1  1  0  0  0  0
  8  7  2  0  0  0  0
  9  8  1  0  0  0  0
  9 10  1  0  0  0  0
 11 10  1  0  0  0  0
 12 11  2  0  0  0  0
 13 12  1  0  0  0  0
 14 13  2  0  0  0  0
 15 14  1  0  0  0  0
 10 15  2  0  0  0  0
 16  9  2  0  0  0  0
 17 16  1  0  0  0  0
  1 17  2  0  0  0  0
M  END
> <ChemID>
100396

> <CAS>
7116-96-3

> <Original_SMILES>
CCCCCc1ccc(cc1)-c1ccccc1

> <preferred_name>
1,1'-Biphenyl, 4-pentyl-

> <dsstox_substance_id>
DTXSID3064566

> <dsstox_compound_id>
DTXCID6046923

> <qc_level>
Public_High

> <Canonical_QSARr>
CCCCCC1C=CC(=CC=1)C1C=CC=CC=1

> <InChI_Code_QSARr>
InChI=1S/C17H20/c1-2-3-5-8-15-11-13-17(14-12-15)16-9-6-4-7-10-16/h4,6-7,9-14H,2-3,5,8H2,1H3

> <InChI Key_QSARr>
IFUOTAQBVGAZPR-UHFFFAOYSA-N

> <Salt_Solvent>


> <Salt_Solvent_ID>
0

> <MPID>
102014

> <LogKmHL>
0.03

> <Tr_1_Tst_0>
1

$$$$
100397
  Mrv171c012251910542D          

 18 20  0  0  0  0            999 V2000
    3.7279    1.0980    0.0000 C   0  0  0  0  0  0  0  0  0  0  0  0
    4.5529    1.0980    0.0000 C   0  0  0  0  0  0  0  0  0  0  0  0
    4.9654    0.3836    0.0000 C   0  0  0  0  0  0  0  0  0  0  0  0
    5.7904    0.3836    0.0000 C   0  0  0  0  0  0  0  0  0  0  0  0
    6.2029   -0.3309    0.0000 C   0  0  0  0  0  0  0  0  0  0  0  0
    5.7904   -1.0454    0.0000 C   0  0  0  0  0  0  0  0  0  0  0  0
    4.9654   -1.0454    0.0000 C   0  0  0  0  0  0  0  0  0  0  0  0
    4.5529   -0.3309    0.0000 C   0  0  0  0  0  0  0  0  0  0  0  0
    3.7279   -0.3309    0.0000 C   0  0  0  0  0  0  0  0  0  0  0  0
    3.3154   -1.0454    0.0000 C   0  0  0  0  0  0  0  0  0  0  0  0
    2.4904   -1.0454    0.0000 C   0  0  0  0  0  0  0  0  0  0  0  0
    2.0779   -0.3309    0.0000 C   0  0  0  0  0  0  0  0  0  0  0  0
    2.4904    0.3836    0.0000 C   0  0  0  0  0  0  0  0  0  0  0  0
    3.3154    0.3836    0.0000 C   0  0  0  0  0  0  0  0  0  0  0  0
    3.3154    1.8125    0.0000 C   0  0  0  0  0  0  0  0  0  0  0  0
    2.4904    1.8125    0.0000 C   0  0  0  0  0  0  0  0  0  0  0  0
    2.0779    2.5270    0.0000 C   0  0  0  0  0  0  0  0  0  0  0  0
    1.2529    2.5270    0.0000 C   0  0  0  0  0  0  0  0  0  0  0  0
  2  1  2  0  0  0  0
  3  2  1  0  0  0  0
  3  4  2  0  0  0  0
  4  5  1  0  0  0  0
  5  6  2  0  0  0  0
  6  7  1  0  0  0  0
  7  8  2  0  0  0  0
  8  3  1  0  0  0  0
  9  8  1  0  0  0  0
  9 10  2  0  0  0  0
 10 11  1  0  0  0  0
 11 12  2  0  0  0  0
 12 13  1  0  0  0  0
 13 14  2  0  0  0  0
  1 14  1  0  0  0  0
 14  9  1  0  0  0  0
  1 15  1  0  0  0  0
 15 16  1  0  0  0  0
 16 17  1  0  0  0  0
 17 18  1  0  0  0  0
M  END
> <ChemID>
100397

> <CAS>
10394-57-7

> <Original_SMILES>
CCCCc1cc2ccccc2c2ccccc21

> <preferred_name>
9-Butylphenanthrene

> <dsstox_substance_id>
DTXSID00345600

> <dsstox_compound_id>
DTXCID50296673

> <qc_level>
Public_Low

> <Canonical_QSARr>
CCCCC1=CC2=CC=CC=C2C2=CC=CC=C21

> <InChI_Code_QSARr>
InChI=1S/C18H18/c1-2-3-8-14-13-15-9-4-5-10-17(15)18-12-7-6-11-16(14)18/h4-7,9-13H,2-3,8H2,1H3

> <InChI Key_QSARr>
BBQLNZRCZBCVPI-UHFFFAOYSA-N

> <Salt_Solvent>


> <Salt_Solvent_ID>
0

> <MPID>
102015

> <LogKmHL>
0.29

> <Tr_1_Tst_0>
1

$$$$
100399
  Mrv171c012251910542D          

  7  6  0  0  0  0            999 V2000
    1.6467   -1.5359    0.0000 C   0  0  0  0  0  0  0  0  0  0  0  0
    2.4717   -1.5359    0.0000 Cl  0  0  0  0  0  0  0  0  0  0  0  0
    1.2342   -0.8214    0.0000 C   0  0  0  0  0  0  0  0  0  0  0  0
    1.9487   -0.4089    0.0000 Cl  0  0  0  0  0  0  0  0  0  0  0  0
    0.5197   -1.2339    0.0000 Cl  0  0  0  0  0  0  0  0  0  0  0  0
    0.8217   -0.1069    0.0000 C   0  0  0  0  0  0  0  0  0  0  0  0
   -0.0033   -0.1069    0.0000 Cl  0  0  0  0  0  0  0  0  0  0  0  0
  1  2  1  0  0  0  0
  1  3  1  0  0  0  0
  3  4  1  0  0  0  0
  3  5  1  0  0  0  0
  3  6  1  0  0  0  0
  6  7  1  0  0  0  0
M  END
> <ChemID>
100399

> <CAS>
13116-53-5

> <Original_SMILES>
ClC(Cl)(CCl)CCl

> <preferred_name>
1,2,2,3-Tetrachloropropane

> <dsstox_substance_id>
DTXSID5051656

> <dsstox_compound_id>
DTXCID9030208

> <qc_level>
DSSTox_Low

> <Canonical_QSARr>
ClC(Cl)(CCl)CCl

> <InChI_Code_QSARr>
InChI=1S/C3H4Cl4/c4-1-3(6,7)2-5/h1-2H2

> <InChI Key_QSARr>
UDPHJTAYHSSOQB-UHFFFAOYSA-N

> <Salt_Solvent>


> <Salt_Solvent_ID>
0

> <MPID>
102017

> <LogKmHL>
-0.28

> <Tr_1_Tst_0>
1

$$$$
100400
  Mrv171c012251910542D          

 12 11  0  0  0  0            999 V2000
    0.0310   -0.7591    0.0000 C   0  0  0  0  0  0  0  0  0  0  0  0
    0.7455   -0.3466    0.0000 C   0  0  0  0  0  0  0  0  0  0  0  0
    0.7455    0.4784    0.0000 C   0  0  0  0  0  0  0  0  0  0  0  0
    1.4600   -0.7591    0.0000 C   0  0  0  0  0  0  0  0  0  0  0  0
    2.1744   -0.3466    0.0000 C   0  0  0  0  0  0  0  0  0  0  0  0
    2.8889   -0.7591    0.0000 C   0  0  0  0  0  0  0  0  0  0  0  0
    3.6034   -0.3466    0.0000 C   0  0  0  0  0  0  0  0  0  0  0  0
    3.6034    0.4784    0.0000 C   0  0  0  0  0  0  0  0  0  0  0  0
    4.3178   -0.7591    0.0000 C   0  0  0  0  0  0  0  0  0  0  0  0
    5.0323   -0.3466    0.0000 C   0  0  0  0  0  0  0  0  0  0  0  0
    5.7468   -0.7591    0.0000 C   0  0  0  0  0  0  0  0  0  0  0  0
    6.4612   -0.3466    0.0000 C   0  0  0  0  0  0  0  0  0  0  0  0
  1  2  1  0  0  0  0
  2  3  1  0  0  0  0
  2  4  1  0  0  0  0
  4  5  1  0  0  0  0
  5  6  1  0  0  0  0
  6  7  1  0  0  0  0
  7  8  1  0  0  0  0
  7  9  1  0  0  0  0
  9 10  1  0  0  0  0
 10 11  1  0  0  0  0
 11 12  1  0  0  0  0
M  END
> <ChemID>
100400

> <CAS>
13150-81-7

> <Original_SMILES>
CC(C)CCCC(C)CCCC

> <preferred_name>


> <dsstox_substance_id>
DTXSID60864367

> <dsstox_compound_id>
DTXCID10812893

> <qc_level>


> <Canonical_QSARr>
CC(C)CCCC(C)CCCC

> <InChI_Code_QSARr>
InChI=1S/C12H26/c1-5-6-9-12(4)10-7-8-11(2)3/h11-12H,5-10H2,1-4H3

> <InChI Key_QSARr>
DHJGXZWEQBKLNV-UHFFFAOYSA-N

> <Salt_Solvent>


> <Salt_Solvent_ID>
0

> <MPID>
102018

> <LogKmHL>
0.32

> <Tr_1_Tst_0>
0

$$$$
100402
  Mrv171c012251910542D          

 25 27  0  0  0  0            999 V2000
    0.9742   -3.0434    0.0000 C   0  0  0  0  0  0  0  0  0  0  0  0
    0.9742   -3.8684    0.0000 C   0  0  0  0  0  0  0  0  0  0  0  0
    0.2598   -4.2809    0.0000 C   0  0  0  0  0  0  0  0  0  0  0  0
    1.6887   -4.2809    0.0000 C   0  0  0  0  0  0  0  0  0  0  0  0
    0.2598   -2.6309    0.0000 C   0  0  0  0  0  0  0  0  0  0  0  0
    0.2598   -1.8059    0.0000 C   0  0  0  0  0  0  0  0  0  0  0  0
    0.9742   -1.3934    0.0000 C   0  0  0  0  0  0  0  0  0  0  0  0
    0.9742   -0.5684    0.0000 C   0  0  0  0  0  0  0  0  0  0  0  0
    0.8367   -1.9434    0.0000 C   0  0  0  0  0  0  0  0  0  0  0  0
    0.8367   -2.4934    0.0000 C   0  0  0  0  0  0  0  0  0  0  0  0
    1.6887   -1.8059    0.0000 C   0  0  0  0  0  0  0  0  0  0  0  0
    2.4733   -1.5509    0.0000 C   0  0  0  0  0  0  0  0  0  0  0  0
    2.7283   -0.7663    0.0000 O   0  0  0  0  0  0  0  0  0  0  0  0
    2.9582   -2.2184    0.0000 N   0  0  0  0  0  0  0  0  0  0  0  0
    3.7832   -2.2184    0.0000 C   0  0  0  0  0  0  0  0  0  0  0  0
    4.1957   -1.5039    0.0000 C   0  0  0  0  0  0  0  0  0  0  0  0
    3.7832   -0.7894    0.0000 C   0  0  0  0  0  0  0  0  0  0  0  0
    4.1957   -0.0750    0.0000 C   0  0  0  0  0  0  0  0  0  0  0  0
    5.0207   -1.5039    0.0000 C   0  0  0  0  0  0  0  0  0  0  0  0
    5.4332   -0.7894    0.0000 C   0  0  0  0  0  0  0  0  0  0  0  0
    6.2582   -0.7894    0.0000 C   0  0  0  0  0  0  0  0  0  0  0  0
    6.6707   -0.0750    0.0000 C   0  0  0  0  0  0  0  0  0  0  0  0
    2.4733   -2.8858    0.0000 C   0  0  0  0  0  0  0  0  0  0  0  0
    2.7283   -3.6704    0.0000 O   0  0  0  0  0  0  0  0  0  0  0  0
    1.6887   -2.6309    0.0000 C   0  0  0  0  0  0  0  0  0  0  0  0
  1  2  1  0  0  0  0
  2  3  1  0  0  0  0
  2  4  1  0  0  0  0
  5  1  1  0  0  0  0
  6  5  2  0  0  0  0
  7  6  1  0  0  0  0
  7  8  1  0  0  0  0
  7  9  1  0  0  0  0
  9 10  1  0  0  0  0
 10  1  1  0  0  0  0
 11  7  1  0  0  0  0
 11 12  1  0  0  0  0
 12 13  2  0  0  0  0
 12 14  1  0  0  0  0
 14 15  1  0  0  0  0
 15 16  1  0  0  0  0
 16 17  1  0  0  0  0
 17 18  1  0  0  0  0
 16 19  1  0  0  0  0
 19 20  1  0  0  0  0
 20 21  1  0  0  0  0
 21 22  1  0  0  0  0
 14 23  1  0  0  0  0
 23 24  2  0  0  0  0
 23 25  1  0  0  0  0
  1 25  1  0  0  0  0
 25 11  1  0  0  0  0
M  END
> <ChemID>
100402

> <CAS>
13358-11-7

> <Original_SMILES>
CC12CCC(C=C1)(C1C2C(=O)N(CC(CCCC)CC)C1=O)C(C)C

> <preferred_name>
N-(2-Ethylhexyl)-1-isopropyl-4-methylbiclyclo[2:2:2]oct-5-ene-2,3-dicarboximide

> <dsstox_substance_id>
DTXSID9042176

> <dsstox_compound_id>
DTXCID7022176

> <qc_level>
DSSTox_Low

> <Canonical_QSARr>
CC12CCC(C=C1)(C1C2C(=O)N(CC(CCCC)CC)C1=O)C(C)C

> <InChI_Code_QSARr>
InChI=1S/C22H35NO2/c1-6-8-9-16(7-2)14-23-19(24)17-18(20(23)25)22(15(3)4)12-10-21(17,5)11-13-22/h10,12,15-18H,6-9,11,13-14H2,1-5H3

> <InChI Key_QSARr>
MVKYQJHRHHQPDM-UHFFFAOYSA-N

> <Salt_Solvent>


> <Salt_Solvent_ID>
0

> <MPID>
102019

> <LogKmHL>
0.31

> <Tr_1_Tst_0>
1

$$$$
100403
  Mrv171c012251910542D          

 12 11  0  0  0  0            999 V2000
    0.7159   -2.5464    0.0000 C   0  0  0  0  0  0  0  0  0  0  0  0
    1.4304   -2.1339    0.0000 C   0  0  0  0  0  0  0  0  0  0  0  0
    1.8429   -2.8484    0.0000 C   0  0  0  0  0  0  0  0  0  0  0  0
    1.0179   -1.4195    0.0000 C   0  0  0  0  0  0  0  0  0  0  0  0
    2.1449   -1.7214    0.0000 C   0  0  0  0  0  0  0  0  0  0  0  0
    2.1449   -0.8964    0.0000 C   0  0  0  0  0  0  0  0  0  0  0  0
    1.4304   -0.4839    0.0000 C   0  0  0  0  0  0  0  0  0  0  0  0
    2.8593   -0.4839    0.0000 C   0  0  0  0  0  0  0  0  0  0  0  0
    2.8593    0.3411    0.0000 C   0  0  0  0  0  0  0  0  0  0  0  0
    2.8593    1.1661    0.0000 C   0  0  0  0  0  0  0  0  0  0  0  0
    3.6843    0.3411    0.0000 C   0  0  0  0  0  0  0  0  0  0  0  0
    2.0343    0.3411    0.0000 C   0  0  0  0  0  0  0  0  0  0  0  0
  1  2  1  0  0  0  0
  2  3  1  0  0  0  0
  2  4  1  0  0  0  0
  2  5  1  0  0  0  0
  5  6  1  0  0  0  0
  6  7  1  0  0  0  0
  6  8  1  0  0  0  0
  8  9  1  0  0  0  0
  9 10  1  0  0  0  0
  9 11  1  0  0  0  0
  9 12  1  0  0  0  0
M  END
> <ChemID>
100403

> <CAS>
13475-82-6

> <Original_SMILES>
CC(CC(C)(C)C)CC(C)(C)C

> <preferred_name>
2,2,4,6,6-Pentamethylheptane

> <dsstox_substance_id>
DTXSID0042034

> <dsstox_compound_id>
DTXCID8022034

> <qc_level>
DSSTox_Low

> <Canonical_QSARr>
CC(CC(C)(C)C)CC(C)(C)C

> <InChI_Code_QSARr>
InChI=1S/C12H26/c1-10(8-11(2,3)4)9-12(5,6)7/h10H,8-9H2,1-7H3

> <InChI Key_QSARr>
VKPSKYDESGTTFR-UHFFFAOYSA-N

> <Salt_Solvent>


> <Salt_Solvent_ID>
0

> <MPID>
102020

> <LogKmHL>
0.72

> <Tr_1_Tst_0>
1

$$$$
100404
  Mrv171c012251910542D          

 15 16  0  0  0  0            999 V2000
    3.1266   -0.4950    0.0000 C   0  0  0  0  0  0  0  0  0  0  0  0
    3.1266    0.3300    0.0000 C   0  0  0  0  0  0  0  0  0  0  0  0
    2.4122    0.7425    0.0000 C   0  0  0  0  0  0  0  0  0  0  0  0
    2.4122    1.5675    0.0000 C   0  0  0  0  0  0  0  0  0  0  0  0
    1.6977    0.3300    0.0000 C   0  0  0  0  0  0  0  0  0  0  0  0
    1.6977   -0.4950    0.0000 C   0  0  0  0  0  0  0  0  0  0  0  0
    2.4122   -0.9075    0.0000 C   0  0  0  0  0  0  0  0  0  0  0  0
    2.4122   -1.7325    0.0000 C   0  0  0  0  0  0  0  0  0  0  0  0
    3.8411   -0.9075    0.0000 C   0  0  0  0  0  0  0  0  0  0  0  0
    4.5556   -0.4950    0.0000 C   0  0  0  0  0  0  0  0  0  0  0  0
    5.2701   -0.9075    0.0000 C   0  0  0  0  0  0  0  0  0  0  0  0
    5.9845   -0.4950    0.0000 C   0  0  0  0  0  0  0  0  0  0  0  0
    5.9845    0.3300    0.0000 C   0  0  0  0  0  0  0  0  0  0  0  0
    5.2701    0.7425    0.0000 C   0  0  0  0  0  0  0  0  0  0  0  0
    4.5556    0.3300    0.0000 C   0  0  0  0  0  0  0  0  0  0  0  0
  2  1  1  0  0  0  0
  3  2  2  0  0  0  0
  3  4  1  0  0  0  0
  5  3  1  0  0  0  0
  6  5  2  0  0  0  0
  7  6  1  0  0  0  0
  1  7  2  0  0  0  0
  7  8  1  0  0  0  0
  1  9  1  0  0  0  0
  9 10  1  0  0  0  0
 11 10  1  0  0  0  0
 12 11  2  0  0  0  0
 13 12  1  0  0  0  0
 14 13  2  0  0  0  0
 15 14  1  0  0  0  0
 10 15  2  0  0  0  0
M  END
> <ChemID>
100404

> <CAS>
13540-50-6

> <Original_SMILES>
Cc1cc(Cc2ccccc2)c(C)cc1

> <preferred_name>
2,5-Dimethyldiphenylmethane

> <dsstox_substance_id>
DTXSID10159331

> <dsstox_compound_id>
DTXCID2081822

> <qc_level>
Public_Medium

> <Canonical_QSARr>
CC1C=CC(C)=CC=1CC1C=CC=CC=1

> <InChI_Code_QSARr>
InChI=1S/C15H16/c1-12-8-9-13(2)15(10-12)11-14-6-4-3-5-7-14/h3-10H,11H2,1-2H3

> <InChI Key_QSARr>
LJBGURBFHJJQQU-UHFFFAOYSA-N

> <Salt_Solvent>


> <Salt_Solvent_ID>
0

> <MPID>
102021

> <LogKmHL>
0.45

> <Tr_1_Tst_0>
1

$$$$
100405
  Mrv171c012251910542D          

 17 16  0  0  0  0            999 V2000
    2.7303   -2.0944    0.0000 O   0  0  0  0  0  0  0  0  0  0  0  0
    2.3178   -2.8089    0.0000 P   0  0  0  0  0  0  0  0  0  0  0  0
    1.6034   -2.3964    0.0000 O   0  0  0  0  0  0  0  0  0  0  0  0
    1.6034   -1.5714    0.0000 C   0  0  0  0  0  0  0  0  0  0  0  0
    0.8889   -1.1589    0.0000 C   0  0  0  0  0  0  0  0  0  0  0  0
    2.3178   -1.1589    0.0000 C   0  0  0  0  0  0  0  0  0  0  0  0
    2.3178   -0.3339    0.0000 Cl  0  0  0  0  0  0  0  0  0  0  0  0
    3.0323   -3.2214    0.0000 O   0  0  0  0  0  0  0  0  0  0  0  0
    3.7468   -2.8089    0.0000 C   0  0  0  0  0  0  0  0  0  0  0  0
    3.7468   -1.9839    0.0000 C   0  0  0  0  0  0  0  0  0  0  0  0
    4.4612   -3.2214    0.0000 C   0  0  0  0  0  0  0  0  0  0  0  0
    5.1757   -2.8089    0.0000 Cl  0  0  0  0  0  0  0  0  0  0  0  0
    1.9053   -3.5234    0.0000 O   0  0  0  0  0  0  0  0  0  0  0  0
    1.0803   -3.5234    0.0000 C   0  0  0  0  0  0  0  0  0  0  0  0
    0.6678   -2.8089    0.0000 C   0  0  0  0  0  0  0  0  0  0  0  0
    0.6678   -4.2379    0.0000 C   0  0  0  0  0  0  0  0  0  0  0  0
   -0.1572   -4.2379    0.0000 Cl  0  0  0  0  0  0  0  0  0  0  0  0
  1  2  2  0  0  0  0
  2  3  1  0  0  0  0
  3  4  1  0  0  0  0
  4  5  1  0  0  0  0
  4  6  1  0  0  0  0
  6  7  1  0  0  0  0
  2  8  1  0  0  0  0
  8  9  1  0  0  0  0
  9 10  1  0  0  0  0
  9 11  1  0  0  0  0
 11 12  1  0  0  0  0
  2 13  1  0  0  0  0
 13 14  1  0  0  0  0
 14 15  1  0  0  0  0
 14 16  1  0  0  0  0
 16 17  1  0  0  0  0
M  END
> <ChemID>
100405

> <CAS>
13674-84-5

> <Original_SMILES>
CC(CCl)OP(=O)(OC(C)CCl)OC(C)CCl

> <preferred_name>
Tris(2-chloroisopropyl)phosphate

> <dsstox_substance_id>
DTXSID5026259

> <dsstox_compound_id>
DTXCID106259

> <qc_level>
DSSTox_High

> <Canonical_QSARr>
CC(CCl)OP(=O)(OC(C)CCl)OC(C)CCl

> <InChI_Code_QSARr>
InChI=1S/C9H18Cl3O4P/c1-7(4-10)14-17(13,15-8(2)5-11)16-9(3)6-12/h7-9H,4-6H2,1-3H3

> <InChI Key_QSARr>
KVMPUXDNESXNOH-UHFFFAOYSA-N

> <Salt_Solvent>


> <Salt_Solvent_ID>
0

> <MPID>
102022

> <LogKmHL>
-1.31

> <Tr_1_Tst_0>
0

$$$$
100406
  Mrv171c012251910542D          

 20 19  0  0  0  0            999 V2000
    4.5936   -3.9095    0.0000 O   0  0  0  0  0  0  0  0  0  0  0  0
    4.1811   -4.6240    0.0000 P   0  0  0  0  0  0  0  0  0  0  0  0
    3.4667   -4.2115    0.0000 O   0  0  0  0  0  0  0  0  0  0  0  0
    3.4667   -3.3865    0.0000 C   0  0  0  0  0  0  0  0  0  0  0  0
    4.1811   -2.9740    0.0000 C   0  0  0  0  0  0  0  0  0  0  0  0
    4.1811   -2.1490    0.0000 Cl  0  0  0  0  0  0  0  0  0  0  0  0
    2.7522   -2.9740    0.0000 C   0  0  0  0  0  0  0  0  0  0  0  0
    2.7522   -2.1490    0.0000 Cl  0  0  0  0  0  0  0  0  0  0  0  0
    4.8956   -5.0365    0.0000 O   0  0  0  0  0  0  0  0  0  0  0  0
    5.6101   -4.6240    0.0000 C   0  0  0  0  0  0  0  0  0  0  0  0
    6.3245   -5.0365    0.0000 C   0  0  0  0  0  0  0  0  0  0  0  0
    7.0390   -4.6240    0.0000 Cl  0  0  0  0  0  0  0  0  0  0  0  0
    5.6101   -3.7990    0.0000 C   0  0  0  0  0  0  0  0  0  0  0  0
    6.3245   -3.3865    0.0000 Cl  0  0  0  0  0  0  0  0  0  0  0  0
    3.7686   -5.3385    0.0000 O   0  0  0  0  0  0  0  0  0  0  0  0
    2.9436   -5.3385    0.0000 C   0  0  0  0  0  0  0  0  0  0  0  0
    2.5311   -4.6240    0.0000 C   0  0  0  0  0  0  0  0  0  0  0  0
    2.9436   -3.9095    0.0000 Cl  0  0  0  0  0  0  0  0  0  0  0  0
    2.5311   -6.0530    0.0000 C   0  0  0  0  0  0  0  0  0  0  0  0
    1.7061   -6.0530    0.0000 Cl  0  0  0  0  0  0  0  0  0  0  0  0
  1  2  2  0  0  0  0
  2  3  1  0  0  0  0
  3  4  1  0  0  0  0
  4  5  1  0  0  0  0
  5  6  1  0  0  0  0
  4  7  1  0  0  0  0
  7  8  1  0  0  0  0
  2  9  1  0  0  0  0
  9 10  1  0  0  0  0
 10 11  1  0  0  0  0
 11 12  1  0  0  0  0
 10 13  1  0  0  0  0
 13 14  1  0  0  0  0
  2 15  1  0  0  0  0
 15 16  1  0  0  0  0
 16 17  1  0  0  0  0
 17 18  1  0  0  0  0
 16 19  1  0  0  0  0
 19 20  1  0  0  0  0
M  END
> <ChemID>
100406

> <CAS>
13674-87-8

> <Original_SMILES>
O=P(OC(CCl)CCl)(OC(CCl)CCl)OC(CCl)CCl

> <preferred_name>
TDCPP

> <dsstox_substance_id>
DTXSID9026261

> <dsstox_compound_id>
DTXCID206261

> <qc_level>
DSSTox_High

> <Canonical_QSARr>
O=P(OC(CCl)CCl)(OC(CCl)CCl)OC(CCl)CCl

> <InChI_Code_QSARr>
InChI=1S/C9H15Cl6O4P/c10-1-7(2-11)17-20(16,18-8(3-12)4-13)19-9(5-14)6-15/h7-9H,1-6H2

> <InChI Key_QSARr>
ASLWPAWFJZFCKF-UHFFFAOYSA-N

> <Salt_Solvent>


> <Salt_Solvent_ID>
0

> <MPID>
102023

> <LogKmHL>
-0.52

> <Tr_1_Tst_0>
1

$$$$
100407
  Mrv171c012251910542D          

 21 23  0  0  0  0            999 V2000
    0.7145   -4.2232    0.0000 C   0  0  0  0  0  0  0  0  0  0  0  0
    1.4289   -4.6357    0.0000 C   0  0  0  0  0  0  0  0  0  0  0  0
    2.1434   -4.2232    0.0000 C   0  0  0  0  0  0  0  0  0  0  0  0
    2.8579   -4.6357    0.0000 C   0  0  0  0  0  0  0  0  0  0  0  0
    3.5723   -4.2232    0.0000 C   0  0  0  0  0  0  0  0  0  0  0  0
    4.2868   -4.6357    0.0000 C   0  0  0  0  0  0  0  0  0  0  0  0
    5.0013   -4.2232    0.0000 C   0  0  0  0  0  0  0  0  0  0  0  0
    5.7158   -4.6357    0.0000 C   0  0  0  0  0  0  0  0  0  0  0  0
    2.1434   -3.3982    0.0000 C   0  0  0  0  0  0  0  0  0  0  0  0
    1.4289   -2.9857    0.0000 C   0  0  0  0  0  0  0  0  0  0  0  0
    0.7145   -3.3982    0.0000 C   0  0  0  0  0  0  0  0  0  0  0  0
   -0.0000   -2.9857    0.0000 C   0  0  0  0  0  0  0  0  0  0  0  0
   -0.0000   -2.1607    0.0000 O   0  0  0  0  0  0  0  0  0  0  0  0
   -0.7145   -3.3982    0.0000 C   0  0  0  0  0  0  0  0  0  0  0  0
   -0.7145   -4.2232    0.0000 C   0  0  0  0  0  0  0  0  0  0  0  0
   -1.4289   -4.6357    0.0000 C   0  0  0  0  0  0  0  0  0  0  0  0
   -2.1434   -4.2232    0.0000 C   0  0  0  0  0  0  0  0  0  0  0  0
   -2.1434   -3.3982    0.0000 C   0  0  0  0  0  0  0  0  0  0  0  0
   -1.4289   -2.9857    0.0000 C   0  0  0  0  0  0  0  0  0  0  0  0
   -0.0000   -4.6357    0.0000 C   0  0  0  0  0  0  0  0  0  0  0  0
   -0.0000   -5.4607    0.0000 O   0  0  0  0  0  0  0  0  0  0  0  0
  2  1  1  0  0  0  0
  3  2  2  0  0  0  0
  3  4  1  0  0  0  0
  4  5  1  0  0  0  0
  5  6  1  0  0  0  0
  6  7  1  0  0  0  0
  7  8  1  0  0  0  0
  9  3  1  0  0  0  0
 10  9  2  0  0  0  0
 11 10  1  0  0  0  0
 11  1  2  0  0  0  0
 12 11  1  0  0  0  0
 12 13  2  0  0  0  0
 14 12  1  0  0  0  0
 14 15  1  0  0  0  0
 15 16  2  0  0  0  0
 16 17  1  0  0  0  0
 17 18  2  0  0  0  0
 18 19  1  0  0  0  0
 19 14  2  0  0  0  0
 20 15  1  0  0  0  0
  1 20  1  0  0  0  0
 20 21  2  0  0  0  0
M  END
> <ChemID>
100407

> <CAS>
13936-21-5

> <Original_SMILES>
CCCCCc1cc2c(cc1)C(=O)c1ccccc1C2=O

> <preferred_name>
9,10-Anthracenedione, 2-pentyl-

> <dsstox_substance_id>
DTXSID1065681

> <dsstox_compound_id>
DTXCID0034518

> <qc_level>
Public_High

> <Canonical_QSARr>
CCCCCC1=CC2=C(C=C1)C(=O)C1=CC=CC=C1C2=O

> <InChI_Code_QSARr>
InChI=1S/C19H18O2/c1-2-3-4-7-13-10-11-16-17(12-13)19(21)15-9-6-5-8-14(15)18(16)20/h5-6,8-12H,2-4,7H2,1H3

> <InChI Key_QSARr>
UMWZLYTVXQBTTE-UHFFFAOYSA-N

> <Salt_Solvent>


> <Salt_Solvent_ID>
0

> <MPID>
102024

> <LogKmHL>
0.2

> <Tr_1_Tst_0>
1

$$$$
100408
  Mrv171c012251910542D          

 19 19  0  0  0  0            999 V2000
    3.5724    5.3625    0.0000 C   0  0  0  0  0  0  0  0  0  0  0  0
    2.8579    4.9500    0.0000 C   0  0  0  0  0  0  0  0  0  0  0  0
    2.8579    4.1250    0.0000 O   0  0  0  0  0  0  0  0  0  0  0  0
    2.1434    3.7125    0.0000 P   0  0  0  0  0  0  0  0  0  0  0  0
    1.7309    4.4270    0.0000 S   0  0  0  0  0  0  0  0  0  0  0  0
    1.4289    3.3000    0.0000 O   0  0  0  0  0  0  0  0  0  0  0  0
    1.4289    2.4750    0.0000 N   0  0  0  0  0  0  0  0  0  0  0  0
    0.7145    2.0625    0.0000 C   0  0  0  0  0  0  0  0  0  0  0  0
    0.0000    2.4750    0.0000 C   0  0  0  0  0  0  0  0  0  0  0  0
   -0.7145    2.8875    0.0000 N   0  0  0  0  0  0  0  0  0  0  0  0
    0.7145    1.2375    0.0000 C   0  0  0  0  0  0  0  0  0  0  0  0
    1.4289    0.8250    0.0000 C   0  0  0  0  0  0  0  0  0  0  0  0
    1.4289   -0.0000    0.0000 C   0  0  0  0  0  0  0  0  0  0  0  0
    0.7145   -0.4125    0.0000 C   0  0  0  0  0  0  0  0  0  0  0  0
    0.0000    0.0000    0.0000 C   0  0  0  0  0  0  0  0  0  0  0  0
    0.0000    0.8250    0.0000 C   0  0  0  0  0  0  0  0  0  0  0  0
    2.5559    2.9980    0.0000 O   0  0  0  0  0  0  0  0  0  0  0  0
    2.1434    2.2836    0.0000 C   0  0  0  0  0  0  0  0  0  0  0  0
    2.5559    1.5691    0.0000 C   0  0  0  0  0  0  0  0  0  0  0  0
  1  2  1  0  0  0  0
  2  3  1  0  0  0  0
  3  4  1  0  0  0  0
  4  5  2  0  0  0  0
  4  6  1  0  0  0  0
  7  6  1  4  0  0  0
  7  8  2  0  0  0  0
  8  9  1  0  0  0  0
  9 10  3  0  0  0  0
  8 11  1  0  0  0  0
 11 12  1  0  0  0  0
 12 13  2  0  0  0  0
 13 14  1  0  0  0  0
 14 15  2  0  0  0  0
 15 16  1  0  0  0  0
 11 16  2  0  0  0  0
  4 17  1  0  0  0  0
 17 18  1  0  0  0  0
 18 19  1  0  0  0  0
M  END
> <ChemID>
100408

> <CAS>
14816-18-3

> <Original_SMILES>
CCOP(=S)(O/N=C(\C#N)/c1ccccc1)OCC

> <preferred_name>
Phoxim

> <dsstox_substance_id>
DTXSID8034324

> <dsstox_compound_id>
DTXCID6014324

> <qc_level>
DSSTox_Low

> <Canonical_QSARr>
CCOP(=S)(ON=C(C#N)C1C=CC=CC=1)OCC

> <InChI_Code_QSARr>
InChI=1S/C12H15N2O3PS/c1-3-15-18(19,16-4-2)17-14-12(10-13)11-8-6-5-7-9-11/h5-9H,3-4H2,1-2H3

> <InChI Key_QSARr>
ATROHALUCMTWTB-UHFFFAOYSA-N

> <Salt_Solvent>


> <Salt_Solvent_ID>
0

> <MPID>
102025

> <LogKmHL>
0.84

> <Tr_1_Tst_0>
1

$$$$
100410
  Mrv171c012251910542D          

 18 20  0  0  0  0            999 V2000
    5.1839    0.4125    0.0000 C   0  0  0  0  0  0  0  0  0  0  0  0
    5.8983    0.8250    0.0000 C   0  0  0  0  0  0  0  0  0  0  0  0
    6.6128    0.4125    0.0000 C   0  0  0  0  0  0  0  0  0  0  0  0
    7.3273    0.8250    0.0000 C   0  0  0  0  0  0  0  0  0  0  0  0
    6.6128   -0.4125    0.0000 C   0  0  0  0  0  0  0  0  0  0  0  0
    7.3273   -0.8250    0.0000 C   0  0  0  0  0  0  0  0  0  0  0  0
    5.8983   -0.8250    0.0000 C   0  0  0  0  0  0  0  0  0  0  0  0
    5.1839   -0.4125    0.0000 C   0  0  0  0  0  0  0  0  0  0  0  0
    4.4694   -0.8250    0.0000 C   0  0  0  0  0  0  0  0  0  0  0  0
    3.7549   -0.4125    0.0000 C   0  0  0  0  0  0  0  0  0  0  0  0
    3.0405   -0.8250    0.0000 C   0  0  0  0  0  0  0  0  0  0  0  0
    2.3260   -0.4125    0.0000 C   0  0  0  0  0  0  0  0  0  0  0  0
    1.6115   -0.8250    0.0000 C   0  0  0  0  0  0  0  0  0  0  0  0
    2.3260    0.4125    0.0000 C   0  0  0  0  0  0  0  0  0  0  0  0
    1.6115    0.8250    0.0000 C   0  0  0  0  0  0  0  0  0  0  0  0
    3.0405    0.8250    0.0000 C   0  0  0  0  0  0  0  0  0  0  0  0
    3.7549    0.4125    0.0000 C   0  0  0  0  0  0  0  0  0  0  0  0
    4.4694    0.8250    0.0000 C   0  0  0  0  0  0  0  0  0  0  0  0
  2  1  1  0  0  0  0
  3  2  2  0  0  0  0
  3  4  1  0  0  0  0
  5  3  1  0  0  0  0
  5  6  1  0  0  0  0
  7  5  2  0  0  0  0
  8  7  1  0  0  0  0
  8  1  1  0  0  0  0
  9  8  2  0  0  0  0
 10  9  1  0  0  0  0
 10 11  2  0  0  0  0
 11 12  1  0  0  0  0
 12 13  1  0  0  0  0
 12 14  2  0  0  0  0
 14 15  1  0  0  0  0
 14 16  1  0  0  0  0
 16 17  2  0  0  0  0
 17 10  1  0  0  0  0
 18 17  1  0  0  0  0
  1 18  2  0  0  0  0
M  END
> <ChemID>
100410

> <CAS>
15254-25-8

> <Original_SMILES>
Cc1cc2cc3cc(C)c(C)cc3cc2cc1C

> <preferred_name>
2,3,6,7-tetramethylanthracene

> <dsstox_substance_id>
DTXSID70372701

> <dsstox_compound_id>
DTXCID70323733

> <qc_level>
Public_Low

> <Canonical_QSARr>
CC1C=C2C=C3C=C(C)C(C)=CC3=CC2=CC=1C

> <InChI_Code_QSARr>
InChI=1S/C18H18/c1-11-5-15-9-17-7-13(3)14(4)8-18(17)10-16(15)6-12(11)2/h5-10H,1-4H3

> <InChI Key_QSARr>
JGJWRGCEYNJFQJ-UHFFFAOYSA-N

> <Salt_Solvent>


> <Salt_Solvent_ID>
0

> <MPID>
102026

> <LogKmHL>
0.59

> <Tr_1_Tst_0>
0

$$$$
100411
  Mrv171c012251910542D          

 10 10  0  0  0  0            999 V2000
    2.2215   -1.3695    0.0000 Cl  0  0  0  0  0  0  0  0  0  0  0  0
    2.9360   -0.9570    0.0000 C   0  0  0  0  0  0  0  0  0  0  0  0
    3.6504   -1.3695    0.0000 C   0  0  0  0  0  0  0  0  0  0  0  0
    4.3649   -0.9570    0.0000 C   0  0  0  0  0  0  0  0  0  0  0  0
    4.3649   -0.1320    0.0000 C   0  0  0  0  0  0  0  0  0  0  0  0
    3.6504    0.2805    0.0000 C   0  0  0  0  0  0  0  0  0  0  0  0
    3.6504    1.1055    0.0000 Cl  0  0  0  0  0  0  0  0  0  0  0  0
    2.9360   -0.1320    0.0000 C   0  0  0  0  0  0  0  0  0  0  0  0
    2.2215    0.2805    0.0000 C   0  0  0  0  0  0  0  0  0  0  0  0
    1.5070   -0.1320    0.0000 O   0  0  0  0  0  0  0  0  0  0  0  0
  1  2  1  0  0  0  0
  3  2  1  0  0  0  0
  4  3  2  0  0  0  0
  5  4  1  0  0  0  0
  6  5  2  0  0  0  0
  6  7  1  0  0  0  0
  8  6  1  0  0  0  0
  2  8  2  0  0  0  0
  8  9  1  0  0  0  0
  9 10  1  0  0  0  0
M  END
> <ChemID>
100411

> <CAS>
15258-73-8

> <Original_SMILES>
OCc1c(Cl)cccc1Cl

> <preferred_name>
Benzenemethanol, 2,6-dichloro- (9CI)

> <dsstox_substance_id>
DTXSID30165075

> <dsstox_compound_id>
DTXCID1087566

> <qc_level>
Public_Medium

> <Canonical_QSARr>
OCC1C(Cl)=CC=CC=1Cl

> <InChI_Code_QSARr>
InChI=1S/C7H6Cl2O/c8-6-2-1-3-7(9)5(6)4-10/h1-3,10H,4H2

> <InChI Key_QSARr>
WKKHCCZLKYKUDN-UHFFFAOYSA-N

> <Salt_Solvent>


> <Salt_Solvent_ID>
0

> <MPID>
102027

> <LogKmHL>
-1.37

> <Tr_1_Tst_0>
1

$$$$
100412
  Mrv171c012251910542D          

 16 15  0  0  0  0            999 V2000
    7.0939    0.2063    0.0000 C   0  0  0  0  0  0  0  0  0  0  0  0
    6.3795   -0.2062    0.0000 C   0  0  0  0  0  0  0  0  0  0  0  0
    5.6650    0.2063    0.0000 C   0  0  0  0  0  0  0  0  0  0  0  0
    4.9505   -0.2062    0.0000 C   0  0  0  0  0  0  0  0  0  0  0  0
    4.2361    0.2063    0.0000 C   0  0  0  0  0  0  0  0  0  0  0  0
    3.5216   -0.2062    0.0000 C   0  0  0  0  0  0  0  0  0  0  0  0
    2.8071    0.2063    0.0000 C   0  0  0  0  0  0  0  0  0  0  0  0
    2.0926   -0.2062    0.0000 C   0  0  0  0  0  0  0  0  0  0  0  0
    7.8084   -0.2062    0.0000 C   0  0  0  0  0  0  0  0  0  0  0  0
    8.5229    0.2062    0.0000 C   0  0  0  0  0  0  0  0  0  0  0  0
    9.2374   -0.2063    0.0000 C   0  0  0  0  0  0  0  0  0  0  0  0
    9.9518    0.2062    0.0000 C   0  0  0  0  0  0  0  0  0  0  0  0
   10.6663   -0.2063    0.0000 C   0  0  0  0  0  0  0  0  0  0  0  0
   11.3808    0.2062    0.0000 C   0  0  0  0  0  0  0  0  0  0  0  0
   12.0952   -0.2063    0.0000 C   0  0  0  0  0  0  0  0  0  0  0  0
   12.8097    0.2062    0.0000 C   0  0  0  0  0  0  0  0  0  0  0  0
  1  2  1  0  0  0  0
  2  3  1  0  0  0  0
  3  4  1  0  0  0  0
  4  5  1  0  0  0  0
  5  6  1  0  0  0  0
  6  7  1  0  0  0  0
  7  8  1  0  0  0  0
  1  9  1  0  0  0  0
  9 10  1  0  0  0  0
 10 11  1  0  0  0  0
 11 12  1  0  0  0  0
 12 13  1  0  0  0  0
 13 14  1  0  0  0  0
 14 15  1  0  0  0  0
 15 16  1  0  0  0  0
M  END
> <ChemID>
100412

> <CAS>
15716-08-2

> <Original_SMILES>
[2H]C([2H])([2H])C([2H])([2H])C([2H])([2H])C([2H])([2H])C([2H])([2H])C([2H])([2H])C([2H])([2H])C([2H])([2H])C([2H])([2H])C([2H])([2H])C([2H])([2H])C([2H])([2H])C([2H])([2H])C([2H])([2H])C([2H])([2H])C([2H])([2H])[2H]

> <preferred_name>
Hexadecane-d34

> <dsstox_substance_id>
DTXSID40486642

> <dsstox_compound_id>
DTXCID40437452

> <qc_level>
Public_Low

> <Canonical_QSARr>
CCCCCCCCCCCCCCCC

> <InChI_Code_QSARr>
InChI=1S/C16H34/c1-3-5-7-9-11-13-15-16-14-12-10-8-6-4-2/h3-16H2,1-2H3

> <InChI Key_QSARr>
DCAYPVUWAIABOU-UHFFFAOYSA-N

> <Salt_Solvent>


> <Salt_Solvent_ID>
0

> <MPID>
102028

> <LogKmHL>
1.47

> <Tr_1_Tst_0>
1

$$$$
100413
  Mrv171c012251910542D          

 15 16  0  0  0  0            999 V2000
    0.6668    2.0350    0.0000 C   0  0  0  0  0  0  0  0  0  0  0  0
    0.6668    2.8600    0.0000 C   0  0  0  0  0  0  0  0  0  0  0  0
   -0.0476    3.2725    0.0000 C   0  0  0  0  0  0  0  0  0  0  0  0
   -0.0476    4.0975    0.0000 Cl  0  0  0  0  0  0  0  0  0  0  0  0
   -0.7621    2.8600    0.0000 C   0  0  0  0  0  0  0  0  0  0  0  0
   -1.4766    3.2725    0.0000 Cl  0  0  0  0  0  0  0  0  0  0  0  0
   -0.7621    2.0350    0.0000 C   0  0  0  0  0  0  0  0  0  0  0  0
   -0.0476    1.6225    0.0000 C   0  0  0  0  0  0  0  0  0  0  0  0
   -0.0476    0.7975    0.0000 Cl  0  0  0  0  0  0  0  0  0  0  0  0
    1.3813    1.6225    0.0000 C   0  0  0  0  0  0  0  0  0  0  0  0
    1.3813    0.7975    0.0000 C   0  0  0  0  0  0  0  0  0  0  0  0
    2.0958    0.3850    0.0000 C   0  0  0  0  0  0  0  0  0  0  0  0
    2.8102    0.7975    0.0000 C   0  0  0  0  0  0  0  0  0  0  0  0
    2.8102    1.6225    0.0000 C   0  0  0  0  0  0  0  0  0  0  0  0
    2.0958    2.0350    0.0000 C   0  0  0  0  0  0  0  0  0  0  0  0
  2  1  1  0  0  0  0
  3  2  2  0  0  0  0
  3  4  1  0  0  0  0
  5  3  1  0  0  0  0
  5  6  1  0  0  0  0
  7  5  2  0  0  0  0
  8  7  1  0  0  0  0
  1  8  2  0  0  0  0
  8  9  1  0  0  0  0
  1 10  1  0  0  0  0
 11 10  1  0  0  0  0
 12 11  2  0  0  0  0
 13 12  1  0  0  0  0
 14 13  2  0  0  0  0
 15 14  1  0  0  0  0
 10 15  2  0  0  0  0
M  END
> <ChemID>
100413

> <CAS>
15862-07-4

> <Original_SMILES>
Clc1cc(-c2ccccc2)c(Cl)cc1Cl

> <preferred_name>
2,4,5-Trichlorobiphenyl

> <dsstox_substance_id>
DTXSID0073405

> <dsstox_compound_id>
DTXCID6035100

> <qc_level>
Public_High

> <Canonical_QSARr>
ClC1C=C(Cl)C(Cl)=CC=1C1C=CC=CC=1

> <InChI_Code_QSARr>
InChI=1S/C12H7Cl3/c13-10-7-12(15)11(14)6-9(10)8-4-2-1-3-5-8/h1-7H

> <InChI Key_QSARr>
VGVIKVCCUATMNG-UHFFFAOYSA-N

> <Salt_Solvent>


> <Salt_Solvent_ID>
0

> <MPID>
102029

> <LogKmHL>
1.84

> <Tr_1_Tst_0>
1

$$$$
100414
  Mrv171c012251910542D          

 18 18  0  0  0  0            999 V2000
    1.7856   -1.1886    0.0000 C   0  0  0  0  0  0  0  0  0  0  0  0
    2.1981   -1.9031    0.0000 C   0  0  0  0  0  0  0  0  0  0  0  0
    1.7856   -2.6176    0.0000 N   0  0  0  0  0  0  0  0  0  0  0  0
    0.9606   -2.6176    0.0000 C   0  0  0  0  0  0  0  0  0  0  0  0
    0.5481   -3.3320    0.0000 C   0  0  0  0  0  0  0  0  0  0  0  0
   -0.2769   -3.3320    0.0000 Cl  0  0  0  0  0  0  0  0  0  0  0  0
    0.5481   -1.9031    0.0000 O   0  0  0  0  0  0  0  0  0  0  0  0
    2.1981   -3.3320    0.0000 C   0  0  0  0  0  0  0  0  0  0  0  0
    3.0231   -3.3320    0.0000 O   0  0  0  0  0  0  0  0  0  0  0  0
    3.4356   -4.0465    0.0000 C   0  0  0  0  0  0  0  0  0  0  0  0
    3.0231   -1.9031    0.0000 C   0  0  0  0  0  0  0  0  0  0  0  0
    3.4356   -2.6176    0.0000 C   0  0  0  0  0  0  0  0  0  0  0  0
    4.2606   -2.6176    0.0000 C   0  0  0  0  0  0  0  0  0  0  0  0
    3.4356   -1.1886    0.0000 C   0  0  0  0  0  0  0  0  0  0  0  0
    3.0231   -0.4742    0.0000 C   0  0  0  0  0  0  0  0  0  0  0  0
    2.1981   -0.4742    0.0000 C   0  0  0  0  0  0  0  0  0  0  0  0
    0.9606   -1.1886    0.0000 C   0  0  0  0  0  0  0  0  0  0  0  0
    0.5481   -0.4742    0.0000 C   0  0  0  0  0  0  0  0  0  0  0  0
  2  1  1  0  0  0  0
  2  3  1  0  0  0  0
  3  4  1  0  0  0  0
  4  5  1  0  0  0  0
  5  6  1  0  0  0  0
  4  7  2  0  0  0  0
  3  8  1  0  0  0  0
  8  9  1  0  0  0  0
  9 10  1  0  0  0  0
 11  2  2  0  0  0  0
 11 12  1  0  0  0  0
 12 13  1  0  0  0  0
 14 11  1  0  0  0  0
 15 14  2  0  0  0  0
 16 15  1  0  0  0  0
  1 16  2  0  0  0  0
  1 17  1  0  0  0  0
 17 18  1  0  0  0  0
M  END
> <ChemID>
100414

> <CAS>
15972-60-8

> <Original_SMILES>
COCN(C(=O)CCl)c1c(CC)cccc1CC

> <preferred_name>
Alachlor

> <dsstox_substance_id>
DTXSID1022265

> <dsstox_compound_id>
DTXCID402265

> <qc_level>
DSSTox_Low

> <Canonical_QSARr>
COCN(C(=O)CCl)C1C(CC)=CC=CC=1CC

> <InChI_Code_QSARr>
InChI=1S/C14H20ClNO2/c1-4-11-7-6-8-12(5-2)14(11)16(10-18-3)13(17)9-15/h6-8H,4-5,9-10H2,1-3H3

> <InChI Key_QSARr>
XCSGPAVHZFQHGE-UHFFFAOYSA-N

> <Salt_Solvent>


> <Salt_Solvent_ID>
0

> <MPID>
102030

> <LogKmHL>
-1.1

> <Tr_1_Tst_0>
0

$$$$
100415
  Mrv171c012251910542D          

  9 10  0  0  0  0            999 V2000
   -1.2654    0.5418    0.0000 C   0  0  0  0  0  0  0  0  0  0  0  0
   -0.5510    0.9543    0.0000 C   0  0  0  0  0  0  0  0  0  0  0  0
    0.1635    0.5418    0.0000 C   0  0  0  0  0  0  0  0  0  0  0  0
    0.1635   -0.2832    0.0000 C   0  0  0  0  0  0  0  0  0  0  0  0
    0.8780   -0.6957    0.0000 C   0  0  0  0  0  0  0  0  0  0  0  0
    0.6717    0.1293    0.0000 C   0  0  0  0  0  0  0  0  0  0  0  0
    0.8780    0.9543    0.0000 C   0  0  0  0  0  0  0  0  0  0  0  0
    1.5925    0.5418    0.0000 C   0  0  0  0  0  0  0  0  0  0  0  0
    1.5925   -0.2832    0.0000 C   0  0  0  0  0  0  0  0  0  0  0  0
  2  1  1  4  0  0  0
  2  3  2  0  0  0  0
  3  4  1  0  0  0  0
  4  5  1  0  0  0  0
  5  6  1  0  0  0  0
  6  7  1  0  0  0  0
  3  7  1  0  0  0  0
  7  8  1  0  0  0  0
  8  9  2  0  0  0  0
  5  9  1  0  0  0  0
M  END
> <ChemID>
100415

> <CAS>
16219-75-3

> <Original_SMILES>
CC=C1CC2CC1C=C2

> <preferred_name>
5-Ethylidene-2-norbornene

> <dsstox_substance_id>
DTXSID1025306

> <dsstox_compound_id>
DTXCID505306

> <qc_level>
DSSTox_Low

> <Canonical_QSARr>
CC=C1CC2CC1C=C2

> <InChI_Code_QSARr>
InChI=1S/C9H12/c1-2-8-5-7-3-4-9(8)6-7/h2-4,7,9H,5-6H2,1H3

> <InChI Key_QSARr>
OJOWICOBYCXEKR-UHFFFAOYSA-N

> <Salt_Solvent>


> <Salt_Solvent_ID>
0

> <MPID>
102031

> <LogKmHL>
-0.56

> <Tr_1_Tst_0>
1

$$$$
100416
  Mrv171c012251910542D          

 13 12  0  0  0  0            999 V2000
    4.7275    0.6188    0.0000 C   0  0  0  0  0  0  0  0  0  0  0  0
    4.0130    0.2063    0.0000 C   0  0  0  0  0  0  0  0  0  0  0  0
    3.2985    0.6188    0.0000 C   0  0  0  0  0  0  0  0  0  0  0  0
    2.5841    0.2063    0.0000 C   0  0  0  0  0  0  0  0  0  0  0  0
    1.8696    0.6188    0.0000 C   0  0  0  0  0  0  0  0  0  0  0  0
    1.1551    0.2063    0.0000 C   0  0  0  0  0  0  0  0  0  0  0  0
    5.4419    0.2063    0.0000 C   0  0  0  0  0  0  0  0  0  0  0  0
    6.1564    0.6188    0.0000 C   0  0  0  0  0  0  0  0  0  0  0  0
    6.8709    0.2063    0.0000 C   0  0  0  0  0  0  0  0  0  0  0  0
    7.5854    0.6188    0.0000 C   0  0  0  0  0  0  0  0  0  0  0  0
    8.2998    0.2063    0.0000 C   0  0  0  0  0  0  0  0  0  0  0  0
    9.0143    0.6188    0.0000 C   0  0  0  0  0  0  0  0  0  0  0  0
    8.2998   -0.6187    0.0000 C   0  0  0  0  0  0  0  0  0  0  0  0
  1  2  1  0  0  0  0
  2  3  1  0  0  0  0
  3  4  1  0  0  0  0
  4  5  1  0  0  0  0
  5  6  1  0  0  0  0
  1  7  1  0  0  0  0
  7  8  1  0  0  0  0
  8  9  1  0  0  0  0
  9 10  1  0  0  0  0
 10 11  1  0  0  0  0
 11 12  2  0  0  0  0
 11 13  1  0  0  0  0
M  END
> <ChemID>
100416

> <CAS>
16435-49-7

> <Original_SMILES>
CCCCCCCCCCC(C)=C

> <preferred_name>
2-methyldodec-1-ene

> <dsstox_substance_id>
DTXSID40333945

> <dsstox_compound_id>
DTXCID80285035

> <qc_level>
Public_Low

> <Canonical_QSARr>
CCCCCCCCCCC(C)=C

> <InChI_Code_QSARr>
InChI=1S/C13H26/c1-4-5-6-7-8-9-10-11-12-13(2)3/h2,4-12H2,1,3H3

> <InChI Key_QSARr>
PWRBDKMPAZFCSV-UHFFFAOYSA-N

> <Salt_Solvent>


> <Salt_Solvent_ID>
0

> <MPID>
102032

> <LogKmHL>
0.64

> <Tr_1_Tst_0>
1

$$$$
100417
  Mrv171c012251910542D          

 14 15  0  0  0  0            999 V2000
    0.8165    1.7679    0.0000 C   0  0  0  0  0  0  0  0  0  0  0  0
    1.5310    1.3554    0.0000 C   0  0  0  0  0  0  0  0  0  0  0  0
    2.2455    1.7679    0.0000 C   0  0  0  0  0  0  0  0  0  0  0  0
    2.2455    2.5929    0.0000 C   0  0  0  0  0  0  0  0  0  0  0  0
    1.5310    3.0054    0.0000 C   0  0  0  0  0  0  0  0  0  0  0  0
    1.5310    3.8304    0.0000 Cl  0  0  0  0  0  0  0  0  0  0  0  0
    0.8165    2.5929    0.0000 C   0  0  0  0  0  0  0  0  0  0  0  0
    0.1021    3.0054    0.0000 Cl  0  0  0  0  0  0  0  0  0  0  0  0
    0.1021    1.3554    0.0000 C   0  0  0  0  0  0  0  0  0  0  0  0
   -0.6124    1.7679    0.0000 C   0  0  0  0  0  0  0  0  0  0  0  0
   -1.3269    1.3554    0.0000 C   0  0  0  0  0  0  0  0  0  0  0  0
   -1.3269    0.5304    0.0000 C   0  0  0  0  0  0  0  0  0  0  0  0
   -0.6124    0.1179    0.0000 C   0  0  0  0  0  0  0  0  0  0  0  0
    0.1021    0.5304    0.0000 C   0  0  0  0  0  0  0  0  0  0  0  0
  2  1  1  0  0  0  0
  3  2  2  0  0  0  0
  4  3  1  0  0  0  0
  5  4  2  0  0  0  0
  5  6  1  0  0  0  0
  7  5  1  0  0  0  0
  1  7  2  0  0  0  0
  7  8  1  0  0  0  0
  1  9  1  0  0  0  0
 10  9  1  0  0  0  0
 11 10  2  0  0  0  0
 12 11  1  0  0  0  0
 13 12  2  0  0  0  0
 14 13  1  0  0  0  0
  9 14  2  0  0  0  0
M  END
> <ChemID>
100417

> <CAS>
16605-91-7

> <Original_SMILES>
Clc1cccc(-c2ccccc2)c1Cl

> <preferred_name>
2,3-Dichlorobiphenyl

> <dsstox_substance_id>
DTXSID0073409

> <dsstox_compound_id>
DTXCID4035332

> <qc_level>
Public_High

> <Canonical_QSARr>
ClC1=CC=CC(C2C=CC=CC=2)=C1Cl

> <InChI_Code_QSARr>
InChI=1S/C12H8Cl2/c13-11-8-4-7-10(12(11)14)9-5-2-1-3-6-9/h1-8H

> <InChI Key_QSARr>
XOMKZKJEJBZBJJ-UHFFFAOYSA-N

> <Salt_Solvent>


> <Salt_Solvent_ID>
0

> <MPID>
102033

> <LogKmHL>
2.15

> <Tr_1_Tst_0>
1

$$$$
100418
  Mrv171c012251910542D          

 15 16  0  0  0  0            999 V2000
    0.3334    1.8425    0.0000 C   0  0  0  0  0  0  0  0  0  0  0  0
    0.3334    2.6675    0.0000 C   0  0  0  0  0  0  0  0  0  0  0  0
   -0.3811    3.0800    0.0000 C   0  0  0  0  0  0  0  0  0  0  0  0
   -0.3811    3.9050    0.0000 Cl  0  0  0  0  0  0  0  0  0  0  0  0
   -1.0955    2.6675    0.0000 C   0  0  0  0  0  0  0  0  0  0  0  0
   -1.0955    1.8425    0.0000 C   0  0  0  0  0  0  0  0  0  0  0  0
   -0.3811    1.4300    0.0000 C   0  0  0  0  0  0  0  0  0  0  0  0
   -0.3811    0.6050    0.0000 Cl  0  0  0  0  0  0  0  0  0  0  0  0
    1.0479    1.4300    0.0000 C   0  0  0  0  0  0  0  0  0  0  0  0
    1.0479    0.6050    0.0000 C   0  0  0  0  0  0  0  0  0  0  0  0
    1.7624    0.1925    0.0000 C   0  0  0  0  0  0  0  0  0  0  0  0
    2.4768    0.6050    0.0000 C   0  0  0  0  0  0  0  0  0  0  0  0
    3.1913    0.1925    0.0000 Cl  0  0  0  0  0  0  0  0  0  0  0  0
    2.4768    1.4300    0.0000 C   0  0  0  0  0  0  0  0  0  0  0  0
    1.7624    1.8425    0.0000 C   0  0  0  0  0  0  0  0  0  0  0  0
  2  1  1  0  0  0  0
  3  2  2  0  0  0  0
  3  4  1  0  0  0  0
  5  3  1  0  0  0  0
  6  5  2  0  0  0  0
  7  6  1  0  0  0  0
  1  7  2  0  0  0  0
  7  8  1  0  0  0  0
  1  9  1  0  0  0  0
 10  9  1  0  0  0  0
 11 10  2  0  0  0  0
 12 11  1  0  0  0  0
 12 13  1  0  0  0  0
 14 12  2  0  0  0  0
 15 14  1  0  0  0  0
  9 15  2  0  0  0  0
M  END
> <ChemID>
100418

> <CAS>
16606-02-3

> <Original_SMILES>
Clc1ccc(Cl)cc1-c1ccc(Cl)cc1

> <preferred_name>
2,4',5-Trichlorobiphenyl

> <dsstox_substance_id>
DTXSID9073410

> <dsstox_compound_id>
DTXCID9035333

> <qc_level>
Public_High

> <Canonical_QSARr>
ClC1=CC(C2C=CC(Cl)=CC=2)=C(Cl)C=C1

> <InChI_Code_QSARr>
InChI=1S/C12H7Cl3/c13-9-3-1-8(2-4-9)11-7-10(14)5-6-12(11)15/h1-7H

> <InChI Key_QSARr>
VAHKBZSAUKPEOV-UHFFFAOYSA-N

> <Salt_Solvent>


> <Salt_Solvent_ID>
0

> <MPID>
102034

> <LogKmHL>
1.91

> <Tr_1_Tst_0>
0

$$$$
100419
  Mrv171c012251910542D          

 36 35  0  0  0  0            999 V2000
    7.0548   -6.9809    0.0000 C   0  0  0  0  0  0  0  0  0  0  0  0
    7.0548   -7.8059    0.0000 O   0  0  0  0  0  0  0  0  0  0  0  0
    6.3404   -6.5684    0.0000 O   0  0  0  0  0  0  0  0  0  0  0  0
    5.6259   -6.9809    0.0000 C   0  0  0  0  0  0  0  0  0  0  0  0
    4.9114   -6.5684    0.0000 C   0  0  0  0  0  0  0  0  0  0  0  0
    4.1969   -6.9809    0.0000 C   0  0  0  0  0  0  0  0  0  0  0  0
    3.4825   -6.5684    0.0000 C   0  0  0  0  0  0  0  0  0  0  0  0
    2.7680   -6.9809    0.0000 C   0  0  0  0  0  0  0  0  0  0  0  0
    2.0535   -6.5684    0.0000 C   0  0  0  0  0  0  0  0  0  0  0  0
    1.3391   -6.9809    0.0000 C   0  0  0  0  0  0  0  0  0  0  0  0
    0.6246   -6.5684    0.0000 C   0  0  0  0  0  0  0  0  0  0  0  0
   -0.0899   -6.9809    0.0000 C   0  0  0  0  0  0  0  0  0  0  0  0
   -0.8044   -6.5684    0.0000 C   0  0  0  0  0  0  0  0  0  0  0  0
   -1.5188   -6.9809    0.0000 C   0  0  0  0  0  0  0  0  0  0  0  0
   -2.2333   -6.5684    0.0000 C   0  0  0  0  0  0  0  0  0  0  0  0
   -2.9478   -6.9809    0.0000 C   0  0  0  0  0  0  0  0  0  0  0  0
    7.7693   -6.5684    0.0000 C   0  0  0  0  0  0  0  0  0  0  0  0
    8.4838   -6.9809    0.0000 C   0  0  0  0  0  0  0  0  0  0  0  0
    9.1982   -6.5684    0.0000 C   0  0  0  0  0  0  0  0  0  0  0  0
    9.9127   -6.9809    0.0000 C   0  0  0  0  0  0  0  0  0  0  0  0
   10.6272   -6.5684    0.0000 C   0  0  0  0  0  0  0  0  0  0  0  0
   10.6272   -5.7434    0.0000 O   0  0  0  0  0  0  0  0  0  0  0  0
   11.3417   -6.9809    0.0000 O   0  0  0  0  0  0  0  0  0  0  0  0
   12.0561   -6.5684    0.0000 C   0  0  0  0  0  0  0  0  0  0  0  0
   12.7706   -6.9809    0.0000 C   0  0  0  0  0  0  0  0  0  0  0  0
   13.4851   -6.5684    0.0000 C   0  0  0  0  0  0  0  0  0  0  0  0
   14.1995   -6.9809    0.0000 C   0  0  0  0  0  0  0  0  0  0  0  0
   14.9140   -6.5684    0.0000 C   0  0  0  0  0  0  0  0  0  0  0  0
   15.6285   -6.9809    0.0000 C   0  0  0  0  0  0  0  0  0  0  0  0
   16.3429   -6.5684    0.0000 C   0  0  0  0  0  0  0  0  0  0  0  0
   17.0574   -6.9809    0.0000 C   0  0  0  0  0  0  0  0  0  0  0  0
   17.7719   -6.5684    0.0000 C   0  0  0  0  0  0  0  0  0  0  0  0
   18.4864   -6.9809    0.0000 C   0  0  0  0  0  0  0  0  0  0  0  0
   19.2008   -6.5684    0.0000 C   0  0  0  0  0  0  0  0  0  0  0  0
   19.9153   -6.9809    0.0000 C   0  0  0  0  0  0  0  0  0  0  0  0
   20.6298   -6.5684    0.0000 C   0  0  0  0  0  0  0  0  0  0  0  0
  1  2  2  0  0  0  0
  1  3  1  0  0  0  0
  3  4  1  0  0  0  0
  4  5  1  0  0  0  0
  5  6  1  0  0  0  0
  6  7  1  0  0  0  0
  7  8  1  0  0  0  0
  8  9  1  0  0  0  0
  9 10  1  0  0  0  0
 10 11  1  0  0  0  0
 11 12  1  0  0  0  0
 12 13  1  0  0  0  0
 13 14  1  0  0  0  0
 14 15  1  0  0  0  0
 15 16  1  0  0  0  0
  1 17  1  0  0  0  0
 17 18  1  0  0  0  0
 18 19  1  0  0  0  0
 19 20  1  0  0  0  0
 20 21  1  0  0  0  0
 21 22  2  0  0  0  0
 21 23  1  0  0  0  0
 23 24  1  0  0  0  0
 24 25  1  0  0  0  0
 25 26  1  0  0  0  0
 26 27  1  0  0  0  0
 27 28  1  0  0  0  0
 28 29  1  0  0  0  0
 29 30  1  0  0  0  0
 30 31  1  0  0  0  0
 31 32  1  0  0  0  0
 32 33  1  0  0  0  0
 33 34  1  0  0  0  0
 34 35  1  0  0  0  0
 35 36  1  0  0  0  0
M  END
> <ChemID>
100419

> <CAS>
16958-92-2

> <Original_SMILES>
CCCCCCCCCCCCCOC(=O)CCCCC(=O)OCCCCCCCCCCCCC

> <preferred_name>
Hexanedioic acid, ditridecyl ester

> <dsstox_substance_id>
DTXSID9027786

> <dsstox_compound_id>
DTXCID907786

> <qc_level>
DSSTox_Low

> <Canonical_QSARr>
CCCCCCCCCCCCCOC(=O)CCCCC(=O)OCCCCCCCCCCCCC

> <InChI_Code_QSARr>
InChI=1S/C32H62O4/c1-3-5-7-9-11-13-15-17-19-21-25-29-35-31(33)27-23-24-28-32(34)36-30-26-22-20-18-16-14-12-10-8-6-4-2/h3-30H2,1-2H3

> <InChI Key_QSARr>
LZJUZSYHFSVIGJ-UHFFFAOYSA-N

> <Salt_Solvent>


> <Salt_Solvent_ID>
0

> <MPID>
102035

> <LogKmHL>
-0.43

> <Tr_1_Tst_0>
1

$$$$
100420
  Mrv171c012251910542D          

 18 21  0  0  0  0            999 V2000
    2.2916   -2.0710    0.0000 C   0  0  0  0  0  0  0  0  0  0  0  0
    2.7041   -1.3565    0.0000 C   0  0  0  0  0  0  0  0  0  0  0  0
    2.2916   -0.6420    0.0000 C   0  0  0  0  0  0  0  0  0  0  0  0
    1.4666   -0.6420    0.0000 C   0  0  0  0  0  0  0  0  0  0  0  0
    1.0541   -1.3565    0.0000 C   0  0  0  0  0  0  0  0  0  0  0  0
    0.2291   -1.3565    0.0000 C   0  0  0  0  0  0  0  0  0  0  0  0
   -0.1834   -2.0710    0.0000 C   0  0  0  0  0  0  0  0  0  0  0  0
    0.2291   -2.7855    0.0000 C   0  0  0  0  0  0  0  0  0  0  0  0
   -0.1834   -3.4999    0.0000 C   0  0  0  0  0  0  0  0  0  0  0  0
   -1.0084   -3.4999    0.0000 C   0  0  0  0  0  0  0  0  0  0  0  0
    1.0541   -2.7855    0.0000 C   0  0  0  0  0  0  0  0  0  0  0  0
    1.4666   -3.4999    0.0000 C   0  0  0  0  0  0  0  0  0  0  0  0
    2.2916   -3.4999    0.0000 C   0  0  0  0  0  0  0  0  0  0  0  0
    2.7041   -2.7855    0.0000 C   0  0  0  0  0  0  0  0  0  0  0  0
    3.5291   -2.7855    0.0000 C   0  0  0  0  0  0  0  0  0  0  0  0
    3.9416   -2.0710    0.0000 C   0  0  0  0  0  0  0  0  0  0  0  0
    3.5291   -1.3565    0.0000 C   0  0  0  0  0  0  0  0  0  0  0  0
    1.4666   -2.0710    0.0000 C   0  0  0  0  0  0  0  0  0  0  0  0
  2  1  1  0  0  0  0
  2  3  2  0  0  0  0
  3  4  1  0  0  0  0
  4  5  2  0  0  0  0
  5  6  1  0  0  0  0
  6  7  2  0  0  0  0
  7  8  1  0  0  0  0
  8  9  1  0  0  0  0
  9 10  1  0  0  0  0
  8 11  2  0  0  0  0
 11 12  1  0  0  0  0
 12 13  2  0  0  0  0
 13 14  1  0  0  0  0
 14  1  1  0  0  0  0
 14 15  2  0  0  0  0
 15 16  1  0  0  0  0
 16 17  2  0  0  0  0
 17  2  1  0  0  0  0
 11 18  1  0  0  0  0
  1 18  2  0  0  0  0
 18  5  1  0  0  0  0
M  END
> <ChemID>
100420

> <CAS>
17088-22-1

> <Original_SMILES>
CCc1ccc2ccc3cccc4ccc1c2c34

> <preferred_name>


> <dsstox_substance_id>
DTXSID50878251

> <dsstox_compound_id>
DTXCID501016306

> <qc_level>


> <Canonical_QSARr>
CCC1C=CC2=CC=C3C=CC=C4C=CC=1C2=C34

> <InChI_Code_QSARr>
InChI=1S/C18H14/c1-2-12-6-7-15-9-8-13-4-3-5-14-10-11-16(12)18(15)17(13)14/h3-11H,2H2,1H3

> <InChI Key_QSARr>
ZWAMZDRREBOHIO-UHFFFAOYSA-N

> <Salt_Solvent>


> <Salt_Solvent_ID>
0

> <MPID>
102036

> <LogKmHL>
0.24

> <Tr_1_Tst_0>
1

$$$$
100421
  Mrv171c012251910542D          

 19 20  0  0  0  0            999 V2000
    2.7199   -1.8439    0.0000 P   0  0  0  0  0  0  0  0  0  0  0  0
    3.1324   -2.5583    0.0000 O   0  0  0  0  0  0  0  0  0  0  0  0
    3.9574   -2.5583    0.0000 C   0  0  0  0  0  0  0  0  0  0  0  0
    4.3699   -3.2728    0.0000 C   0  0  0  0  0  0  0  0  0  0  0  0
    2.3074   -1.1294    0.0000 O   0  0  0  0  0  0  0  0  0  0  0  0
    2.0054   -2.2564    0.0000 S   0  0  0  0  0  0  0  0  0  0  0  0
    2.0054   -3.0814    0.0000 C   0  0  0  0  0  0  0  0  0  0  0  0
    1.2909   -3.4939    0.0000 C   0  0  0  0  0  0  0  0  0  0  0  0
    1.2909   -4.3189    0.0000 C   0  0  0  0  0  0  0  0  0  0  0  0
    2.0054   -4.7314    0.0000 C   0  0  0  0  0  0  0  0  0  0  0  0
    2.7199   -4.3189    0.0000 C   0  0  0  0  0  0  0  0  0  0  0  0
    2.7199   -3.4939    0.0000 C   0  0  0  0  0  0  0  0  0  0  0  0
    3.4343   -1.4314    0.0000 S   0  0  0  0  0  0  0  0  0  0  0  0
    3.4343   -0.6064    0.0000 C   0  0  0  0  0  0  0  0  0  0  0  0
    4.1488   -0.1939    0.0000 C   0  0  0  0  0  0  0  0  0  0  0  0
    4.1488    0.6311    0.0000 C   0  0  0  0  0  0  0  0  0  0  0  0
    3.4343    1.0436    0.0000 C   0  0  0  0  0  0  0  0  0  0  0  0
    2.7199    0.6311    0.0000 C   0  0  0  0  0  0  0  0  0  0  0  0
    2.7199   -0.1939    0.0000 C   0  0  0  0  0  0  0  0  0  0  0  0
  1  2  1  0  0  0  0
  2  3  1  0  0  0  0
  3  4  1  0  0  0  0
  1  5  2  0  0  0  0
  1  6  1  0  0  0  0
  6  7  1  0  0  0  0
  8  7  1  0  0  0  0
  9  8  2  0  0  0  0
 10  9  1  0  0  0  0
 11 10  2  0  0  0  0
 12 11  1  0  0  0  0
  7 12  2  0  0  0  0
  1 13  1  0  0  0  0
 13 14  1  0  0  0  0
 15 14  2  0  0  0  0
 16 15  1  0  0  0  0
 17 16  2  0  0  0  0
 18 17  1  0  0  0  0
 19 18  2  0  0  0  0
 14 19  1  0  0  0  0
M  END
> <ChemID>
100421

> <CAS>
17109-49-8

> <Original_SMILES>
CCOP(=O)(Sc1ccccc1)Sc1ccccc1

> <preferred_name>
Edifenphos

> <dsstox_substance_id>
DTXSID7041910

> <dsstox_compound_id>
DTXCID5021910

> <qc_level>
DSSTox_Low

> <Canonical_QSARr>
CCOP(=O)(SC1C=CC=CC=1)SC1C=CC=CC=1

> <InChI_Code_QSARr>
InChI=1S/C14H15O2PS2/c1-2-16-17(15,18-13-9-5-3-6-10-13)19-14-11-7-4-8-12-14/h3-12H,2H2,1H3

> <InChI Key_QSARr>
AWZOLILCOUMRDG-UHFFFAOYSA-N

> <Salt_Solvent>


> <Salt_Solvent_ID>
0

> <MPID>
102037

> <LogKmHL>
-1.04

> <Tr_1_Tst_0>
1

$$$$
100422
  Mrv171c012251910542D          

 13 12  0  0  0  0            999 V2000
    2.9657   -1.1814    0.0000 C   0  0  0  0  0  0  0  0  0  0  0  0
    2.2513   -1.5939    0.0000 C   0  0  0  0  0  0  0  0  0  0  0  0
    1.5368   -1.1814    0.0000 C   0  0  0  0  0  0  0  0  0  0  0  0
    0.8223   -1.5939    0.0000 C   0  0  0  0  0  0  0  0  0  0  0  0
    0.1078   -1.1814    0.0000 C   0  0  0  0  0  0  0  0  0  0  0  0
    0.8223   -2.4189    0.0000 C   0  0  0  0  0  0  0  0  0  0  0  0
    3.6802   -1.5939    0.0000 C   0  0  0  0  0  0  0  0  0  0  0  0
    3.6802   -2.4189    0.0000 C   0  0  0  0  0  0  0  0  0  0  0  0
    4.3947   -1.1814    0.0000 C   0  0  0  0  0  0  0  0  0  0  0  0
    5.1091   -1.5939    0.0000 C   0  0  0  0  0  0  0  0  0  0  0  0
    5.8236   -1.1814    0.0000 C   0  0  0  0  0  0  0  0  0  0  0  0
    6.5381   -1.5939    0.0000 C   0  0  0  0  0  0  0  0  0  0  0  0
    7.2526   -1.1814    0.0000 C   0  0  0  0  0  0  0  0  0  0  0  0
  1  2  1  0  0  0  0
  2  3  1  0  0  0  0
  3  4  1  0  0  0  0
  4  5  1  0  0  0  0
  4  6  1  0  0  0  0
  1  7  1  0  0  0  0
  7  8  1  0  0  0  0
  7  9  1  0  0  0  0
  9 10  1  0  0  0  0
 10 11  1  0  0  0  0
 11 12  1  0  0  0  0
 12 13  1  0  0  0  0
M  END
> <ChemID>
100422

> <CAS>
17301-23-4

> <Original_SMILES>
CC(C)CCCC(C)CCCCC

> <preferred_name>
2,6-Dimethylundecane

> <dsstox_substance_id>
DTXSID2058623

> <dsstox_compound_id>
DTXCID0032310

> <qc_level>
DSSTox_Low

> <Canonical_QSARr>
CC(C)CCCC(C)CCCCC

> <InChI_Code_QSARr>
InChI=1S/C13H28/c1-5-6-7-10-13(4)11-8-9-12(2)3/h12-13H,5-11H2,1-4H3

> <InChI Key_QSARr>
MFUPKUZLTKVMFM-UHFFFAOYSA-N

> <Salt_Solvent>


> <Salt_Solvent_ID>
0

> <MPID>
102038

> <LogKmHL>
1.02

> <Tr_1_Tst_0>
0

$$$$
100425
  Mrv171c012251910542D          

 12 12  0  0  0  0            999 V2000
    3.2405   -0.7410    0.0000 N   0  3  0  0  0  0  0  0  0  0  0  0
    2.5260   -1.1535    0.0000 C   0  0  0  0  0  0  0  0  0  0  0  0
    1.8115   -0.7410    0.0000 C   0  0  0  0  0  0  0  0  0  0  0  0
    1.8115    0.0840    0.0000 Cl  0  0  0  0  0  0  0  0  0  0  0  0
    1.0971   -1.1535    0.0000 C   0  0  0  0  0  0  0  0  0  0  0  0
    0.3826   -0.7410    0.0000 Cl  0  0  0  0  0  0  0  0  0  0  0  0
    1.0971   -1.9785    0.0000 C   0  0  0  0  0  0  0  0  0  0  0  0
    0.3826   -2.3910    0.0000 Cl  0  0  0  0  0  0  0  0  0  0  0  0
    1.8115   -2.3910    0.0000 C   0  0  0  0  0  0  0  0  0  0  0  0
    2.5260   -1.9785    0.0000 C   0  0  0  0  0  0  0  0  0  0  0  0
    3.2405    0.0840    0.0000 O   0  5  0  0  0  0  0  0  0  0  0  0
    3.9549   -1.1535    0.0000 O   0  0  0  0  0  0  0  0  0  0  0  0
  1  2  1  0  0  0  0
  3  2  1  0  0  0  0
  3  4  1  0  0  0  0
  5  3  2  0  0  0  0
  5  6  1  0  0  0  0
  7  5  1  0  0  0  0
  7  8  1  0  0  0  0
  9  7  2  0  0  0  0
 10  9  1  0  0  0  0
  2 10  2  0  0  0  0
  1 11  1  0  0  0  0
  1 12  2  0  0  0  0
M  CHG  2   1   1  11  -1
M  END
> <ChemID>
100425

> <CAS>
17700-09-3

> <Original_SMILES>
[O-][N+](=O)c1ccc(Cl)c(Cl)c1Cl

> <preferred_name>
2,3,4-Trichloronitrobenzene

> <dsstox_substance_id>
DTXSID0026202

> <dsstox_compound_id>
DTXCID806202

> <qc_level>
DSSTox_Low

> <Canonical_QSARr>
[O-][N+](=O)C1=CC=C(Cl)C(Cl)=C1Cl

> <InChI_Code_QSARr>
InChI=1S/C6H2Cl3NO2/c7-3-1-2-4(10(11)12)6(9)5(3)8/h1-2H

> <InChI Key_QSARr>
BGKIECJVXXHLDP-UHFFFAOYSA-N

> <Salt_Solvent>


> <Salt_Solvent_ID>
0

> <MPID>
102039

> <LogKmHL>
-0.19

> <Tr_1_Tst_0>
1

$$$$
100426
  Mrv171c012251910542D          

 14 13  0  0  0  0            999 V2000
    5.9369    0.6188    0.0000 C   0  0  0  0  0  0  0  0  0  0  0  0
    5.2224    0.2063    0.0000 C   0  0  0  0  0  0  0  0  0  0  0  0
    4.5079    0.6188    0.0000 C   0  0  0  0  0  0  0  0  0  0  0  0
    3.7935    0.2063    0.0000 C   0  0  0  0  0  0  0  0  0  0  0  0
    3.0790    0.6188    0.0000 C   0  0  0  0  0  0  0  0  0  0  0  0
    2.3645    0.2063    0.0000 C   0  0  0  0  0  0  0  0  0  0  0  0
    1.6500    0.6188    0.0000 C   0  0  0  0  0  0  0  0  0  0  0  0
    2.3645   -0.6187    0.0000 C   0  0  0  0  0  0  0  0  0  0  0  0
    6.6513    0.2063    0.0000 C   0  0  0  0  0  0  0  0  0  0  0  0
    7.3658    0.6188    0.0000 C   0  0  0  0  0  0  0  0  0  0  0  0
    8.0803    0.2063    0.0000 C   0  0  0  0  0  0  0  0  0  0  0  0
    8.7948    0.6188    0.0000 C   0  0  0  0  0  0  0  0  0  0  0  0
    9.5092    0.2063    0.0000 C   0  0  0  0  0  0  0  0  0  0  0  0
   10.2237    0.6188    0.0000 C   0  0  0  0  0  0  0  0  0  0  0  0
  1  2  1  0  0  0  0
  2  3  1  0  0  0  0
  3  4  1  0  0  0  0
  4  5  1  0  0  0  0
  5  6  1  0  0  0  0
  6  7  2  0  0  0  0
  6  8  1  0  0  0  0
  1  9  1  0  0  0  0
  9 10  1  0  0  0  0
 10 11  1  0  0  0  0
 11 12  1  0  0  0  0
 12 13  1  0  0  0  0
 13 14  1  0  0  0  0
M  END
> <ChemID>
100426

> <CAS>
18094-01-4

> <Original_SMILES>
CCCCCCCCCCCC(C)=C

> <preferred_name>
2-Methyl-1-tridecene

> <dsstox_substance_id>
DTXSID80171040

> <dsstox_compound_id>
DTXCID7093531

> <qc_level>
Public_Medium

> <Canonical_QSARr>
CCCCCCCCCCCC(C)=C

> <InChI_Code_QSARr>
InChI=1S/C14H28/c1-4-5-6-7-8-9-10-11-12-13-14(2)3/h2,4-13H2,1,3H3

> <InChI Key_QSARr>
VNBHQOHLCULRDN-UHFFFAOYSA-N

> <Salt_Solvent>


> <Salt_Solvent_ID>
0

> <MPID>
102040

> <LogKmHL>
0.73

> <Tr_1_Tst_0>
1

$$$$
100427
  Mrv171c012251910542D          

 16 16  0  0  0  0            999 V2000
    3.8552   -1.4211    0.0000 P   0  0  0  0  0  0  0  0  0  0  0  0
    4.5696   -1.8336    0.0000 O   0  0  0  0  0  0  0  0  0  0  0  0
    5.2841   -1.4211    0.0000 C   0  0  0  0  0  0  0  0  0  0  0  0
    4.2677   -0.7066    0.0000 O   0  0  0  0  0  0  0  0  0  0  0  0
    3.8552    0.0078    0.0000 C   0  0  0  0  0  0  0  0  0  0  0  0
    3.4427   -2.1356    0.0000 S   0  0  0  0  0  0  0  0  0  0  0  0
    3.1407   -1.0086    0.0000 O   0  0  0  0  0  0  0  0  0  0  0  0
    2.4262   -1.4211    0.0000 C   0  0  0  0  0  0  0  0  0  0  0  0
    1.7117   -1.0086    0.0000 C   0  0  0  0  0  0  0  0  0  0  0  0
    1.7117   -0.1836    0.0000 Cl  0  0  0  0  0  0  0  0  0  0  0  0
    0.9973   -1.4211    0.0000 C   0  0  0  0  0  0  0  0  0  0  0  0
    0.9973   -2.2461    0.0000 C   0  0  0  0  0  0  0  0  0  0  0  0
    0.2828   -2.6586    0.0000 I   0  0  0  0  0  0  0  0  0  0  0  0
    1.7117   -2.6586    0.0000 C   0  0  0  0  0  0  0  0  0  0  0  0
    1.7117   -3.4836    0.0000 Cl  0  0  0  0  0  0  0  0  0  0  0  0
    2.4262   -2.2461    0.0000 C   0  0  0  0  0  0  0  0  0  0  0  0
  1  2  1  0  0  0  0
  2  3  1  0  0  0  0
  1  4  1  0  0  0  0
  4  5  1  0  0  0  0
  1  6  2  0  0  0  0
  1  7  1  0  0  0  0
  7  8  1  0  0  0  0
  9  8  1  0  0  0  0
  9 10  1  0  0  0  0
 11  9  2  0  0  0  0
 12 11  1  0  0  0  0
 12 13  1  0  0  0  0
 14 12  2  0  0  0  0
 14 15  1  0  0  0  0
 16 14  1  0  0  0  0
  8 16  2  0  0  0  0
M  END
> <ChemID>
100427

> <CAS>
18181-70-9

> <Original_SMILES>
COP(=S)(Oc1cc(Cl)c(I)cc1Cl)OC

> <preferred_name>
Iodenphos

> <dsstox_substance_id>
DTXSID8040278

> <dsstox_compound_id>
DTXCID6020278

> <qc_level>
DSSTox_Low

> <Canonical_QSARr>
COP(=S)(OC1=CC(Cl)=C(I)C=C1Cl)OC

> <InChI_Code_QSARr>
InChI=1S/C8H8Cl2IO3PS/c1-12-15(16,13-2)14-8-4-5(9)7(11)3-6(8)10/h3-4H,1-2H3

> <InChI Key_QSARr>
LFVLUOAHQIVABZ-UHFFFAOYSA-N

> <Salt_Solvent>


> <Salt_Solvent_ID>
0

> <MPID>
102041

> <LogKmHL>
0.86

> <Tr_1_Tst_0>
1

$$$$
100428
  Mrv171c012251910542D          

 12 11  0  0  0  0            999 V2000
    5.2227    0.2063    0.0000 C   0  0  0  0  0  0  0  0  0  0  0  0
    4.5082    0.6188    0.0000 C   0  0  0  0  0  0  0  0  0  0  0  0
    3.7937    0.2063    0.0000 C   0  0  0  0  0  0  0  0  0  0  0  0
    3.0792    0.6188    0.0000 C   0  0  0  0  0  0  0  0  0  0  0  0
    2.3648    0.2063    0.0000 C   0  0  0  0  0  0  0  0  0  0  0  0
    1.6503    0.6188    0.0000 C   0  0  0  0  0  0  0  0  0  0  0  0
    2.3648   -0.6187    0.0000 C   0  0  0  0  0  0  0  0  0  0  0  0
    5.9371    0.6188    0.0000 C   0  0  0  0  0  0  0  0  0  0  0  0
    6.6516    0.2063    0.0000 C   0  0  0  0  0  0  0  0  0  0  0  0
    7.3661    0.6188    0.0000 C   0  0  0  0  0  0  0  0  0  0  0  0
    8.0805    0.2063    0.0000 C   0  0  0  0  0  0  0  0  0  0  0  0
    8.7950    0.6188    0.0000 C   0  0  0  0  0  0  0  0  0  0  0  0
  1  2  1  0  0  0  0
  2  3  1  0  0  0  0
  3  4  1  0  0  0  0
  4  5  1  0  0  0  0
  5  6  2  0  0  0  0
  5  7  1  0  0  0  0
  1  8  1  0  0  0  0
  8  9  1  0  0  0  0
  9 10  1  0  0  0  0
 10 11  1  0  0  0  0
 11 12  1  0  0  0  0
M  END
> <ChemID>
100428

> <CAS>
18516-37-5

> <Original_SMILES>
CCCCCCCCCC(C)=C

> <preferred_name>
2-Methylundec-1-ene

> <dsstox_substance_id>
DTXSID60171725

> <dsstox_compound_id>
DTXCID7094216

> <qc_level>
Public_Medium

> <Canonical_QSARr>
CCCCCCCCCC(C)=C

> <InChI_Code_QSARr>
InChI=1S/C12H24/c1-4-5-6-7-8-9-10-11-12(2)3/h2,4-11H2,1,3H3

> <InChI Key_QSARr>
SJVKHZYVCVKEGM-UHFFFAOYSA-N

> <Salt_Solvent>


> <Salt_Solvent_ID>
0

> <MPID>
102042

> <LogKmHL>
0.17

> <Tr_1_Tst_0>
0

$$$$
100429
  Mrv171c012251910542D          

 12 12  0  0  0  0            999 V2000
    3.8542   -1.2557    0.0000 O   0  5  0  0  0  0  0  0  0  0  0  0
    3.1397   -0.8432    0.0000 N   0  3  0  0  0  0  0  0  0  0  0  0
    2.4253   -1.2557    0.0000 C   0  0  0  0  0  0  0  0  0  0  0  0
    1.7108   -0.8432    0.0000 C   0  0  0  0  0  0  0  0  0  0  0  0
    1.7108   -0.0182    0.0000 Cl  0  0  0  0  0  0  0  0  0  0  0  0
    0.9963   -1.2557    0.0000 C   0  0  0  0  0  0  0  0  0  0  0  0
    0.9963   -2.0807    0.0000 C   0  0  0  0  0  0  0  0  0  0  0  0
    0.2818   -2.4932    0.0000 Cl  0  0  0  0  0  0  0  0  0  0  0  0
    1.7108   -2.4932    0.0000 C   0  0  0  0  0  0  0  0  0  0  0  0
    2.4253   -2.0807    0.0000 C   0  0  0  0  0  0  0  0  0  0  0  0
    3.1397   -2.4932    0.0000 Cl  0  0  0  0  0  0  0  0  0  0  0  0
    3.1397   -0.0182    0.0000 O   0  0  0  0  0  0  0  0  0  0  0  0
  1  2  1  0  0  0  0
  2  3  1  0  0  0  0
  4  3  1  0  0  0  0
  4  5  1  0  0  0  0
  6  4  2  0  0  0  0
  7  6  1  0  0  0  0
  7  8  1  0  0  0  0
  9  7  2  0  0  0  0
 10  9  1  0  0  0  0
  3 10  2  0  0  0  0
 10 11  1  0  0  0  0
  2 12  2  0  0  0  0
M  CHG  2   1  -1   2   1
M  END
> <ChemID>
100429

> <CAS>
18708-70-8

> <Original_SMILES>
[O-][N+](=O)c1c(Cl)cc(Cl)cc1Cl

> <preferred_name>
2,4,6-Trichloronitrobenzene

> <dsstox_substance_id>
DTXSID0026204

> <dsstox_compound_id>
DTXCID606204

> <qc_level>
DSSTox_Low

> <Canonical_QSARr>
[O-][N+](=O)C1C(Cl)=CC(Cl)=CC=1Cl

> <InChI_Code_QSARr>
InChI=1S/C6H2Cl3NO2/c7-3-1-4(8)6(10(11)12)5(9)2-3/h1-2H

> <InChI Key_QSARr>
AEBJDOTVYMITIA-UHFFFAOYSA-N

> <Salt_Solvent>


> <Salt_Solvent_ID>
0

> <MPID>
102043

> <LogKmHL>
0.71

> <Tr_1_Tst_0>
1

$$$$
100430
  Mrv171c012251910542D          

 20 21  0  0  0  0            999 V2000
    3.7606   -3.5821    0.0000 P   0  0  0  0  0  0  0  0  0  0  0  0
    3.4250   -4.3358    0.0000 O   0  0  0  0  0  0  0  0  0  0  0  0
    3.9100   -5.0032    0.0000 C   0  0  0  0  0  0  0  0  0  0  0  0
    3.5744   -5.7569    0.0000 C   0  0  0  0  0  0  0  0  0  0  0  0
    4.5143   -3.9177    0.0000 O   0  0  0  0  0  0  0  0  0  0  0  0
    5.1817   -3.4328    0.0000 C   0  0  0  0  0  0  0  0  0  0  0  0
    5.9354   -3.7683    0.0000 C   0  0  0  0  0  0  0  0  0  0  0  0
    4.0961   -2.8284    0.0000 O   0  0  0  0  0  0  0  0  0  0  0  0
    3.6112   -2.1610    0.0000 C   0  0  0  0  0  0  0  0  0  0  0  0
    3.8662   -1.3764    0.0000 C   0  0  0  0  0  0  0  0  0  0  0  0
    3.1987   -0.8915    0.0000 C   0  0  0  0  0  0  0  0  0  0  0  0
    3.1987   -0.0665    0.0000 C   0  0  0  0  0  0  0  0  0  0  0  0
    3.9132    0.3460    0.0000 C   0  0  0  0  0  0  0  0  0  0  0  0
    3.9132    1.1710    0.0000 C   0  0  0  0  0  0  0  0  0  0  0  0
    3.1987    1.5835    0.0000 C   0  0  0  0  0  0  0  0  0  0  0  0
    2.4843    1.1710    0.0000 C   0  0  0  0  0  0  0  0  0  0  0  0
    2.4843    0.3460    0.0000 C   0  0  0  0  0  0  0  0  0  0  0  0
    2.5313   -1.3764    0.0000 O   0  0  0  0  0  0  0  0  0  0  0  0
    2.7862   -2.1610    0.0000 N   0  0  0  0  0  0  0  0  0  0  0  0
    3.0069   -3.2466    0.0000 S   0  0  0  0  0  0  0  0  0  0  0  0
  1  2  1  0  0  0  0
  2  3  1  0  0  0  0
  3  4  1  0  0  0  0
  1  5  1  0  0  0  0
  5  6  1  0  0  0  0
  6  7  1  0  0  0  0
  1  8  1  0  0  0  0
  8  9  1  0  0  0  0
 10  9  1  0  0  0  0
 11 10  2  0  0  0  0
 11 12  1  0  0  0  0
 13 12  1  0  0  0  0
 14 13  2  0  0  0  0
 15 14  1  0  0  0  0
 16 15  2  0  0  0  0
 17 16  1  0  0  0  0
 12 17  2  0  0  0  0
 18 11  1  0  0  0  0
 19 18  1  0  0  0  0
  9 19  2  0  0  0  0
  1 20  2  0  0  0  0
M  END
> <ChemID>
100430

> <CAS>
18854-01-8

> <Original_SMILES>
CCOP(=S)(Oc1cc(o[n]1)-c1ccccc1)OCC

> <preferred_name>
Isoxathion

> <dsstox_substance_id>
DTXSID0042080

> <dsstox_compound_id>
DTXCID8022080

> <qc_level>
DSSTox_Low

> <Canonical_QSARr>
CCOP(=S)(OC1C=C(ON=1)C1C=CC=CC=1)OCC

> <InChI_Code_QSARr>
InChI=1S/C13H16NO4PS/c1-3-15-19(20,16-4-2)18-13-10-12(17-14-13)11-8-6-5-7-9-11/h5-10H,3-4H2,1-2H3

> <InChI Key_QSARr>
SDMSCIWHRZJSRN-UHFFFAOYSA-N

> <Salt_Solvent>


> <Salt_Solvent_ID>
0

> <MPID>
102044

> <LogKmHL>
1.05

> <Tr_1_Tst_0>
1

$$$$
100431
  Mrv171c012251910542D          

 20 22  0  0  0  0            999 V2000
    2.8797   -0.8581    0.0000 O   0  0  0  0  0  0  0  0  0  0  0  0
    3.5941   -1.2706    0.0000 C   0  0  0  0  0  0  0  0  0  0  0  0
    4.3086   -0.8581    0.0000 C   0  0  0  0  0  0  0  0  0  0  0  0
    4.3086   -0.0331    0.0000 Cl  0  0  0  0  0  0  0  0  0  0  0  0
    5.0231   -1.2706    0.0000 C   0  0  0  0  0  0  0  0  0  0  0  0
    5.7375   -0.8581    0.0000 Cl  0  0  0  0  0  0  0  0  0  0  0  0
    5.0231   -2.0956    0.0000 C   0  0  0  0  0  0  0  0  0  0  0  0
    5.7375   -2.5081    0.0000 Cl  0  0  0  0  0  0  0  0  0  0  0  0
    4.3086   -2.5081    0.0000 C   0  0  0  0  0  0  0  0  0  0  0  0
    3.5941   -2.0956    0.0000 C   0  0  0  0  0  0  0  0  0  0  0  0
    2.8797   -2.5081    0.0000 O   0  0  0  0  0  0  0  0  0  0  0  0
    2.1652   -2.0956    0.0000 C   0  0  0  0  0  0  0  0  0  0  0  0
    1.4507   -2.5081    0.0000 C   0  0  0  0  0  0  0  0  0  0  0  0
    0.7362   -2.0956    0.0000 C   0  0  0  0  0  0  0  0  0  0  0  0
    0.0218   -2.5081    0.0000 Cl  0  0  0  0  0  0  0  0  0  0  0  0
    0.7362   -1.2706    0.0000 C   0  0  0  0  0  0  0  0  0  0  0  0
    0.0218   -0.8581    0.0000 Cl  0  0  0  0  0  0  0  0  0  0  0  0
    1.4507   -0.8581    0.0000 C   0  0  0  0  0  0  0  0  0  0  0  0
    1.4507   -0.0331    0.0000 Cl  0  0  0  0  0  0  0  0  0  0  0  0
    2.1652   -1.2706    0.0000 C   0  0  0  0  0  0  0  0  0  0  0  0
  2  1  1  0  0  0  0
  2  3  1  0  0  0  0
  3  4  1  0  0  0  0
  3  5  2  0  0  0  0
  5  6  1  0  0  0  0
  5  7  1  0  0  0  0
  7  8  1  0  0  0  0
  7  9  2  0  0  0  0
  9 10  1  0  0  0  0
 10  2  2  0  0  0  0
 11 10  1  0  0  0  0
 12 11  1  0  0  0  0
 12 13  1  0  0  0  0
 13 14  2  0  0  0  0
 14 15  1  0  0  0  0
 14 16  1  0  0  0  0
 16 17  1  0  0  0  0
 16 18  2  0  0  0  0
 18 19  1  0  0  0  0
 18 20  1  0  0  0  0
  1 20  1  0  0  0  0
 20 12  2  0  0  0  0
M  END
> <ChemID>
100431

> <CAS>
19408-74-3

> <Original_SMILES>
Clc1cc2Oc3cc(Cl)c(Cl)c(Cl)c3Oc2c(Cl)c1Cl

> <preferred_name>
Hexachlorodibenzo-p-dioxin

> <dsstox_substance_id>
DTXSID6023781

> <dsstox_compound_id>
DTXCID10677

> <qc_level>
DSSTox_Low

> <Canonical_QSARr>
ClC1=CC2OC3C=C(Cl)C(Cl)=C(Cl)C=3OC=2C(Cl)=C1Cl

> <InChI_Code_QSARr>
InChI=1S/C12H2Cl6O2/c13-3-1-5-11(9(17)7(3)15)20-12-6(19-5)2-4(14)8(16)10(12)18/h1-2H

> <InChI Key_QSARr>
LGIRBUBHIWTVCK-UHFFFAOYSA-N

> <Salt_Solvent>


> <Salt_Solvent_ID>
0

> <MPID>
102045

> <LogKmHL>
1.3

> <Tr_1_Tst_0>
1

$$$$
100432
  Mrv171c012251910542D          

 22 23  0  0  0  0            999 V2000
    2.9970   -1.8270    0.0000 N   0  0  0  0  0  0  0  0  0  0  0  0
    3.7816   -1.5721    0.0000 C   0  0  0  0  0  0  0  0  0  0  0  0
    4.3947   -2.1241    0.0000 C   0  0  0  0  0  0  0  0  0  0  0  0
    4.2232   -2.9311    0.0000 Cl  0  0  0  0  0  0  0  0  0  0  0  0
    5.1794   -1.8692    0.0000 C   0  0  0  0  0  0  0  0  0  0  0  0
    5.3509   -1.0622    0.0000 C   0  0  0  0  0  0  0  0  0  0  0  0
    6.1355   -0.8073    0.0000 Cl  0  0  0  0  0  0  0  0  0  0  0  0
    4.7378   -0.5102    0.0000 C   0  0  0  0  0  0  0  0  0  0  0  0
    4.9093    0.2968    0.0000 O   0  0  0  0  0  0  0  0  0  0  0  0
    5.6939    0.5517    0.0000 C   0  0  0  0  0  0  0  0  0  0  0  0
    5.8655    1.3587    0.0000 C   0  0  0  0  0  0  0  0  0  0  0  0
    6.3070   -0.0003    0.0000 C   0  0  0  0  0  0  0  0  0  0  0  0
    3.9532   -0.7651    0.0000 C   0  0  0  0  0  0  0  0  0  0  0  0
    2.3296   -1.3421    0.0000 C   0  0  0  0  0  0  0  0  0  0  0  0
    2.3296   -0.5171    0.0000 O   0  0  0  0  0  0  0  0  0  0  0  0
    1.6621   -1.8270    0.0000 O   0  0  0  0  0  0  0  0  0  0  0  0
    1.9171   -2.6116    0.0000 C   0  0  0  0  0  0  0  0  0  0  0  0
    1.4322   -3.2791    0.0000 C   0  0  0  0  0  0  0  0  0  0  0  0
    0.9472   -3.9465    0.0000 C   0  0  0  0  0  0  0  0  0  0  0  0
    0.7647   -2.7941    0.0000 C   0  0  0  0  0  0  0  0  0  0  0  0
    2.0996   -3.7640    0.0000 C   0  0  0  0  0  0  0  0  0  0  0  0
    2.7421   -2.6116    0.0000 N   0  0  0  0  0  0  0  0  0  0  0  0
  1  2  1  0  0  0  0
  3  2  2  0  0  0  0
  3  4  1  0  0  0  0
  5  3  1  0  0  0  0
  6  5  2  0  0  0  0
  6  7  1  0  0  0  0
  8  6  1  0  0  0  0
  8  9  1  0  0  0  0
  9 10  1  0  0  0  0
 10 11  1  0  0  0  0
 10 12  1  0  0  0  0
 13  8  2  0  0  0  0
  2 13  1  0  0  0  0
 14  1  1  0  0  0  0
 14 15  2  0  0  0  0
 16 14  1  0  0  0  0
 17 16  1  0  0  0  0
 17 18  1  0  0  0  0
 18 19  1  0  0  0  0
 18 20  1  0  0  0  0
 18 21  1  0  0  0  0
 22 17  2  0  0  0  0
  1 22  1  0  0  0  0
M  END
> <ChemID>
100432

> <CAS>
19666-30-9

> <Original_SMILES>
CC(C)Oc1cc(c(Cl)cc1Cl)N1N=C(OC1=O)C(C)(C)C

> <preferred_name>
Oxadiazon

> <dsstox_substance_id>
DTXSID3024239

> <dsstox_compound_id>
DTXCID304239

> <qc_level>
DSSTox_Low

> <Canonical_QSARr>
CC(C)OC1=CC(=C(Cl)C=C1Cl)N1N=C(OC1=O)C(C)(C)C

> <InChI_Code_QSARr>
InChI=1S/C15H18Cl2N2O3/c1-8(2)21-12-7-11(9(16)6-10(12)17)19-14(20)22-13(18-19)15(3,4)5/h6-8H,1-5H3

> <InChI Key_QSARr>
CHNUNORXWHYHNE-UHFFFAOYSA-N

> <Salt_Solvent>


> <Salt_Solvent_ID>
0

> <MPID>
102046

> <LogKmHL>
0.77

> <Tr_1_Tst_0>
0

$$$$
100433
  Mrv171c012251910542D          

 11 10  0  0  0  0            999 V2000
   -0.1203   -1.2416    0.0000 C   0  0  0  0  0  0  0  0  0  0  0  0
    0.5942   -1.6541    0.0000 C   0  0  0  0  0  0  0  0  0  0  0  0
    1.3087   -1.2416    0.0000 C   0  0  0  0  0  0  0  0  0  0  0  0
    2.0231   -1.6541    0.0000 C   0  0  0  0  0  0  0  0  0  0  0  0
    2.7376   -1.2416    0.0000 C   0  0  0  0  0  0  0  0  0  0  0  0
    2.7376   -0.4166    0.0000 C   0  0  0  0  0  0  0  0  0  0  0  0
    3.4521   -0.0041    0.0000 C   0  0  0  0  0  0  0  0  0  0  0  0
    3.4521   -1.6541    0.0000 C   0  0  0  0  0  0  0  0  0  0  0  0
    4.1666   -1.2416    0.0000 C   0  0  0  0  0  0  0  0  0  0  0  0
    4.8810   -1.6541    0.0000 C   0  0  0  0  0  0  0  0  0  0  0  0
    5.5955   -1.2416    0.0000 C   0  0  0  0  0  0  0  0  0  0  0  0
  1  2  2  0  0  0  0
  2  3  1  0  0  0  0
  3  4  1  0  0  0  0
  4  5  1  0  0  0  0
  5  6  1  0  0  0  0
  6  7  1  0  0  0  0
  5  8  1  0  0  0  0
  8  9  1  0  0  0  0
  9 10  1  0  0  0  0
 10 11  1  0  0  0  0
M  END
> <ChemID>
100433

> <CAS>
19780-74-6

> <Original_SMILES>
CCCCC(CCC=C)CC

> <preferred_name>


> <dsstox_substance_id>
DTXSID40874267

> <dsstox_compound_id>
DTXCID001012397

> <qc_level>


> <Canonical_QSARr>
CCCCC(CCC=C)CC

> <InChI_Code_QSARr>
InChI=1S/C11H22/c1-4-7-9-11(6-3)10-8-5-2/h4,11H,1,5-10H2,2-3H3

> <InChI Key_QSARr>
FERQWJMFSVKKGT-UHFFFAOYSA-N

> <Salt_Solvent>


> <Salt_Solvent_ID>
0

> <MPID>
102047

> <LogKmHL>
0.93

> <Tr_1_Tst_0>
1

$$$$
100434
  Mrv171c012251910542D          

 14 15  0  0  0  0            999 V2000
    0.1016   -0.8257    0.0000 Cl  0  0  0  0  0  0  0  0  0  0  0  0
    0.8160   -1.2382    0.0000 C   0  0  0  0  0  0  0  0  0  0  0  0
    1.5305   -0.8257    0.0000 C   0  0  0  0  0  0  0  0  0  0  0  0
    1.5305   -0.0007    0.0000 Cl  0  0  0  0  0  0  0  0  0  0  0  0
    2.2450   -1.2382    0.0000 C   0  0  0  0  0  0  0  0  0  0  0  0
    2.9594   -0.8257    0.0000 C   0  0  0  0  0  0  0  0  0  0  0  0
    3.6739   -1.2382    0.0000 C   0  0  0  0  0  0  0  0  0  0  0  0
    3.6739   -2.0632    0.0000 C   0  0  0  0  0  0  0  0  0  0  0  0
    2.9594   -2.4757    0.0000 C   0  0  0  0  0  0  0  0  0  0  0  0
    2.2450   -2.0632    0.0000 C   0  0  0  0  0  0  0  0  0  0  0  0
    1.5305   -2.4757    0.0000 C   0  0  0  0  0  0  0  0  0  0  0  0
    1.5305   -3.3007    0.0000 Cl  0  0  0  0  0  0  0  0  0  0  0  0
    0.8160   -2.0632    0.0000 C   0  0  0  0  0  0  0  0  0  0  0  0
    0.1016   -2.4757    0.0000 Cl  0  0  0  0  0  0  0  0  0  0  0  0
  1  2  1  0  0  0  0
  3  2  1  0  0  0  0
  3  4  1  0  0  0  0
  5  3  2  0  0  0  0
  5  6  1  0  0  0  0
  6  7  2  0  0  0  0
  7  8  1  0  0  0  0
  8  9  2  0  0  0  0
  9 10  1  0  0  0  0
 10  5  1  0  0  0  0
 11 10  2  0  0  0  0
 11 12  1  0  0  0  0
 13 11  1  0  0  0  0
  2 13  2  0  0  0  0
 13 14  1  0  0  0  0
M  END
> <ChemID>
100434

> <CAS>
20020-02-4

> <Original_SMILES>
Clc1c2ccccc2c(Cl)c(Cl)c1Cl

> <preferred_name>
1,2,3,4-Tetrachloronaphthalene

> <dsstox_substance_id>
DTXSID5026095

> <dsstox_compound_id>
DTXCID306095

> <qc_level>
DSSTox_Low

> <Canonical_QSARr>
ClC1=C2C=CC=CC2=C(Cl)C(Cl)=C1Cl

> <InChI_Code_QSARr>
InChI=1S/C10H4Cl4/c11-7-5-3-1-2-4-6(5)8(12)10(14)9(7)13/h1-4H

> <InChI Key_QSARr>
NAQWICRLNQSPPW-UHFFFAOYSA-N

> <Salt_Solvent>


> <Salt_Solvent_ID>
0

> <MPID>
102048

> <LogKmHL>
1.2

> <Tr_1_Tst_0>
1

$$$$
100435
  Mrv171c012251910542D          

 14 15  0  0  0  0            999 V2000
    4.6266   -2.6270    0.0000 S   0  0  0  0  0  0  0  0  0  0  0  0
    3.9121   -2.2145    0.0000 C   0  0  0  0  0  0  0  0  0  0  0  0
    3.1976   -2.6270    0.0000 S   0  0  0  0  0  0  0  0  0  0  0  0
    2.4831   -2.2145    0.0000 C   0  0  0  0  0  0  0  0  0  0  0  0
    1.7295   -2.5501    0.0000 S   0  0  0  0  0  0  0  0  0  0  0  0
    1.1774   -1.9370    0.0000 C   0  0  0  0  0  0  0  0  0  0  0  0
    0.3524   -1.9370    0.0000 C   0  0  0  0  0  0  0  0  0  0  0  0
   -0.0601   -1.2225    0.0000 C   0  0  0  0  0  0  0  0  0  0  0  0
    0.3524   -0.5080    0.0000 C   0  0  0  0  0  0  0  0  0  0  0  0
    1.1774   -0.5080    0.0000 C   0  0  0  0  0  0  0  0  0  0  0  0
    1.5899   -1.2225    0.0000 C   0  0  0  0  0  0  0  0  0  0  0  0
    2.3969   -1.3940    0.0000 N   0  0  0  0  0  0  0  0  0  0  0  0
    5.3410   -2.2145    0.0000 C   0  0  0  0  0  0  0  0  0  0  0  0
    6.0555   -1.8020    0.0000 N   0  0  0  0  0  0  0  0  0  0  0  0
  1  2  1  0  0  0  0
  2  3  1  0  0  0  0
  3  4  1  0  0  0  0
  5  4  1  0  0  0  0
  6  5  1  0  0  0  0
  6  7  2  0  0  0  0
  7  8  1  0  0  0  0
  8  9  2  0  0  0  0
  9 10  1  0  0  0  0
 10 11  2  0  0  0  0
 11  6  1  0  0  0  0
 12 11  1  0  0  0  0
  4 12  2  0  0  0  0
  1 13  1  0  0  0  0
 13 14  3  0  0  0  0
M  END
> <ChemID>
100435

> <CAS>
21564-17-0

> <Original_SMILES>
N#CSCSc1[n]c2ccccc2[s]1

> <preferred_name>
2-(Thiocyanomethylthio)benzothiazole

> <dsstox_substance_id>
DTXSID6032647

> <dsstox_compound_id>
DTXCID4012647

> <qc_level>
DSSTox_Low

> <Canonical_QSARr>
N#CSCSC1=NC2=CC=CC=C2S1

> <InChI_Code_QSARr>
InChI=1S/C9H6N2S3/c10-5-12-6-13-9-11-7-3-1-2-4-8(7)14-9/h1-4H,6H2

> <InChI Key_QSARr>
TUBQDCKAWGHZPF-UHFFFAOYSA-N

> <Salt_Solvent>


> <Salt_Solvent_ID>
0

> <MPID>
102049

> <LogKmHL>
-1.01

> <Tr_1_Tst_0>
1

$$$$
100436
  Mrv171c012251910542D          

 20 21  0  0  0  0            999 V2000
    3.5825   -2.0683    0.0000 P   0  0  0  0  0  0  0  0  0  0  0  0
    2.7575   -2.0683    0.0000 O   0  0  0  0  0  0  0  0  0  0  0  0
    2.3450   -2.7828    0.0000 C   0  0  0  0  0  0  0  0  0  0  0  0
    3.5825   -2.8933    0.0000 C   0  0  0  0  0  0  0  0  0  0  0  0
    2.8680   -3.3058    0.0000 C   0  0  0  0  0  0  0  0  0  0  0  0
    2.8680   -4.1308    0.0000 C   0  0  0  0  0  0  0  0  0  0  0  0
    3.5825   -4.5433    0.0000 C   0  0  0  0  0  0  0  0  0  0  0  0
    4.2970   -4.1308    0.0000 C   0  0  0  0  0  0  0  0  0  0  0  0
    4.2970   -3.3058    0.0000 C   0  0  0  0  0  0  0  0  0  0  0  0
    4.4075   -2.0683    0.0000 S   0  0  0  0  0  0  0  0  0  0  0  0
    3.5825   -1.2433    0.0000 O   0  0  0  0  0  0  0  0  0  0  0  0
    2.8680   -0.8308    0.0000 C   0  0  0  0  0  0  0  0  0  0  0  0
    2.8680   -0.0058    0.0000 C   0  0  0  0  0  0  0  0  0  0  0  0
    3.5825    0.4067    0.0000 Cl  0  0  0  0  0  0  0  0  0  0  0  0
    2.1536    0.4067    0.0000 C   0  0  0  0  0  0  0  0  0  0  0  0
    1.4391   -0.0058    0.0000 C   0  0  0  0  0  0  0  0  0  0  0  0
    0.7246    0.4067    0.0000 Br  0  0  0  0  0  0  0  0  0  0  0  0
    1.4391   -0.8308    0.0000 C   0  0  0  0  0  0  0  0  0  0  0  0
    0.7246   -1.2433    0.0000 Cl  0  0  0  0  0  0  0  0  0  0  0  0
    2.1536   -1.2433    0.0000 C   0  0  0  0  0  0  0  0  0  0  0  0
  1  2  1  0  0  0  0
  2  3  1  0  0  0  0
  1  4  1  0  0  0  0
  5  4  2  0  0  0  0
  6  5  1  0  0  0  0
  7  6  2  0  0  0  0
  8  7  1  0  0  0  0
  9  8  2  0  0  0  0
  4  9  1  0  0  0  0
  1 10  2  0  0  0  0
  1 11  1  0  0  0  0
 11 12  1  0  0  0  0
 13 12  1  0  0  0  0
 13 14  1  0  0  0  0
 15 13  2  0  0  0  0
 16 15  1  0  0  0  0
 16 17  1  0  0  0  0
 18 16  2  0  0  0  0
 18 19  1  0  0  0  0
 20 18  1  0  0  0  0
 12 20  2  0  0  0  0
M  END
> <ChemID>
100436

> <CAS>
21609-90-5

> <Original_SMILES>
COP(=S)(Oc1cc(Cl)c(Br)cc1Cl)c1ccccc1

> <preferred_name>
Leptophos

> <dsstox_substance_id>
DTXSID3040279

> <dsstox_compound_id>
DTXCID1020279

> <qc_level>
DSSTox_Low

> <Canonical_QSARr>
COP(=S)(OC1=CC(Cl)=C(Br)C=C1Cl)C1C=CC=CC=1

> <InChI_Code_QSARr>
InChI=1S/C13H10BrCl2O2PS/c1-17-19(20,9-5-3-2-4-6-9)18-13-8-11(15)10(14)7-12(13)16/h2-8H,1H3

> <InChI Key_QSARr>
CVRALZAYCYJELZ-UHFFFAOYSA-N

> <Salt_Solvent>


> <Salt_Solvent_ID>
0

> <MPID>
102050

> <LogKmHL>
1.26

> <Tr_1_Tst_0>
0

$$$$
100437
  Mrv171c012251910542D          

 12 12  0  0  0  0            999 V2000
    2.3645   -0.8250    0.0000 C   0  0  0  0  0  0  0  0  0  0  0  0
    2.3645   -1.6500    0.0000 C   0  0  0  0  0  0  0  0  0  0  0  0
    1.6500   -2.0625    0.0000 C   0  0  0  0  0  0  0  0  0  0  0  0
    3.0789   -2.0625    0.0000 C   0  0  0  0  0  0  0  0  0  0  0  0
    3.0789   -0.4125    0.0000 C   0  0  0  0  0  0  0  0  0  0  0  0
    3.0789    0.4125    0.0000 C   0  0  0  0  0  0  0  0  0  0  0  0
    2.3645    0.8250    0.0000 C   0  0  0  0  0  0  0  0  0  0  0  0
    2.3645    1.6500    0.0000 C   0  0  0  0  0  0  0  0  0  0  0  0
    1.6500    2.0625    0.0000 C   0  0  0  0  0  0  0  0  0  0  0  0
    3.0789    2.0625    0.0000 C   0  0  0  0  0  0  0  0  0  0  0  0
    1.6500    0.4125    0.0000 C   0  0  0  0  0  0  0  0  0  0  0  0
    1.6500   -0.4125    0.0000 C   0  0  0  0  0  0  0  0  0  0  0  0
  1  2  1  0  0  0  0
  2  3  1  0  0  0  0
  2  4  1  0  0  0  0
  5  1  1  0  0  0  0
  6  5  1  0  0  0  0
  7  6  1  0  0  0  0
  7  8  1  0  0  0  0
  8  9  1  0  0  0  0
  8 10  1  0  0  0  0
 11  7  1  0  0  0  0
 12 11  1  0  0  0  0
  1 12  1  0  0  0  0
M  END
> <ChemID>
100437

> <CAS>
22907-72-8

> <Original_SMILES>
CC(C)C1CCC(CC1)C(C)C

> <preferred_name>
1,4-Di-isopropylcyclohexane

> <dsstox_substance_id>
DTXSID70177450

> <dsstox_compound_id>
DTXCID5099941

> <qc_level>
Public_Medium

> <Canonical_QSARr>
CC(C)C1CCC(CC1)C(C)C

> <InChI_Code_QSARr>
InChI=1S/C12H24/c1-9(2)11-5-7-12(8-6-11)10(3)4/h9-12H,5-8H2,1-4H3

> <InChI Key_QSARr>
GMUJGUXGVJZHSK-UHFFFAOYSA-N

> <Salt_Solvent>


> <Salt_Solvent_ID>
0

> <MPID>
102051

> <LogKmHL>
0.97

> <Tr_1_Tst_0>
1

$$$$
100438
  Mrv171c012251910542D          

 14 15  0  0  0  0            999 V2000
    2.4808    0.6935    0.0000 C   0  0  0  0  0  0  0  0  0  0  0  0
    2.1986    1.4688    0.0000 C   0  0  0  0  0  0  0  0  0  0  0  0
    1.6683    0.5503    0.0000 C   0  0  0  0  0  0  0  0  0  0  0  0
    3.1953    1.1060    0.0000 C   0  0  0  0  0  0  0  0  0  0  0  0
    3.9097    0.6935    0.0000 C   0  0  0  0  0  0  0  0  0  0  0  0
    4.6242    1.1060    0.0000 C   0  0  0  0  0  0  0  0  0  0  0  0
    5.3387    0.6935    0.0000 C   0  0  0  0  0  0  0  0  0  0  0  0
    6.0531    1.1060    0.0000 C   0  0  0  0  0  0  0  0  0  0  0  0
    5.3387   -0.1315    0.0000 C   0  0  0  0  0  0  0  0  0  0  0  0
    4.6242   -0.5440    0.0000 C   0  0  0  0  0  0  0  0  0  0  0  0
    4.6242   -1.3690    0.0000 C   0  0  0  0  0  0  0  0  0  0  0  0
    3.9097   -0.1315    0.0000 C   0  0  0  0  0  0  0  0  0  0  0  0
    3.1953   -0.5440    0.0000 C   0  0  0  0  0  0  0  0  0  0  0  0
    2.4808   -0.1315    0.0000 C   0  0  0  0  0  0  0  0  0  0  0  0
  1  2  1  0  0  0  0
  1  3  1  0  0  0  0
  4  1  1  0  0  0  0
  5  4  1  0  0  0  0
  5  6  2  0  0  0  0
  6  7  1  0  0  0  0
  7  8  1  0  0  0  0
  7  9  2  0  0  0  0
  9 10  1  0  0  0  0
 10 11  1  0  0  0  0
 10 12  2  0  0  0  0
 12  5  1  0  0  0  0
 13 12  1  0  0  0  0
 14 13  1  0  0  0  0
  1 14  1  0  0  0  0
M  END
> <ChemID>
100438

> <CAS>
23342-25-8

> <Original_SMILES>
Cc1cc2CC(C)(C)CCc2c(C)c1

> <preferred_name>
2,2,5,7-Tetramethyltetralin

> <dsstox_substance_id>
DTXSID80177901

> <dsstox_compound_id>
DTXCID00100392

> <qc_level>
Public_Medium

> <Canonical_QSARr>
CC1C=C2CC(C)(C)CCC2=C(C)C=1

> <InChI_Code_QSARr>
InChI=1S/C14H20/c1-10-7-11(2)13-5-6-14(3,4)9-12(13)8-10/h7-8H,5-6,9H2,1-4H3

> <InChI Key_QSARr>
LPZOMHQRIWIZSX-UHFFFAOYSA-N

> <Salt_Solvent>


> <Salt_Solvent_ID>
0

> <MPID>
102052

> <LogKmHL>
0.32

> <Tr_1_Tst_0>
1

$$$$
100440
  Mrv171c012251910542D          

 22 22  0  0  0  0            999 V2000
    2.4121   -2.3208    0.0000 P   0  0  0  0  0  0  0  0  0  0  0  0
    1.6977   -2.7333    0.0000 O   0  0  0  0  0  0  0  0  0  0  0  0
    0.9832   -2.3208    0.0000 C   0  0  0  0  0  0  0  0  0  0  0  0
    0.2687   -2.7333    0.0000 C   0  0  0  0  0  0  0  0  0  0  0  0
    2.8246   -3.0352    0.0000 S   0  0  0  0  0  0  0  0  0  0  0  0
    1.9996   -1.6063    0.0000 N   0  0  0  0  0  0  0  0  0  0  0  0
    2.4121   -0.8918    0.0000 C   0  0  0  0  0  0  0  0  0  0  0  0
    3.2371   -0.8918    0.0000 C   0  0  0  0  0  0  0  0  0  0  0  0
    1.9996   -0.1773    0.0000 C   0  0  0  0  0  0  0  0  0  0  0  0
    3.1266   -1.9083    0.0000 O   0  0  0  0  0  0  0  0  0  0  0  0
    3.8411   -2.3208    0.0000 C   0  0  0  0  0  0  0  0  0  0  0  0
    3.8411   -3.1458    0.0000 C   0  0  0  0  0  0  0  0  0  0  0  0
    4.5555   -3.5583    0.0000 C   0  0  0  0  0  0  0  0  0  0  0  0
    5.2700   -3.1458    0.0000 C   0  0  0  0  0  0  0  0  0  0  0  0
    5.2700   -2.3208    0.0000 C   0  0  0  0  0  0  0  0  0  0  0  0
    4.5555   -1.9083    0.0000 C   0  0  0  0  0  0  0  0  0  0  0  0
    4.5555   -1.0833    0.0000 C   0  0  0  0  0  0  0  0  0  0  0  0
    5.2700   -0.6708    0.0000 O   0  0  0  0  0  0  0  0  0  0  0  0
    3.8411   -0.6708    0.0000 O   0  0  0  0  0  0  0  0  0  0  0  0
    3.8411    0.1542    0.0000 C   0  0  0  0  0  0  0  0  0  0  0  0
    4.5555    0.5667    0.0000 C   0  0  0  0  0  0  0  0  0  0  0  0
    3.1266    0.5667    0.0000 C   0  0  0  0  0  0  0  0  0  0  0  0
  1  2  1  0  0  0  0
  2  3  1  0  0  0  0
  3  4  1  0  0  0  0
  1  5  2  0  0  0  0
  1  6  1  0  0  0  0
  6  7  1  0  0  0  0
  7  8  1  0  0  0  0
  7  9  1  0  0  0  0
  1 10  1  0  0  0  0
 10 11  1  0  0  0  0
 12 11  2  0  0  0  0
 13 12  1  0  0  0  0
 14 13  2  0  0  0  0
 15 14  1  0  0  0  0
 16 15  2  0  0  0  0
 11 16  1  0  0  0  0
 16 17  1  0  0  0  0
 17 18  2  0  0  0  0
 17 19  1  0  0  0  0
 19 20  1  0  0  0  0
 20 21  1  0  0  0  0
 20 22  1  0  0  0  0
M  END
> <ChemID>
100440

> <CAS>
25311-71-1

> <Original_SMILES>
CCOP(=S)(NC(C)C)Oc1ccccc1C(=O)OC(C)C

> <preferred_name>
Isofenphos

> <dsstox_substance_id>
DTXSID8032417

> <dsstox_compound_id>
DTXCID6012417

> <qc_level>
DSSTox_Low

> <Canonical_QSARr>
CCOP(=S)(NC(C)C)OC1=CC=CC=C1C(=O)OC(C)C

> <InChI_Code_QSARr>
InChI=1S/C15H24NO4PS/c1-6-18-21(22,16-11(2)3)20-14-10-8-7-9-13(14)15(17)19-12(4)5/h7-12H,6H2,1-5H3,(H,16,22)

> <InChI Key_QSARr>
HOQADATXFBOEGG-UHFFFAOYSA-N

> <Salt_Solvent>


> <Salt_Solvent_ID>
0

> <MPID>
102053

> <LogKmHL>
-0.51

> <Tr_1_Tst_0>
1

$$$$
100442
  Mrv171c012251910542D          

 18 18  0  0  0  0            999 V2000
    4.0831    1.1658    0.0000 C   0  0  0  0  0  0  0  0  0  0  0  0
    4.0831    0.3408    0.0000 C   0  0  0  0  0  0  0  0  0  0  0  0
    3.3687   -0.0717    0.0000 O   0  0  0  0  0  0  0  0  0  0  0  0
    3.3687   -0.8967    0.0000 P   0  0  0  0  0  0  0  0  0  0  0  0
    3.3687   -1.7217    0.0000 S   0  0  0  0  0  0  0  0  0  0  0  0
    2.6542   -2.1342    0.0000 C   0  0  0  0  0  0  0  0  0  0  0  0
    2.6542   -2.9592    0.0000 C   0  0  0  0  0  0  0  0  0  0  0  0
    1.9397   -3.3717    0.0000 C   0  0  0  0  0  0  0  0  0  0  0  0
    1.9397   -4.1967    0.0000 C   0  0  0  0  0  0  0  0  0  0  0  0
    2.6542   -4.6092    0.0000 C   0  0  0  0  0  0  0  0  0  0  0  0
    3.3687   -4.1967    0.0000 C   0  0  0  0  0  0  0  0  0  0  0  0
    3.3687   -3.3717    0.0000 C   0  0  0  0  0  0  0  0  0  0  0  0
    2.5437   -0.8967    0.0000 O   0  0  0  0  0  0  0  0  0  0  0  0
    2.1312   -0.1822    0.0000 C   0  0  0  0  0  0  0  0  0  0  0  0
    2.5437    0.5322    0.0000 C   0  0  0  0  0  0  0  0  0  0  0  0
    1.3062   -0.1822    0.0000 C   0  0  0  0  0  0  0  0  0  0  0  0
    4.1937   -0.8967    0.0000 O   0  0  0  0  0  0  0  0  0  0  0  0
    4.7976   -0.0717    0.0000 C   0  0  0  0  0  0  0  0  0  0  0  0
  1  2  1  0  0  0  0
  2  3  1  0  0  0  0
  3  4  1  0  0  0  0
  4  5  1  0  0  0  0
  5  6  1  0  0  0  0
  6  7  1  0  0  0  0
  8  7  1  0  0  0  0
  9  8  2  0  0  0  0
 10  9  1  0  0  0  0
 11 10  2  0  0  0  0
 12 11  1  0  0  0  0
  7 12  2  0  0  0  0
  4 13  1  0  0  0  0
 13 14  1  0  0  0  0
 14 15  1  0  0  0  0
 14 16  1  0  0  0  0
  4 17  2  0  0  0  0
  2 18  1  0  0  0  0
M  END
> <ChemID>
100442

> <CAS>
26087-47-8

> <Original_SMILES>
CC(C)OP(=O)(OC(C)C)SCc1ccccc1

> <preferred_name>
Iprobenfos

> <dsstox_substance_id>
DTXSID7058040

> <dsstox_compound_id>
DTXCID9031808

> <qc_level>
DSSTox_High

> <Canonical_QSARr>
CC(C)OP(=O)(OC(C)C)SCC1C=CC=CC=1

> <InChI_Code_QSARr>
InChI=1S/C13H21O3PS/c1-11(2)15-17(14,16-12(3)4)18-10-13-8-6-5-7-9-13/h5-9,11-12H,10H2,1-4H3

> <InChI Key_QSARr>
FCOAHACKGGIURQ-UHFFFAOYSA-N

> <Salt_Solvent>


> <Salt_Solvent_ID>
0

> <MPID>
102054

> <LogKmHL>
-1.2

> <Tr_1_Tst_0>
0

$$$$
100445
  Mrv171c012251910542D          

 21 21  0  0  0  0            999 V2000
    0.7530   -1.6931    0.0000 C   0  0  0  0  0  0  0  0  0  0  0  0
    0.0385   -1.2806    0.0000 Cl  0  0  0  0  0  0  0  0  0  0  0  0
    0.7530   -2.5181    0.0000 C   0  0  0  0  0  0  0  0  0  0  0  0
    0.0385   -2.9306    0.0000 Cl  0  0  0  0  0  0  0  0  0  0  0  0
    1.4675   -2.9306    0.0000 N   0  0  0  0  0  0  0  0  0  0  0  0
    2.1819   -2.5181    0.0000 C   0  0  0  0  0  0  0  0  0  0  0  0
    2.8964   -2.9306    0.0000 C   0  0  0  0  0  0  0  0  0  0  0  0
    2.8964   -3.7556    0.0000 O   0  0  0  0  0  0  0  0  0  0  0  0
    3.6109   -2.5181    0.0000 O   0  0  0  0  0  0  0  0  0  0  0  0
    4.3253   -2.9306    0.0000 C   0  0  0  0  0  0  0  0  0  0  0  0
    5.0398   -2.5181    0.0000 C   0  0  0  0  0  0  0  0  0  0  0  0
    5.0398   -1.6931    0.0000 C   0  0  0  0  0  0  0  0  0  0  0  0
    5.7543   -1.2806    0.0000 C   0  0  0  0  0  0  0  0  0  0  0  0
    5.7543   -2.9306    0.0000 C   0  0  0  0  0  0  0  0  0  0  0  0
    6.4688   -2.5181    0.0000 C   0  0  0  0  0  0  0  0  0  0  0  0
    7.1832   -2.9306    0.0000 C   0  0  0  0  0  0  0  0  0  0  0  0
    7.8977   -2.5181    0.0000 C   0  0  0  0  0  0  0  0  0  0  0  0
    2.1819   -1.6931    0.0000 C   0  0  0  0  0  0  0  0  0  0  0  0
    2.8964   -1.2806    0.0000 Cl  0  0  0  0  0  0  0  0  0  0  0  0
    1.4675   -1.2806    0.0000 C   0  0  0  0  0  0  0  0  0  0  0  0
    1.4675   -0.4556    0.0000 N   0  0  0  0  0  0  0  0  0  0  0  0
  1  2  1  0  0  0  0
  3  1  1  0  0  0  0
  3  4  1  0  0  0  0
  5  3  2  0  0  0  0
  6  5  1  0  0  0  0
  6  7  1  0  0  0  0
  7  8  2  0  0  0  0
  7  9  1  0  0  0  0
  9 10  1  0  0  0  0
 10 11  1  0  0  0  0
 11 12  1  0  0  0  0
 12 13  1  0  0  0  0
 11 14  1  0  0  0  0
 14 15  1  0  0  0  0
 15 16  1  0  0  0  0
 16 17  1  0  0  0  0
 18  6  2  0  0  0  0
 18 19  1  0  0  0  0
 20 18  1  0  0  0  0
  1 20  2  0  0  0  0
 20 21  1  0  0  0  0
M  END
> <ChemID>
100445

> <CAS>
26952-20-5

> <Original_SMILES>
CCCCC(COC(=O)c1[n]c(Cl)c(Cl)c(N)c1Cl)CC

> <preferred_name>
Picloram-isoctyl

> <dsstox_substance_id>
DTXSID3039406

> <dsstox_compound_id>
DTXCID1019406

> <qc_level>
DSSTox_Low

> <Canonical_QSARr>
CCCCC(COC(=O)C1N=C(Cl)C(Cl)=C(N)C=1Cl)CC

> <InChI_Code_QSARr>
InChI=1S/C14H19Cl3N2O2/c1-3-5-6-8(4-2)7-21-14(20)12-9(15)11(18)10(16)13(17)19-12/h8H,3-7H2,1-2H3,(H2,18,19)

> <InChI Key_QSARr>
RPDJBUSVCYFTRU-UHFFFAOYSA-N

> <Salt_Solvent>


> <Salt_Solvent_ID>
0

> <MPID>
102055

> <LogKmHL>
0.45

> <Tr_1_Tst_0>
1

$$$$
100446
  Mrv171c012251910542D          

 17 18  0  0  0  0            999 V2000
    1.5660    0.8250    0.0000 Cl  0  0  0  0  0  0  0  0  0  0  0  0
    2.2805    1.2375    0.0000 C   0  0  0  0  0  0  0  0  0  0  0  0
    2.2805    2.0625    0.0000 C   0  0  0  0  0  0  0  0  0  0  0  0
    2.9950    2.4750    0.0000 C   0  0  0  0  0  0  0  0  0  0  0  0
    2.9950    3.3000    0.0000 Cl  0  0  0  0  0  0  0  0  0  0  0  0
    3.7094    2.0625    0.0000 C   0  0  0  0  0  0  0  0  0  0  0  0
    3.7094    1.2375    0.0000 C   0  0  0  0  0  0  0  0  0  0  0  0
    2.9950    0.8250    0.0000 C   0  0  0  0  0  0  0  0  0  0  0  0
    2.9950    0.0000    0.0000 O   0  0  0  0  0  0  0  0  0  0  0  0
    3.7094   -0.4125    0.0000 C   0  0  0  0  0  0  0  0  0  0  0  0
    3.7094   -1.2375    0.0000 C   0  0  0  0  0  0  0  0  0  0  0  0
    4.4239   -1.6500    0.0000 C   0  0  0  0  0  0  0  0  0  0  0  0
    5.1384   -1.2375    0.0000 C   0  0  0  0  0  0  0  0  0  0  0  0
    5.8529   -1.6500    0.0000 Cl  0  0  0  0  0  0  0  0  0  0  0  0
    5.1384   -0.4125    0.0000 C   0  0  0  0  0  0  0  0  0  0  0  0
    4.4239    0.0000    0.0000 C   0  0  0  0  0  0  0  0  0  0  0  0
    4.4239    0.8250    0.0000 Cl  0  0  0  0  0  0  0  0  0  0  0  0
  1  2  1  0  0  0  0
  3  2  1  0  0  0  0
  4  3  2  0  0  0  0
  4  5  1  0  0  0  0
  6  4  1  0  0  0  0
  7  6  2  0  0  0  0
  8  7  1  0  0  0  0
  2  8  2  0  0  0  0
  8  9  1  0  0  0  0
  9 10  1  0  0  0  0
 11 10  1  0  0  0  0
 12 11  2  0  0  0  0
 13 12  1  0  0  0  0
 13 14  1  0  0  0  0
 15 13  2  0  0  0  0
 16 15  1  0  0  0  0
 10 16  2  0  0  0  0
 16 17  1  0  0  0  0
M  END
> <ChemID>
100446

> <CAS>
28076-73-5

> <Original_SMILES>
Clc1cc(Cl)c(cc1)Oc1ccc(Cl)cc1Cl

> <preferred_name>
Bis(2,4-dichlorophenyl)ether

> <dsstox_substance_id>
DTXSID60182351

> <dsstox_compound_id>
DTXCID70104842

> <qc_level>
Public_Medium

> <Canonical_QSARr>
ClC1=CC(Cl)=C(C=C1)OC1C=CC(Cl)=CC=1Cl

> <InChI_Code_QSARr>
InChI=1S/C12H6Cl4O/c13-7-1-3-11(9(15)5-7)17-12-4-2-8(14)6-10(12)16/h1-6H

> <InChI Key_QSARr>
ZRWRPGGXCSSBAO-UHFFFAOYSA-N

> <Salt_Solvent>


> <Salt_Solvent_ID>
0

> <MPID>
102056

> <LogKmHL>
2.28

> <Tr_1_Tst_0>
1

$$$$
100448
  Mrv171c012251910542D          

 16 16  0  0  0  0            999 V2000
    2.4881   -2.4750    0.0000 C   0  0  0  0  0  0  0  0  0  0  0  0
    1.6631   -2.4750    0.0000 N   0  0  0  0  0  0  0  0  0  0  0  0
    1.2506   -3.1894    0.0000 C   0  0  0  0  0  0  0  0  0  0  0  0
    0.4256   -3.1894    0.0000 C   0  0  0  0  0  0  0  0  0  0  0  0
    1.2506   -1.7605    0.0000 C   0  0  0  0  0  0  0  0  0  0  0  0
    1.6631   -1.0460    0.0000 C   0  0  0  0  0  0  0  0  0  0  0  0
    2.9006   -1.7605    0.0000 S   0  0  0  0  0  0  0  0  0  0  0  0
    3.7256   -1.7605    0.0000 C   0  0  0  0  0  0  0  0  0  0  0  0
    4.1381   -1.0460    0.0000 C   0  0  0  0  0  0  0  0  0  0  0  0
    4.9631   -1.0460    0.0000 C   0  0  0  0  0  0  0  0  0  0  0  0
    5.3756   -0.3316    0.0000 C   0  0  0  0  0  0  0  0  0  0  0  0
    4.9631    0.3829    0.0000 C   0  0  0  0  0  0  0  0  0  0  0  0
    5.3756    1.0974    0.0000 Cl  0  0  0  0  0  0  0  0  0  0  0  0
    4.1381    0.3829    0.0000 C   0  0  0  0  0  0  0  0  0  0  0  0
    3.7256   -0.3316    0.0000 C   0  0  0  0  0  0  0  0  0  0  0  0
    2.9006   -3.1894    0.0000 O   0  0  0  0  0  0  0  0  0  0  0  0
  1  2  1  0  0  0  0
  2  3  1  0  0  0  0
  3  4  1  0  0  0  0
  2  5  1  0  0  0  0
  5  6  1  0  0  0  0
  1  7  1  0  0  0  0
  7  8  1  0  0  0  0
  8  9  1  0  0  0  0
 10  9  1  0  0  0  0
 11 10  2  0  0  0  0
 12 11  1  0  0  0  0
 12 13  1  0  0  0  0
 14 12  2  0  0  0  0
 15 14  1  0  0  0  0
  9 15  2  0  0  0  0
  1 16  2  0  0  0  0
M  END
> <ChemID>
100448

> <CAS>
28249-77-6

> <Original_SMILES>
CCN(CC)C(=O)SCc1ccc(Cl)cc1

> <preferred_name>
Thiobencarb

> <dsstox_substance_id>
DTXSID6024337

> <dsstox_compound_id>
DTXCID704337

> <qc_level>
DSSTox_Low

> <Canonical_QSARr>
CCN(CC)C(=O)SCC1C=CC(Cl)=CC=1

> <InChI_Code_QSARr>
InChI=1S/C12H16ClNOS/c1-3-14(4-2)12(15)16-9-10-5-7-11(13)8-6-10/h5-8H,3-4,9H2,1-2H3

> <InChI Key_QSARr>
QHTQREMOGMZHJV-UHFFFAOYSA-N

> <Salt_Solvent>


> <Salt_Solvent_ID>
0

> <MPID>
102057

> <LogKmHL>
0.66

> <Tr_1_Tst_0>
1

$$$$
100450
  Mrv171c012251910542D          

 16 16  0  0  0  0            999 V2000
    3.2370   -0.5831    0.0000 Cl  0  0  0  0  0  0  0  0  0  0  0  0
    2.5225   -0.9956    0.0000 C   0  0  0  0  0  0  0  0  0  0  0  0
    1.8080   -0.5831    0.0000 C   0  0  0  0  0  0  0  0  0  0  0  0
    1.8080    0.2419    0.0000 Cl  0  0  0  0  0  0  0  0  0  0  0  0
    1.0935   -0.9956    0.0000 C   0  0  0  0  0  0  0  0  0  0  0  0
    0.3791   -0.5831    0.0000 Cl  0  0  0  0  0  0  0  0  0  0  0  0
    1.0935   -1.8206    0.0000 C   0  0  0  0  0  0  0  0  0  0  0  0
    0.3791   -2.2331    0.0000 Cl  0  0  0  0  0  0  0  0  0  0  0  0
    1.8080   -2.2331    0.0000 C   0  0  0  0  0  0  0  0  0  0  0  0
    1.8080   -3.0581    0.0000 Cl  0  0  0  0  0  0  0  0  0  0  0  0
    2.5225   -1.8206    0.0000 C   0  0  0  0  0  0  0  0  0  0  0  0
    3.2370   -2.2331    0.0000 C   0  0  0  0  0  0  0  0  0  0  0  0
    3.2370   -3.0581    0.0000 Cl  0  0  0  0  0  0  0  0  0  0  0  0
    3.9514   -1.8206    0.0000 C   0  0  0  0  0  0  0  0  0  0  0  0
    3.9514   -0.9956    0.0000 Cl  0  0  0  0  0  0  0  0  0  0  0  0
    4.6659   -2.2331    0.0000 Cl  0  0  0  0  0  0  0  0  0  0  0  0
  1  2  1  0  0  0  0
  3  2  1  0  0  0  0
  3  4  1  0  0  0  0
  5  3  2  0  0  0  0
  5  6  1  0  0  0  0
  7  5  1  0  0  0  0
  7  8  1  0  0  0  0
  9  7  2  0  0  0  0
  9 10  1  0  0  0  0
 11  9  1  0  0  0  0
  2 11  2  0  0  0  0
 11 12  1  0  0  0  0
 12 13  1  0  0  0  0
 12 14  2  0  0  0  0
 14 15  1  0  0  0  0
 14 16  1  0  0  0  0
M  END
> <ChemID>
100450

> <CAS>
29082-74-4

> <Original_SMILES>
ClC(Cl)=C(Cl)c1c(Cl)c(Cl)c(Cl)c(Cl)c1Cl

> <preferred_name>
Octachlorostyrene

> <dsstox_substance_id>
DTXSID2021074

> <dsstox_compound_id>
DTXCID801074

> <qc_level>
DSSTox_Low

> <Canonical_QSARr>
ClC(Cl)=C(Cl)C1C(Cl)=C(Cl)C(Cl)=C(Cl)C=1Cl

> <InChI_Code_QSARr>
InChI=1S/C8Cl8/c9-2-1(4(11)8(15)16)3(10)6(13)7(14)5(2)12

> <InChI Key_QSARr>
RUYUCCQRWINUHE-UHFFFAOYSA-N

> <Salt_Solvent>


> <Salt_Solvent_ID>
0

> <MPID>
102058

> <LogKmHL>
2.04

> <Tr_1_Tst_0>
0

$$$$
100452
  Mrv171c012251910542D          

 16 18  0  0  0  0            999 V2000
    6.5458    0.8250    0.0000 Cl  0  0  0  0  0  0  0  0  0  0  0  0
    5.8314    0.4125    0.0000 C   0  0  0  0  0  0  0  0  0  0  0  0
    5.8314   -0.4125    0.0000 C   0  0  0  0  0  0  0  0  0  0  0  0
    6.5458   -0.8250    0.0000 Cl  0  0  0  0  0  0  0  0  0  0  0  0
    5.1169   -0.8250    0.0000 C   0  0  0  0  0  0  0  0  0  0  0  0
    4.4024   -0.4125    0.0000 C   0  0  0  0  0  0  0  0  0  0  0  0
    4.4024    0.4125    0.0000 C   0  0  0  0  0  0  0  0  0  0  0  0
    3.6879    0.8250    0.0000 O   0  0  0  0  0  0  0  0  0  0  0  0
    2.9735    0.4125    0.0000 C   0  0  0  0  0  0  0  0  0  0  0  0
    2.2590    0.8250    0.0000 C   0  0  0  0  0  0  0  0  0  0  0  0
    1.5445    0.4125    0.0000 C   0  0  0  0  0  0  0  0  0  0  0  0
    1.5445   -0.4125    0.0000 C   0  0  0  0  0  0  0  0  0  0  0  0
    2.2590   -0.8250    0.0000 C   0  0  0  0  0  0  0  0  0  0  0  0
    2.9735   -0.4125    0.0000 C   0  0  0  0  0  0  0  0  0  0  0  0
    3.6879   -0.8250    0.0000 O   0  0  0  0  0  0  0  0  0  0  0  0
    5.1169    0.8250    0.0000 C   0  0  0  0  0  0  0  0  0  0  0  0
  1  2  1  0  0  0  0
  3  2  2  0  0  0  0
  3  4  1  0  0  0  0
  5  3  1  0  0  0  0
  6  5  2  0  0  0  0
  6  7  1  0  0  0  0
  7  8  1  0  0  0  0
  8  9  1  0  0  0  0
 10  9  2  0  0  0  0
 11 10  1  0  0  0  0
 12 11  2  0  0  0  0
 13 12  1  0  0  0  0
 14 13  2  0  0  0  0
  9 14  1  0  0  0  0
 14 15  1  0  0  0  0
 15  6  1  0  0  0  0
 16  7  2  0  0  0  0
  2 16  1  0  0  0  0
M  END
> <ChemID>
100452

> <CAS>
29446-15-9

> <Original_SMILES>
Clc1cc2Oc3ccccc3Oc2cc1Cl

> <preferred_name>
2,3-Dichlorodibenzo-4-dioxin

> <dsstox_substance_id>
DTXSID50183650

> <dsstox_compound_id>
DTXCID90106141

> <qc_level>
Public_Medium

> <Canonical_QSARr>
ClC1C=C2OC3=CC=CC=C3OC2=CC=1Cl

> <InChI_Code_QSARr>
InChI=1S/C12H6Cl2O2/c13-7-5-11-12(6-8(7)14)16-10-4-2-1-3-9(10)15-11/h1-6H

> <InChI Key_QSARr>
YCIYTXRUZSDMRZ-UHFFFAOYSA-N

> <Salt_Solvent>


> <Salt_Solvent_ID>
0

> <MPID>
102059

> <LogKmHL>
0.33

> <Tr_1_Tst_0>
1

$$$$
100455
  Mrv171c012251910542D          

 18 20  0  0  0  0            999 V2000
    2.8579   -0.0000    0.0000 C   0  0  0  0  0  0  0  0  0  0  0  0
    3.5724   -0.4125    0.0000 C   0  0  0  0  0  0  0  0  0  0  0  0
    3.5724   -1.2375    0.0000 Cl  0  0  0  0  0  0  0  0  0  0  0  0
    4.2868    0.0000    0.0000 C   0  0  0  0  0  0  0  0  0  0  0  0
    5.0013   -0.4125    0.0000 Cl  0  0  0  0  0  0  0  0  0  0  0  0
    4.2868    0.8250    0.0000 C   0  0  0  0  0  0  0  0  0  0  0  0
    5.0013    1.2375    0.0000 Cl  0  0  0  0  0  0  0  0  0  0  0  0
    3.5724    1.2375    0.0000 C   0  0  0  0  0  0  0  0  0  0  0  0
    3.5724    2.0625    0.0000 Cl  0  0  0  0  0  0  0  0  0  0  0  0
    2.8579    0.8250    0.0000 C   0  0  0  0  0  0  0  0  0  0  0  0
    2.1434    1.2375    0.0000 O   0  0  0  0  0  0  0  0  0  0  0  0
    1.4289    0.8250    0.0000 C   0  0  0  0  0  0  0  0  0  0  0  0
    1.4289    0.0000    0.0000 C   0  0  0  0  0  0  0  0  0  0  0  0
    0.7145   -0.4125    0.0000 C   0  0  0  0  0  0  0  0  0  0  0  0
    0.0000   -0.0000    0.0000 C   0  0  0  0  0  0  0  0  0  0  0  0
    0.0000    0.8250    0.0000 C   0  0  0  0  0  0  0  0  0  0  0  0
    0.7145    1.2375    0.0000 C   0  0  0  0  0  0  0  0  0  0  0  0
    2.1434   -0.4125    0.0000 O   0  0  0  0  0  0  0  0  0  0  0  0
  2  1  1  0  0  0  0
  2  3  1  0  0  0  0
  4  2  2  0  0  0  0
  4  5  1  0  0  0  0
  6  4  1  0  0  0  0
  6  7  1  0  0  0  0
  8  6  2  0  0  0  0
  8  9  1  0  0  0  0
 10  8  1  0  0  0  0
 10  1  2  0  0  0  0
 11 10  1  0  0  0  0
 12 11  1  0  0  0  0
 12 13  1  0  0  0  0
 13 14  2  0  0  0  0
 14 15  1  0  0  0  0
 15 16  2  0  0  0  0
 16 17  1  0  0  0  0
 17 12  2  0  0  0  0
 18 13  1  0  0  0  0
  1 18  1  0  0  0  0
M  END
> <ChemID>
100455

> <CAS>
30746-58-8

> <Original_SMILES>
Clc1c2Oc3ccccc3Oc2c(Cl)c(Cl)c1Cl

> <preferred_name>
1,2,3,4-Tetrachlorodibenzo-p-dioxin

> <dsstox_substance_id>
DTXSID7074030

> <dsstox_compound_id>
DTXCID5038252

> <qc_level>
Public_High

> <Canonical_QSARr>
ClC1C2OC3=CC=CC=C3OC=2C(Cl)=C(Cl)C=1Cl

> <InChI_Code_QSARr>
InChI=1S/C12H4Cl4O2/c13-7-8(14)10(16)12-11(9(7)15)17-5-3-1-2-4-6(5)18-12/h1-4H

> <InChI Key_QSARr>
DJHHDLMTUOLVHY-UHFFFAOYSA-N

> <Salt_Solvent>


> <Salt_Solvent_ID>
0

> <MPID>
102060

> <LogKmHL>
1.02

> <Tr_1_Tst_0>
1

$$$$
100456
  Mrv171c012251910542D          

 17 18  0  0  0  0            999 V2000
    2.4846   -1.2196    0.0000 C   0  0  0  0  0  0  0  0  0  0  0  0
    2.4846   -0.3946    0.0000 C   0  0  0  0  0  0  0  0  0  0  0  0
    1.7701    0.0179    0.0000 C   0  0  0  0  0  0  0  0  0  0  0  0
    1.7701    0.8429    0.0000 Cl  0  0  0  0  0  0  0  0  0  0  0  0
    1.0557   -0.3946    0.0000 C   0  0  0  0  0  0  0  0  0  0  0  0
    0.3412    0.0179    0.0000 Cl  0  0  0  0  0  0  0  0  0  0  0  0
    1.0557   -1.2196    0.0000 C   0  0  0  0  0  0  0  0  0  0  0  0
    1.7701   -1.6321    0.0000 C   0  0  0  0  0  0  0  0  0  0  0  0
    1.7701   -2.4571    0.0000 Cl  0  0  0  0  0  0  0  0  0  0  0  0
    3.1991   -1.6321    0.0000 C   0  0  0  0  0  0  0  0  0  0  0  0
    3.1991   -2.4571    0.0000 C   0  0  0  0  0  0  0  0  0  0  0  0
    3.9136   -2.8696    0.0000 C   0  0  0  0  0  0  0  0  0  0  0  0
    4.6280   -2.4571    0.0000 C   0  0  0  0  0  0  0  0  0  0  0  0
    5.3425   -2.8696    0.0000 Cl  0  0  0  0  0  0  0  0  0  0  0  0
    4.6280   -1.6321    0.0000 C   0  0  0  0  0  0  0  0  0  0  0  0
    5.3425   -1.2196    0.0000 Cl  0  0  0  0  0  0  0  0  0  0  0  0
    3.9136   -1.2196    0.0000 C   0  0  0  0  0  0  0  0  0  0  0  0
  2  1  1  0  0  0  0
  3  2  2  0  0  0  0
  3  4  1  0  0  0  0
  5  3  1  0  0  0  0
  5  6  1  0  0  0  0
  7  5  2  0  0  0  0
  8  7  1  0  0  0  0
  1  8  2  0  0  0  0
  8  9  1  0  0  0  0
  1 10  1  0  0  0  0
 11 10  1  0  0  0  0
 12 11  2  0  0  0  0
 13 12  1  0  0  0  0
 13 14  1  0  0  0  0
 15 13  2  0  0  0  0
 15 16  1  0  0  0  0
 17 15  1  0  0  0  0
 10 17  2  0  0  0  0
M  END
> <ChemID>
100456

> <CAS>
31508-00-6

> <Original_SMILES>
Clc1ccc(cc1Cl)-c1cc(Cl)c(Cl)cc1Cl

> <preferred_name>
2,3',4,4',5-Pentachlorobiphenyl

> <dsstox_substance_id>
DTXSID4032116

> <dsstox_compound_id>
DTXCID2012116

> <qc_level>
DSSTox_Low

> <Canonical_QSARr>
ClC1C=C(C=CC=1Cl)C1C=C(Cl)C(Cl)=CC=1Cl

> <InChI_Code_QSARr>
InChI=1S/C12H5Cl5/c13-8-2-1-6(3-10(8)15)7-4-11(16)12(17)5-9(7)14/h1-5H

> <InChI Key_QSARr>
IUTPYMGCWINGEY-UHFFFAOYSA-N

> <Salt_Solvent>


> <Salt_Solvent_ID>
0

> <MPID>
102061

> <LogKmHL>
2.19

> <Tr_1_Tst_0>
1

$$$$
100457
  Mrv171c012251910542D          

 23 24  0  0  0  0            999 V2000
    3.3611    0.7977    0.0000 Cl  0  0  0  0  0  0  0  0  0  0  0  0
    2.6467    0.3852    0.0000 C   0  0  0  0  0  0  0  0  0  0  0  0
    1.9322    0.7977    0.0000 C   0  0  0  0  0  0  0  0  0  0  0  0
    1.9322    1.6227    0.0000 Cl  0  0  0  0  0  0  0  0  0  0  0  0
    1.2177    0.3852    0.0000 C   0  0  0  0  0  0  0  0  0  0  0  0
    0.5033    0.7977    0.0000 Cl  0  0  0  0  0  0  0  0  0  0  0  0
    1.2177   -0.4398    0.0000 C   0  0  0  0  0  0  0  0  0  0  0  0
    0.5033   -0.8523    0.0000 Cl  0  0  0  0  0  0  0  0  0  0  0  0
    1.9322   -0.8523    0.0000 C   0  0  0  0  0  0  0  0  0  0  0  0
    1.9322   -1.6773    0.0000 Cl  0  0  0  0  0  0  0  0  0  0  0  0
    2.6467   -0.4398    0.0000 C   0  0  0  0  0  0  0  0  0  0  0  0
    3.3611   -0.8523    0.0000 O   0  0  0  0  0  0  0  0  0  0  0  0
    4.0756   -0.4398    0.0000 C   0  0  0  0  0  0  0  0  0  0  0  0
    4.7901   -0.8523    0.0000 C   0  0  0  0  0  0  0  0  0  0  0  0
    4.7901   -1.6773    0.0000 Cl  0  0  0  0  0  0  0  0  0  0  0  0
    5.5046   -0.4398    0.0000 C   0  0  0  0  0  0  0  0  0  0  0  0
    6.2190   -0.8523    0.0000 Cl  0  0  0  0  0  0  0  0  0  0  0  0
    5.5046    0.3852    0.0000 C   0  0  0  0  0  0  0  0  0  0  0  0
    6.2190    0.7977    0.0000 Cl  0  0  0  0  0  0  0  0  0  0  0  0
    4.7901    0.7977    0.0000 C   0  0  0  0  0  0  0  0  0  0  0  0
    4.7901    1.6227    0.0000 Cl  0  0  0  0  0  0  0  0  0  0  0  0
    4.0756    0.3852    0.0000 C   0  0  0  0  0  0  0  0  0  0  0  0
    3.7401    1.1389    0.0000 Cl  0  0  0  0  0  0  0  0  0  0  0  0
  1  2  1  0  0  0  0
  3  2  1  0  0  0  0
  3  4  1  0  0  0  0
  5  3  2  0  0  0  0
  5  6  1  0  0  0  0
  7  5  1  0  0  0  0
  7  8  1  0  0  0  0
  9  7  2  0  0  0  0
  9 10  1  0  0  0  0
 11  9  1  0  0  0  0
  2 11  2  0  0  0  0
 11 12  1  0  0  0  0
 12 13  1  0  0  0  0
 14 13  1  0  0  0  0
 14 15  1  0  0  0  0
 16 14  2  0  0  0  0
 16 17  1  0  0  0  0
 18 16  1  0  0  0  0
 18 19  1  0  0  0  0
 20 18  2  0  0  0  0
 20 21  1  0  0  0  0
 22 20  1  0  0  0  0
 13 22  2  0  0  0  0
 22 23  1  0  0  0  0
M  END
> <ChemID>
100457

> <CAS>
31710-30-2

> <Original_SMILES>
Clc1c(Oc2c(Cl)c(Cl)c(Cl)c(Cl)c2Cl)c(Cl)c(Cl)c(Cl)c1Cl

> <preferred_name>
Decachlorodiphenyl ether

> <dsstox_substance_id>
DTXSID80185607

> <dsstox_compound_id>
DTXCID80108098

> <qc_level>
Public_Medium

> <Canonical_QSARr>
ClC1C(OC2=C(Cl)C(Cl)=C(Cl)C(Cl)=C2Cl)=C(Cl)C(Cl)=C(Cl)C=1Cl

> <InChI_Code_QSARr>
InChI=1S/C12Cl10O/c13-1-3(15)7(19)11(8(20)4(1)16)23-12-9(21)5(17)2(14)6(18)10(12)22

> <InChI Key_QSARr>
CIPFDHFTBYJKQB-UHFFFAOYSA-N

> <Salt_Solvent>


> <Salt_Solvent_ID>
0

> <MPID>
102062

> <LogKmHL>
1.8

> <Tr_1_Tst_0>
0

$$$$
100458
  Mrv171c012251910542D          

 16 17  0  0  0  0            999 V2000
    0.7145    2.0626    0.0000 C   0  0  0  0  0  0  0  0  0  0  0  0
    1.4290    2.4751    0.0000 C   0  0  0  0  0  0  0  0  0  0  0  0
    1.4290    3.3001    0.0000 C   0  0  0  0  0  0  0  0  0  0  0  0
    0.7145    3.7126    0.0000 C   0  0  0  0  0  0  0  0  0  0  0  0
    0.7145    4.5376    0.0000 Cl  0  0  0  0  0  0  0  0  0  0  0  0
    0.0000    3.3001    0.0000 C   0  0  0  0  0  0  0  0  0  0  0  0
   -0.7144    3.7126    0.0000 Cl  0  0  0  0  0  0  0  0  0  0  0  0
    0.0000    2.4751    0.0000 C   0  0  0  0  0  0  0  0  0  0  0  0
    0.7145    1.2376    0.0000 C   0  0  0  0  0  0  0  0  0  0  0  0
    0.0000    0.8251    0.0000 C   0  0  0  0  0  0  0  0  0  0  0  0
    0.0000    0.0001    0.0000 C   0  0  0  0  0  0  0  0  0  0  0  0
    0.7145   -0.4124    0.0000 C   0  0  0  0  0  0  0  0  0  0  0  0
    0.7145   -1.2374    0.0000 Cl  0  0  0  0  0  0  0  0  0  0  0  0
    1.4290    0.0001    0.0000 C   0  0  0  0  0  0  0  0  0  0  0  0
    1.4290    0.8251    0.0000 C   0  0  0  0  0  0  0  0  0  0  0  0
    2.1434    1.2376    0.0000 Cl  0  0  0  0  0  0  0  0  0  0  0  0
  2  1  1  0  0  0  0
  3  2  2  0  0  0  0
  4  3  1  0  0  0  0
  4  5  1  0  0  0  0
  6  4  2  0  0  0  0
  6  7  1  0  0  0  0
  8  6  1  0  0  0  0
  1  8  2  0  0  0  0
  1  9  1  0  0  0  0
 10  9  1  0  0  0  0
 11 10  2  0  0  0  0
 12 11  1  0  0  0  0
 12 13  1  0  0  0  0
 14 12  2  0  0  0  0
 15 14  1  0  0  0  0
  9 15  2  0  0  0  0
 15 16  1  0  0  0  0
M  END
> <ChemID>
100458

> <CAS>
32598-10-0

> <Original_SMILES>
Clc1cc(Cl)c(cc1)-c1cc(Cl)c(Cl)cc1

> <preferred_name>
2,3',4,4'-Tetrachlorobiphenyl

> <dsstox_substance_id>
DTXSID3073472

> <dsstox_compound_id>
DTXCID1038537

> <qc_level>
Public_High

> <Canonical_QSARr>
ClC1=CC(Cl)=C(C=C1)C1=CC(Cl)=C(Cl)C=C1

> <InChI_Code_QSARr>
InChI=1S/C12H6Cl4/c13-8-2-3-9(11(15)6-8)7-1-4-10(14)12(16)5-7/h1-6H

> <InChI Key_QSARr>
RKLLTEAEZIJBAU-UHFFFAOYSA-N

> <Salt_Solvent>


> <Salt_Solvent_ID>
0

> <MPID>
102063

> <LogKmHL>
2.07

> <Tr_1_Tst_0>
1

$$$$
100459
  Mrv171c012251910542D          

 16 17  0  0  0  0            999 V2000
    2.1949   -1.1224    0.0000 C   0  0  0  0  0  0  0  0  0  0  0  0
    2.1949   -0.2974    0.0000 C   0  0  0  0  0  0  0  0  0  0  0  0
    1.4804    0.1151    0.0000 C   0  0  0  0  0  0  0  0  0  0  0  0
    1.4804    0.9401    0.0000 Cl  0  0  0  0  0  0  0  0  0  0  0  0
    0.7659   -0.2974    0.0000 C   0  0  0  0  0  0  0  0  0  0  0  0
    0.7659   -1.1224    0.0000 C   0  0  0  0  0  0  0  0  0  0  0  0
    1.4804   -1.5349    0.0000 C   0  0  0  0  0  0  0  0  0  0  0  0
    1.4804   -2.3599    0.0000 Cl  0  0  0  0  0  0  0  0  0  0  0  0
    2.9093   -1.5349    0.0000 C   0  0  0  0  0  0  0  0  0  0  0  0
    2.9093   -2.3599    0.0000 C   0  0  0  0  0  0  0  0  0  0  0  0
    3.6238   -2.7724    0.0000 C   0  0  0  0  0  0  0  0  0  0  0  0
    4.3383   -2.3599    0.0000 C   0  0  0  0  0  0  0  0  0  0  0  0
    5.0528   -2.7724    0.0000 Cl  0  0  0  0  0  0  0  0  0  0  0  0
    4.3383   -1.5349    0.0000 C   0  0  0  0  0  0  0  0  0  0  0  0
    5.0528   -1.1224    0.0000 Cl  0  0  0  0  0  0  0  0  0  0  0  0
    3.6238   -1.1224    0.0000 C   0  0  0  0  0  0  0  0  0  0  0  0
  2  1  1  0  0  0  0
  3  2  2  0  0  0  0
  3  4  1  0  0  0  0
  5  3  1  0  0  0  0
  6  5  2  0  0  0  0
  7  6  1  0  0  0  0
  1  7  2  0  0  0  0
  7  8  1  0  0  0  0
  1  9  1  0  0  0  0
 10  9  1  0  0  0  0
 11 10  2  0  0  0  0
 12 11  1  0  0  0  0
 12 13  1  0  0  0  0
 14 12  2  0  0  0  0
 14 15  1  0  0  0  0
 16 14  1  0  0  0  0
  9 16  2  0  0  0  0
M  END
> <ChemID>
100459

> <CAS>
32598-11-1

> <Original_SMILES>
Clc1cc(-c2cc(Cl)c(Cl)cc2)c(Cl)cc1

> <preferred_name>
2,3',4',5-Tetrachlorobiphenyl

> <dsstox_substance_id>
DTXSID3038309

> <dsstox_compound_id>
DTXCID1018309

> <qc_level>
DSSTox_Low

> <Canonical_QSARr>
ClC1=CC(C2=CC(Cl)=C(Cl)C=C2)=C(Cl)C=C1

> <InChI_Code_QSARr>
InChI=1S/C12H6Cl4/c13-8-2-4-10(14)9(6-8)7-1-3-11(15)12(16)5-7/h1-6H

> <InChI Key_QSARr>
KENZYIHFBRWMOD-UHFFFAOYSA-N

> <Salt_Solvent>


> <Salt_Solvent_ID>
0

> <MPID>
102064

> <LogKmHL>
2.65

> <Tr_1_Tst_0>
1

$$$$
100460
  Mrv171c012251910542D          

 16 17  0  0  0  0            999 V2000
    2.8868   -1.0175    0.0000 C   0  0  0  0  0  0  0  0  0  0  0  0
    3.6012   -0.6050    0.0000 C   0  0  0  0  0  0  0  0  0  0  0  0
    3.6012    0.2200    0.0000 C   0  0  0  0  0  0  0  0  0  0  0  0
    2.8868    0.6325    0.0000 C   0  0  0  0  0  0  0  0  0  0  0  0
    2.8868    1.4575    0.0000 Cl  0  0  0  0  0  0  0  0  0  0  0  0
    2.1723    0.2200    0.0000 C   0  0  0  0  0  0  0  0  0  0  0  0
    1.4578    0.6325    0.0000 Cl  0  0  0  0  0  0  0  0  0  0  0  0
    2.1723   -0.6050    0.0000 C   0  0  0  0  0  0  0  0  0  0  0  0
    2.8868   -1.8425    0.0000 C   0  0  0  0  0  0  0  0  0  0  0  0
    2.1723   -2.2550    0.0000 C   0  0  0  0  0  0  0  0  0  0  0  0
    2.1723   -3.0800    0.0000 C   0  0  0  0  0  0  0  0  0  0  0  0
    2.8868   -3.4925    0.0000 C   0  0  0  0  0  0  0  0  0  0  0  0
    2.8868   -4.3175    0.0000 Cl  0  0  0  0  0  0  0  0  0  0  0  0
    3.6012   -3.0800    0.0000 C   0  0  0  0  0  0  0  0  0  0  0  0
    4.3157   -3.4925    0.0000 Cl  0  0  0  0  0  0  0  0  0  0  0  0
    3.6012   -2.2550    0.0000 C   0  0  0  0  0  0  0  0  0  0  0  0
  2  1  1  0  0  0  0
  3  2  2  0  0  0  0
  4  3  1  0  0  0  0
  4  5  1  0  0  0  0
  6  4  2  0  0  0  0
  6  7  1  0  0  0  0
  8  6  1  0  0  0  0
  1  8  2  0  0  0  0
  1  9  1  0  0  0  0
 10  9  1  0  0  0  0
 11 10  2  0  0  0  0
 12 11  1  0  0  0  0
 12 13  1  0  0  0  0
 14 12  2  0  0  0  0
 14 15  1  0  0  0  0
 16 14  1  0  0  0  0
  9 16  2  0  0  0  0
M  END
> <ChemID>
100460

> <CAS>
32598-13-3

> <Original_SMILES>
Clc1ccc(cc1Cl)-c1cc(Cl)c(Cl)cc1

> <preferred_name>
3,3',4,4'-Tetrachlorobinphenyl

> <dsstox_substance_id>
DTXSID5022514

> <dsstox_compound_id>
DTXCID102514

> <qc_level>
DSSTox_Low

> <Canonical_QSARr>
ClC1C=CC(=CC=1Cl)C1=CC(Cl)=C(Cl)C=C1

> <InChI_Code_QSARr>
InChI=1S/C12H6Cl4/c13-9-3-1-7(5-11(9)15)8-2-4-10(14)12(16)6-8/h1-6H

> <InChI Key_QSARr>
UQMGJOKDKOLIDP-UHFFFAOYSA-N

> <Salt_Solvent>


> <Salt_Solvent_ID>
0

> <MPID>
102065

> <LogKmHL>
1.35

> <Tr_1_Tst_0>
1

$$$$
100461
  Mrv171c012251910542D          

 17 18  0  0  0  0            999 V2000
    3.4937   -2.1473    0.0000 C   0  0  0  0  0  0  0  0  0  0  0  0
    4.2081   -1.7348    0.0000 Cl  0  0  0  0  0  0  0  0  0  0  0  0
    2.7792   -1.7348    0.0000 C   0  0  0  0  0  0  0  0  0  0  0  0
    2.7792   -0.9098    0.0000 C   0  0  0  0  0  0  0  0  0  0  0  0
    3.4937   -0.4973    0.0000 C   0  0  0  0  0  0  0  0  0  0  0  0
    3.4937    0.3277    0.0000 C   0  0  0  0  0  0  0  0  0  0  0  0
    2.7792    0.7402    0.0000 C   0  0  0  0  0  0  0  0  0  0  0  0
    2.7792    1.5652    0.0000 Cl  0  0  0  0  0  0  0  0  0  0  0  0
    2.0647    0.3277    0.0000 C   0  0  0  0  0  0  0  0  0  0  0  0
    1.3502    0.7402    0.0000 Cl  0  0  0  0  0  0  0  0  0  0  0  0
    2.0647   -0.4973    0.0000 C   0  0  0  0  0  0  0  0  0  0  0  0
    2.0647   -2.1473    0.0000 C   0  0  0  0  0  0  0  0  0  0  0  0
    2.0647   -2.9723    0.0000 C   0  0  0  0  0  0  0  0  0  0  0  0
    2.7792   -3.3848    0.0000 C   0  0  0  0  0  0  0  0  0  0  0  0
    2.7792   -4.2098    0.0000 Cl  0  0  0  0  0  0  0  0  0  0  0  0
    3.4937   -2.9723    0.0000 C   0  0  0  0  0  0  0  0  0  0  0  0
    4.2081   -3.3848    0.0000 Cl  0  0  0  0  0  0  0  0  0  0  0  0
  1  2  1  0  0  0  0
  3  1  2  0  0  0  0
  3  4  1  0  0  0  0
  5  4  1  0  0  0  0
  6  5  2  0  0  0  0
  7  6  1  0  0  0  0
  7  8  1  0  0  0  0
  9  7  2  0  0  0  0
  9 10  1  0  0  0  0
 11  9  1  0  0  0  0
  4 11  2  0  0  0  0
 12  3  1  0  0  0  0
 13 12  2  0  0  0  0
 14 13  1  0  0  0  0
 14 15  1  0  0  0  0
 16 14  2  0  0  0  0
  1 16  1  0  0  0  0
 16 17  1  0  0  0  0
M  END
> <ChemID>
100461

> <CAS>
32598-14-4

> <Original_SMILES>
Clc1c(Cl)c(ccc1Cl)-c1cc(Cl)c(Cl)cc1

> <preferred_name>
2,3,3',4,4'-Pentachlorobiphenyl

> <dsstox_substance_id>
DTXSID8038306

> <dsstox_compound_id>
DTXCID6018306

> <qc_level>
DSSTox_Low

> <Canonical_QSARr>
ClC1C(Cl)=C(C=CC=1Cl)C1=CC(Cl)=C(Cl)C=C1

> <InChI_Code_QSARr>
InChI=1S/C12H5Cl5/c13-8-3-1-6(5-10(8)15)7-2-4-9(14)12(17)11(7)16/h1-5H

> <InChI Key_QSARr>
WIDHRBRBACOVOY-UHFFFAOYSA-N

> <Salt_Solvent>


> <Salt_Solvent_ID>
0

> <MPID>
102066

> <LogKmHL>
2.06

> <Tr_1_Tst_0>
0

$$$$
100462
  Mrv171c012251910542D          

 17 18  0  0  0  0            999 V2000
    0.3892    0.2912    0.0000 Cl  0  0  0  0  0  0  0  0  0  0  0  0
    1.1037    0.7037    0.0000 C   0  0  0  0  0  0  0  0  0  0  0  0
    1.8181    0.2912    0.0000 C   0  0  0  0  0  0  0  0  0  0  0  0
    2.5326    0.7037    0.0000 O   0  0  0  0  0  0  0  0  0  0  0  0
    3.2471    0.2912    0.0000 C   0  0  0  0  0  0  0  0  0  0  0  0
    3.9615    0.7037    0.0000 C   0  0  0  0  0  0  0  0  0  0  0  0
    4.6760    0.2912    0.0000 C   0  0  0  0  0  0  0  0  0  0  0  0
    5.3905    0.7037    0.0000 C   0  0  0  0  0  0  0  0  0  0  0  0
    5.3905    1.5287    0.0000 C   0  0  0  0  0  0  0  0  0  0  0  0
    4.6760    1.9412    0.0000 C   0  0  0  0  0  0  0  0  0  0  0  0
    3.9615    1.5287    0.0000 C   0  0  0  0  0  0  0  0  0  0  0  0
    3.2471   -0.5338    0.0000 C   0  0  0  0  0  0  0  0  0  0  0  0
    2.5326   -0.9463    0.0000 C   0  0  0  0  0  0  0  0  0  0  0  0
    2.5326   -1.7713    0.0000 C   0  0  0  0  0  0  0  0  0  0  0  0
    3.2471   -2.1838    0.0000 C   0  0  0  0  0  0  0  0  0  0  0  0
    3.9615   -1.7713    0.0000 C   0  0  0  0  0  0  0  0  0  0  0  0
    3.9615   -0.9463    0.0000 C   0  0  0  0  0  0  0  0  0  0  0  0
  1  2  1  0  0  0  0
  2  3  1  0  0  0  0
  3  4  1  0  0  0  0
  4  5  1  0  0  0  0
  5  6  1  0  0  0  0
  7  6  1  0  0  0  0
  8  7  2  0  0  0  0
  9  8  1  0  0  0  0
 10  9  2  0  0  0  0
 11 10  1  0  0  0  0
  6 11  2  0  0  0  0
  5 12  1  0  0  0  0
 13 12  1  0  0  0  0
 14 13  2  0  0  0  0
 15 14  1  0  0  0  0
 16 15  2  0  0  0  0
 17 16  1  0  0  0  0
 12 17  2  0  0  0  0
M  END
> <ChemID>
100462

> <CAS>
32669-06-0

> <Original_SMILES>
ClCCOC(c1ccccc1)c1ccccc1

> <preferred_name>
Benzhydryl 2-chloroethyl ether

> <dsstox_substance_id>
DTXSID30186341

> <dsstox_compound_id>
DTXCID40108832

> <qc_level>
Public_Medium

> <Canonical_QSARr>
ClCCOC(C1C=CC=CC=1)C1C=CC=CC=1

> <InChI_Code_QSARr>
InChI=1S/C15H15ClO/c16-11-12-17-15(13-7-3-1-4-8-13)14-9-5-2-6-10-14/h1-10,15H,11-12H2

> <InChI Key_QSARr>
ZNVASENTCOLNJT-UHFFFAOYSA-N

> <Salt_Solvent>


> <Salt_Solvent_ID>
0

> <MPID>
102067

> <LogKmHL>
-0.07

> <Tr_1_Tst_0>
1

$$$$
100463
  Mrv171c012251910542D          

 16 17  0  0  0  0            999 V2000
    0.4912    1.9337    0.0000 C   0  0  0  0  0  0  0  0  0  0  0  0
    0.4912    2.7587    0.0000 C   0  0  0  0  0  0  0  0  0  0  0  0
   -0.2232    3.1712    0.0000 C   0  0  0  0  0  0  0  0  0  0  0  0
   -0.2232    3.9962    0.0000 Cl  0  0  0  0  0  0  0  0  0  0  0  0
   -0.9377    2.7587    0.0000 C   0  0  0  0  0  0  0  0  0  0  0  0
   -1.6522    3.1712    0.0000 Cl  0  0  0  0  0  0  0  0  0  0  0  0
   -0.9377    1.9337    0.0000 C   0  0  0  0  0  0  0  0  0  0  0  0
   -0.2232    1.5212    0.0000 C   0  0  0  0  0  0  0  0  0  0  0  0
   -0.2232    0.6962    0.0000 Cl  0  0  0  0  0  0  0  0  0  0  0  0
    1.2057    1.5212    0.0000 C   0  0  0  0  0  0  0  0  0  0  0  0
    1.2057    0.6962    0.0000 C   0  0  0  0  0  0  0  0  0  0  0  0
    1.9202    0.2837    0.0000 C   0  0  0  0  0  0  0  0  0  0  0  0
    2.6346    0.6962    0.0000 C   0  0  0  0  0  0  0  0  0  0  0  0
    3.3491    0.2837    0.0000 Cl  0  0  0  0  0  0  0  0  0  0  0  0
    2.6346    1.5212    0.0000 C   0  0  0  0  0  0  0  0  0  0  0  0
    1.9202    1.9337    0.0000 C   0  0  0  0  0  0  0  0  0  0  0  0
  2  1  1  0  0  0  0
  3  2  2  0  0  0  0
  3  4  1  0  0  0  0
  5  3  1  0  0  0  0
  5  6  1  0  0  0  0
  7  5  2  0  0  0  0
  8  7  1  0  0  0  0
  1  8  2  0  0  0  0
  8  9  1  0  0  0  0
  1 10  1  0  0  0  0
 11 10  1  0  0  0  0
 12 11  2  0  0  0  0
 13 12  1  0  0  0  0
 13 14  1  0  0  0  0
 15 13  2  0  0  0  0
 16 15  1  0  0  0  0
 10 16  2  0  0  0  0
M  END
> <ChemID>
100463

> <CAS>
32690-93-0

> <Original_SMILES>
Clc1ccc(cc1)-c1cc(Cl)c(Cl)cc1Cl

> <preferred_name>
2,4,4',5-Tetrachlorobiphenyl

> <dsstox_substance_id>
DTXSID8073473

> <dsstox_compound_id>
DTXCID4038556

> <qc_level>
Public_High

> <Canonical_QSARr>
ClC1C=C(Cl)C(Cl)=CC=1C1C=CC(Cl)=CC=1

> <InChI_Code_QSARr>
InChI=1S/C12H6Cl4/c13-8-3-1-7(2-4-8)9-5-11(15)12(16)6-10(9)14/h1-6H

> <InChI Key_QSARr>
TULCXSBAPHCWCF-UHFFFAOYSA-N

> <Salt_Solvent>


> <Salt_Solvent_ID>
0

> <MPID>
102068

> <LogKmHL>
2.55

> <Tr_1_Tst_0>
1

$$$$
100464
  Mrv171c012251910542D          

 18 20  0  0  0  0            999 V2000
    3.7935   -1.0313    0.0000 C   0  0  0  0  0  0  0  0  0  0  0  0
    4.5079   -1.4438    0.0000 C   0  0  0  0  0  0  0  0  0  0  0  0
    5.2224   -1.0313    0.0000 C   0  0  0  0  0  0  0  0  0  0  0  0
    5.2224   -0.2063    0.0000 C   0  0  0  0  0  0  0  0  0  0  0  0
    4.5079    0.2062    0.0000 C   0  0  0  0  0  0  0  0  0  0  0  0
    4.5079    1.0312    0.0000 C   0  0  0  0  0  0  0  0  0  0  0  0
    5.2224    1.4437    0.0000 C   0  0  0  0  0  0  0  0  0  0  0  0
    5.2224    2.2687    0.0000 C   0  0  0  0  0  0  0  0  0  0  0  0
    4.5079    2.6812    0.0000 C   0  0  0  0  0  0  0  0  0  0  0  0
    3.7935    2.2687    0.0000 C   0  0  0  0  0  0  0  0  0  0  0  0
    3.7935    1.4437    0.0000 C   0  0  0  0  0  0  0  0  0  0  0  0
    3.7935   -0.2063    0.0000 C   0  0  0  0  0  0  0  0  0  0  0  0
    3.0790   -1.4438    0.0000 C   0  0  0  0  0  0  0  0  0  0  0  0
    2.3645   -1.0313    0.0000 C   0  0  0  0  0  0  0  0  0  0  0  0
    1.6500   -1.4438    0.0000 C   0  0  0  0  0  0  0  0  0  0  0  0
    1.6500   -2.2688    0.0000 C   0  0  0  0  0  0  0  0  0  0  0  0
    2.3645   -2.6813    0.0000 C   0  0  0  0  0  0  0  0  0  0  0  0
    3.0790   -2.2688    0.0000 C   0  0  0  0  0  0  0  0  0  0  0  0
  2  1  1  0  0  0  0
  3  2  1  0  0  0  0
  4  3  1  0  0  0  0
  5  4  1  0  0  0  0
  5  6  1  0  0  0  0
  7  6  1  0  0  0  0
  8  7  2  0  0  0  0
  9  8  1  0  0  0  0
 10  9  2  0  0  0  0
 11 10  1  0  0  0  0
  6 11  2  0  0  0  0
 12  5  1  0  0  0  0
  1 12  1  0  0  0  0
  1 13  1  0  0  0  0
 14 13  1  0  0  0  0
 15 14  1  0  0  0  0
 16 15  1  0  0  0  0
 17 16  1  0  0  0  0
 18 17  1  0  0  0  0
 13 18  1  0  0  0  0
M  END
> <ChemID>
100464

> <CAS>
33460-02-5

> <Original_SMILES>
C1C(CCCC1c1ccccc1)C1CCCCC1

> <preferred_name>
3-Phenylbicyclohexyl

> <dsstox_substance_id>
DTXSID50399895

> <dsstox_compound_id>
DTXCID20350751

> <qc_level>
Public_Low

> <Canonical_QSARr>
C1C(CCCC1C1C=CC=CC=1)C1CCCCC1

> <InChI_Code_QSARr>
InChI=1S/C18H26/c1-3-8-15(9-4-1)17-12-7-13-18(14-17)16-10-5-2-6-11-16/h1,3-4,8-9,16-18H,2,5-7,10-14H2

> <InChI Key_QSARr>
ONQUBGYEUGJCEM-UHFFFAOYSA-N

> <Salt_Solvent>


> <Salt_Solvent_ID>
0

> <MPID>
102069

> <LogKmHL>
0.45

> <Tr_1_Tst_0>
1

$$$$
100466
  Mrv171c012251910542D          

 16 18  0  0  0  0            999 V2000
    0.0014   -0.0014    0.0000 Cl  0  0  0  0  0  0  0  0  0  0  0  0
    0.7159   -0.4139    0.0000 C   0  0  0  0  0  0  0  0  0  0  0  0
    0.7159   -1.2389    0.0000 C   0  0  0  0  0  0  0  0  0  0  0  0
    1.4304   -1.6514    0.0000 C   0  0  0  0  0  0  0  0  0  0  0  0
    2.1449   -1.2389    0.0000 C   0  0  0  0  0  0  0  0  0  0  0  0
    2.8593   -1.6514    0.0000 O   0  0  0  0  0  0  0  0  0  0  0  0
    3.5738   -1.2389    0.0000 C   0  0  0  0  0  0  0  0  0  0  0  0
    4.2883   -1.6514    0.0000 C   0  0  0  0  0  0  0  0  0  0  0  0
    5.0027   -1.2389    0.0000 C   0  0  0  0  0  0  0  0  0  0  0  0
    5.7172   -1.6514    0.0000 Cl  0  0  0  0  0  0  0  0  0  0  0  0
    5.0027   -0.4139    0.0000 C   0  0  0  0  0  0  0  0  0  0  0  0
    4.2883   -0.0014    0.0000 C   0  0  0  0  0  0  0  0  0  0  0  0
    3.5738   -0.4139    0.0000 C   0  0  0  0  0  0  0  0  0  0  0  0
    2.8593   -0.0014    0.0000 O   0  0  0  0  0  0  0  0  0  0  0  0
    2.1449   -0.4139    0.0000 C   0  0  0  0  0  0  0  0  0  0  0  0
    1.4304   -0.0014    0.0000 C   0  0  0  0  0  0  0  0  0  0  0  0
  1  2  1  0  0  0  0
  3  2  1  0  0  0  0
  4  3  2  0  0  0  0
  5  4  1  0  0  0  0
  5  6  1  0  0  0  0
  6  7  1  0  0  0  0
  8  7  1  0  0  0  0
  9  8  2  0  0  0  0
  9 10  1  0  0  0  0
 11  9  1  0  0  0  0
 12 11  2  0  0  0  0
 13 12  1  0  0  0  0
  7 13  2  0  0  0  0
 13 14  1  0  0  0  0
 14 15  1  0  0  0  0
 15  5  2  0  0  0  0
 16 15  1  0  0  0  0
  2 16  2  0  0  0  0
M  END
> <ChemID>
100466

> <CAS>
33857-26-0

> <Original_SMILES>
Clc1cc2Oc3ccc(Cl)cc3Oc2cc1

> <preferred_name>
2,7-Dichlorodibenzo-p-dioxin

> <dsstox_substance_id>
DTXSID1020435

> <dsstox_compound_id>
DTXCID50435

> <qc_level>
DSSTox_Low

> <Canonical_QSARr>
ClC1=CC2OC3C=CC(Cl)=CC=3OC=2C=C1

> <InChI_Code_QSARr>
InChI=1S/C12H6Cl2O2/c13-7-1-3-9-11(5-7)16-10-4-2-8(14)6-12(10)15-9/h1-6H

> <InChI Key_QSARr>
NBFMTHWVRBOVPE-UHFFFAOYSA-N

> <Salt_Solvent>


> <Salt_Solvent_ID>
0

> <MPID>
102070

> <LogKmHL>
0.23

> <Tr_1_Tst_0>
0

$$$$
100467
  Mrv171c012251910542D          

 14 15  0  0  0  0            999 V2000
    0.5103    1.9447    0.0000 C   0  0  0  0  0  0  0  0  0  0  0  0
    0.5103    2.7697    0.0000 C   0  0  0  0  0  0  0  0  0  0  0  0
   -0.2041    3.1822    0.0000 C   0  0  0  0  0  0  0  0  0  0  0  0
   -0.2041    4.0072    0.0000 Cl  0  0  0  0  0  0  0  0  0  0  0  0
   -0.9186    2.7697    0.0000 C   0  0  0  0  0  0  0  0  0  0  0  0
   -0.9186    1.9447    0.0000 C   0  0  0  0  0  0  0  0  0  0  0  0
   -0.2041    1.5322    0.0000 C   0  0  0  0  0  0  0  0  0  0  0  0
   -0.2041    0.7072    0.0000 Cl  0  0  0  0  0  0  0  0  0  0  0  0
    1.2248    1.5322    0.0000 C   0  0  0  0  0  0  0  0  0  0  0  0
    1.2248    0.7072    0.0000 C   0  0  0  0  0  0  0  0  0  0  0  0
    1.9393    0.2947    0.0000 C   0  0  0  0  0  0  0  0  0  0  0  0
    2.6537    0.7072    0.0000 C   0  0  0  0  0  0  0  0  0  0  0  0
    2.6537    1.5322    0.0000 C   0  0  0  0  0  0  0  0  0  0  0  0
    1.9393    1.9447    0.0000 C   0  0  0  0  0  0  0  0  0  0  0  0
  2  1  1  0  0  0  0
  3  2  2  0  0  0  0
  3  4  1  0  0  0  0
  5  3  1  0  0  0  0
  6  5  2  0  0  0  0
  7  6  1  0  0  0  0
  1  7  2  0  0  0  0
  7  8  1  0  0  0  0
  1  9  1  0  0  0  0
 10  9  1  0  0  0  0
 11 10  2  0  0  0  0
 12 11  1  0  0  0  0
 13 12  2  0  0  0  0
 14 13  1  0  0  0  0
  9 14  2  0  0  0  0
M  END
> <ChemID>
100467

> <CAS>
34883-39-1

> <Original_SMILES>
Clc1cc(-c2ccccc2)c(Cl)cc1

> <preferred_name>
2,5-Dichlorobiphenyl

> <dsstox_substance_id>
DTXSID7073480

> <dsstox_compound_id>
DTXCID0038918

> <qc_level>
Public_High

> <Canonical_QSARr>
ClC1C=CC(Cl)=CC=1C1C=CC=CC=1

> <InChI_Code_QSARr>
InChI=1S/C12H8Cl2/c13-10-6-7-12(14)11(8-10)9-4-2-1-3-5-9/h1-8H

> <InChI Key_QSARr>
KKQWHYGECTYFIA-UHFFFAOYSA-N

> <Salt_Solvent>


> <Salt_Solvent_ID>
0

> <MPID>
102071

> <LogKmHL>
2.38

> <Tr_1_Tst_0>
1

$$$$
100468
  Mrv171c012251910542D          

 14 15  0  0  0  0            999 V2000
    0.6124    2.0036    0.0000 C   0  0  0  0  0  0  0  0  0  0  0  0
    0.6124    2.8286    0.0000 C   0  0  0  0  0  0  0  0  0  0  0  0
   -0.1021    3.2411    0.0000 C   0  0  0  0  0  0  0  0  0  0  0  0
   -0.1021    4.0661    0.0000 Cl  0  0  0  0  0  0  0  0  0  0  0  0
   -0.8165    2.8286    0.0000 C   0  0  0  0  0  0  0  0  0  0  0  0
   -0.8165    2.0036    0.0000 C   0  0  0  0  0  0  0  0  0  0  0  0
   -1.5310    1.5911    0.0000 Cl  0  0  0  0  0  0  0  0  0  0  0  0
   -0.1021    1.5911    0.0000 C   0  0  0  0  0  0  0  0  0  0  0  0
    1.3269    1.5911    0.0000 C   0  0  0  0  0  0  0  0  0  0  0  0
    1.3269    0.7661    0.0000 C   0  0  0  0  0  0  0  0  0  0  0  0
    2.0413    0.3536    0.0000 C   0  0  0  0  0  0  0  0  0  0  0  0
    2.7558    0.7661    0.0000 C   0  0  0  0  0  0  0  0  0  0  0  0
    2.7558    1.5911    0.0000 C   0  0  0  0  0  0  0  0  0  0  0  0
    2.0413    2.0036    0.0000 C   0  0  0  0  0  0  0  0  0  0  0  0
  2  1  1  0  0  0  0
  3  2  2  0  0  0  0
  3  4  1  0  0  0  0
  5  3  1  0  0  0  0
  6  5  2  0  0  0  0
  6  7  1  0  0  0  0
  8  6  1  0  0  0  0
  1  8  2  0  0  0  0
  1  9  1  0  0  0  0
 10  9  1  0  0  0  0
 11 10  2  0  0  0  0
 12 11  1  0  0  0  0
 13 12  2  0  0  0  0
 14 13  1  0  0  0  0
  9 14  2  0  0  0  0
M  END
> <ChemID>
100468

> <CAS>
34883-41-5

> <Original_SMILES>
Clc1cc(cc(Cl)c1)-c1ccccc1

> <preferred_name>
3,5-Dichlorobiphenyl

> <dsstox_substance_id>
DTXSID5074137

> <dsstox_compound_id>
DTXCID5038919

> <qc_level>
Public_High

> <Canonical_QSARr>
ClC1=CC(=CC(Cl)=C1)C1C=CC=CC=1

> <InChI_Code_QSARr>
InChI=1S/C12H8Cl2/c13-11-6-10(7-12(14)8-11)9-4-2-1-3-5-9/h1-8H

> <InChI Key_QSARr>
QHZSDTDMQZPUKC-UHFFFAOYSA-N

> <Salt_Solvent>


> <Salt_Solvent_ID>
0

> <MPID>
102072

> <LogKmHL>
1.11

> <Tr_1_Tst_0>
1

$$$$
100469
  Mrv171c012251910542D          

 18 19  0  0  0  0            999 V2000
    2.5315   -1.6342    0.0000 C   0  0  0  0  0  0  0  0  0  0  0  0
    1.8170   -1.2217    0.0000 C   0  0  0  0  0  0  0  0  0  0  0  0
    1.8170   -0.3967    0.0000 Cl  0  0  0  0  0  0  0  0  0  0  0  0
    1.1025   -1.6342    0.0000 C   0  0  0  0  0  0  0  0  0  0  0  0
    1.1025   -2.4592    0.0000 C   0  0  0  0  0  0  0  0  0  0  0  0
    0.3881   -2.8717    0.0000 Cl  0  0  0  0  0  0  0  0  0  0  0  0
    1.8170   -2.8717    0.0000 C   0  0  0  0  0  0  0  0  0  0  0  0
    1.8170   -3.6967    0.0000 Cl  0  0  0  0  0  0  0  0  0  0  0  0
    2.5315   -2.4592    0.0000 C   0  0  0  0  0  0  0  0  0  0  0  0
    3.2460   -1.2217    0.0000 C   0  0  0  0  0  0  0  0  0  0  0  0
    3.9604   -1.6342    0.0000 C   0  0  0  0  0  0  0  0  0  0  0  0
    4.6749   -1.2217    0.0000 C   0  0  0  0  0  0  0  0  0  0  0  0
    5.3894   -1.6342    0.0000 Cl  0  0  0  0  0  0  0  0  0  0  0  0
    4.6749   -0.3967    0.0000 C   0  0  0  0  0  0  0  0  0  0  0  0
    5.3894    0.0158    0.0000 Cl  0  0  0  0  0  0  0  0  0  0  0  0
    3.9604    0.0158    0.0000 C   0  0  0  0  0  0  0  0  0  0  0  0
    3.2460   -0.3967    0.0000 C   0  0  0  0  0  0  0  0  0  0  0  0
    2.5315    0.0158    0.0000 Cl  0  0  0  0  0  0  0  0  0  0  0  0
  2  1  1  0  0  0  0
  2  3  1  0  0  0  0
  4  2  2  0  0  0  0
  5  4  1  0  0  0  0
  5  6  1  0  0  0  0
  7  5  2  0  0  0  0
  7  8  1  0  0  0  0
  9  7  1  0  0  0  0
  1  9  2  0  0  0  0
  1 10  1  0  0  0  0
 11 10  1  0  0  0  0
 12 11  2  0  0  0  0
 12 13  1  0  0  0  0
 14 12  1  0  0  0  0
 14 15  1  0  0  0  0
 16 14  2  0  0  0  0
 17 16  1  0  0  0  0
 10 17  2  0  0  0  0
 17 18  1  0  0  0  0
M  END
> <ChemID>
100469

> <CAS>
35065-27-1

> <Original_SMILES>
Clc1cc(Cl)c(Cl)cc1-c1cc(Cl)c(Cl)cc1Cl

> <preferred_name>
2,2',4,4',5,5'-Hexachlorobiphenyl

> <dsstox_substance_id>
DTXSID2032180

> <dsstox_compound_id>
DTXCID0012180

> <qc_level>
DSSTox_Low

> <Canonical_QSARr>
ClC1=CC(Cl)=C(C=C1Cl)C1=CC(Cl)=C(Cl)C=C1Cl

> <InChI_Code_QSARr>
InChI=1S/C12H4Cl6/c13-7-3-11(17)9(15)1-5(7)6-2-10(16)12(18)4-8(6)14/h1-4H

> <InChI Key_QSARr>
MVWHGTYKUMDIHL-UHFFFAOYSA-N

> <Salt_Solvent>


> <Salt_Solvent_ID>
0

> <MPID>
102073

> <LogKmHL>
2.55

> <Tr_1_Tst_0>
1

$$$$
100470
  Mrv171c012251910542D          

 18 19  0  0  0  0            999 V2000
    3.0652   -0.8568    0.0000 C   0  0  0  0  0  0  0  0  0  0  0  0
    3.7796   -0.4443    0.0000 C   0  0  0  0  0  0  0  0  0  0  0  0
    3.7796    0.3807    0.0000 C   0  0  0  0  0  0  0  0  0  0  0  0
    3.0652    0.7932    0.0000 C   0  0  0  0  0  0  0  0  0  0  0  0
    3.0652    1.6182    0.0000 Cl  0  0  0  0  0  0  0  0  0  0  0  0
    2.3507    0.3807    0.0000 C   0  0  0  0  0  0  0  0  0  0  0  0
    1.6362    0.7932    0.0000 Cl  0  0  0  0  0  0  0  0  0  0  0  0
    2.3507   -0.4443    0.0000 C   0  0  0  0  0  0  0  0  0  0  0  0
    1.6362   -0.8568    0.0000 Cl  0  0  0  0  0  0  0  0  0  0  0  0
    3.0652   -1.6818    0.0000 C   0  0  0  0  0  0  0  0  0  0  0  0
    2.3507   -2.0943    0.0000 C   0  0  0  0  0  0  0  0  0  0  0  0
    2.3507   -2.9193    0.0000 C   0  0  0  0  0  0  0  0  0  0  0  0
    1.6362   -3.3318    0.0000 Cl  0  0  0  0  0  0  0  0  0  0  0  0
    3.0652   -3.3318    0.0000 C   0  0  0  0  0  0  0  0  0  0  0  0
    3.0652   -4.1568    0.0000 Cl  0  0  0  0  0  0  0  0  0  0  0  0
    3.7796   -2.9193    0.0000 C   0  0  0  0  0  0  0  0  0  0  0  0
    3.7796   -2.0943    0.0000 C   0  0  0  0  0  0  0  0  0  0  0  0
    4.4941   -1.6818    0.0000 Cl  0  0  0  0  0  0  0  0  0  0  0  0
  2  1  1  0  0  0  0
  3  2  2  0  0  0  0
  4  3  1  0  0  0  0
  4  5  1  0  0  0  0
  6  4  2  0  0  0  0
  6  7  1  0  0  0  0
  8  6  1  0  0  0  0
  1  8  2  0  0  0  0
  8  9  1  0  0  0  0
  1 10  1  0  0  0  0
 11 10  1  0  0  0  0
 12 11  2  0  0  0  0
 12 13  1  0  0  0  0
 14 12  1  0  0  0  0
 14 15  1  0  0  0  0
 16 14  2  0  0  0  0
 17 16  1  0  0  0  0
 10 17  2  0  0  0  0
 17 18  1  0  0  0  0
M  END
> <ChemID>
100470

> <CAS>
35065-28-2

> <Original_SMILES>
Clc1ccc(-c2cc(Cl)c(Cl)cc2Cl)c(Cl)c1Cl

> <preferred_name>
2,2',3,4,4',5'-Hexachlorobiphenyl

> <dsstox_substance_id>
DTXSID8038300

> <dsstox_compound_id>
DTXCID6018300

> <qc_level>
DSSTox_Low

> <Canonical_QSARr>
ClC1C=CC(C2C=C(Cl)C(Cl)=CC=2Cl)=C(Cl)C=1Cl

> <InChI_Code_QSARr>
InChI=1S/C12H4Cl6/c13-7-2-1-5(11(17)12(7)18)6-3-9(15)10(16)4-8(6)14/h1-4H

> <InChI Key_QSARr>
RPUMZMSNLZHIGZ-UHFFFAOYSA-N

> <Salt_Solvent>


> <Salt_Solvent_ID>
0

> <MPID>
102074

> <LogKmHL>
2.59

> <Tr_1_Tst_0>
0

$$$$
100471
  Mrv171c012251910542D          

 18 19  0  0  0  0            999 V2000
    0.5557    1.9709    0.0000 C   0  0  0  0  0  0  0  0  0  0  0  0
    0.5557    2.7959    0.0000 C   0  0  0  0  0  0  0  0  0  0  0  0
   -0.1587    3.2084    0.0000 C   0  0  0  0  0  0  0  0  0  0  0  0
   -0.1587    4.0334    0.0000 Cl  0  0  0  0  0  0  0  0  0  0  0  0
   -0.8732    2.7959    0.0000 C   0  0  0  0  0  0  0  0  0  0  0  0
   -1.5877    3.2084    0.0000 Cl  0  0  0  0  0  0  0  0  0  0  0  0
   -0.8732    1.9709    0.0000 C   0  0  0  0  0  0  0  0  0  0  0  0
   -1.5877    1.5584    0.0000 Cl  0  0  0  0  0  0  0  0  0  0  0  0
   -0.1587    1.5584    0.0000 C   0  0  0  0  0  0  0  0  0  0  0  0
   -0.1587    0.7334    0.0000 Cl  0  0  0  0  0  0  0  0  0  0  0  0
    1.2702    1.5584    0.0000 C   0  0  0  0  0  0  0  0  0  0  0  0
    1.2702    0.7334    0.0000 C   0  0  0  0  0  0  0  0  0  0  0  0
    1.9847    0.3209    0.0000 C   0  0  0  0  0  0  0  0  0  0  0  0
    2.6991    0.7334    0.0000 C   0  0  0  0  0  0  0  0  0  0  0  0
    3.4136    0.3209    0.0000 Cl  0  0  0  0  0  0  0  0  0  0  0  0
    2.6991    1.5584    0.0000 C   0  0  0  0  0  0  0  0  0  0  0  0
    1.9847    1.9709    0.0000 C   0  0  0  0  0  0  0  0  0  0  0  0
    1.9847    2.7959    0.0000 Cl  0  0  0  0  0  0  0  0  0  0  0  0
  2  1  1  0  0  0  0
  3  2  2  0  0  0  0
  3  4  1  0  0  0  0
  5  3  1  0  0  0  0
  5  6  1  0  0  0  0
  7  5  2  0  0  0  0
  7  8  1  0  0  0  0
  9  7  1  0  0  0  0
  1  9  2  0  0  0  0
  9 10  1  0  0  0  0
  1 11  1  0  0  0  0
 12 11  1  0  0  0  0
 13 12  2  0  0  0  0
 14 13  1  0  0  0  0
 14 15  1  0  0  0  0
 16 14  2  0  0  0  0
 17 16  1  0  0  0  0
 11 17  2  0  0  0  0
 17 18  1  0  0  0  0
M  END
> <ChemID>
100471

> <CAS>
35694-06-5

> <Original_SMILES>
Clc1cc(Cl)c(cc1)-c1cc(Cl)c(Cl)c(Cl)c1Cl

> <preferred_name>
2,2',3,4,4',5-Hexachlorobiphenyl

> <dsstox_substance_id>
DTXSID0074138

> <dsstox_compound_id>
DTXCID4039077

> <qc_level>
Public_High

> <Canonical_QSARr>
ClC1C=C(Cl)C=CC=1C1C=C(Cl)C(Cl)=C(Cl)C=1Cl

> <InChI_Code_QSARr>
InChI=1S/C12H4Cl6/c13-5-1-2-6(8(14)3-5)7-4-9(15)11(17)12(18)10(7)16/h1-4H

> <InChI Key_QSARr>
CKLLRBPBZLTGDJ-UHFFFAOYSA-N

> <Salt_Solvent>


> <Salt_Solvent_ID>
0

> <MPID>
102075

> <LogKmHL>
2.34

> <Tr_1_Tst_0>
1

$$$$
100472
  Mrv171c012251910542D          

 20 21  0  0  0  0            999 V2000
    0.3573    1.8563    0.0000 C   0  0  0  0  0  0  0  0  0  0  0  0
    0.3573    2.6813    0.0000 C   0  0  0  0  0  0  0  0  0  0  0  0
   -0.3572    3.0938    0.0000 C   0  0  0  0  0  0  0  0  0  0  0  0
   -0.3572    3.9188    0.0000 Cl  0  0  0  0  0  0  0  0  0  0  0  0
   -1.0717    2.6813    0.0000 C   0  0  0  0  0  0  0  0  0  0  0  0
   -1.7862    3.0938    0.0000 Cl  0  0  0  0  0  0  0  0  0  0  0  0
   -1.0717    1.8563    0.0000 C   0  0  0  0  0  0  0  0  0  0  0  0
   -1.7862    1.4438    0.0000 Cl  0  0  0  0  0  0  0  0  0  0  0  0
   -0.3572    1.4438    0.0000 C   0  0  0  0  0  0  0  0  0  0  0  0
   -0.3572    0.6188    0.0000 Cl  0  0  0  0  0  0  0  0  0  0  0  0
    1.0717    1.4438    0.0000 C   0  0  0  0  0  0  0  0  0  0  0  0
    1.0717    0.6188    0.0000 C   0  0  0  0  0  0  0  0  0  0  0  0
    1.7862    0.2063    0.0000 C   0  0  0  0  0  0  0  0  0  0  0  0
    1.7862   -0.6187    0.0000 Cl  0  0  0  0  0  0  0  0  0  0  0  0
    2.5007    0.6188    0.0000 C   0  0  0  0  0  0  0  0  0  0  0  0
    3.2151    0.2063    0.0000 Cl  0  0  0  0  0  0  0  0  0  0  0  0
    2.5007    1.4438    0.0000 C   0  0  0  0  0  0  0  0  0  0  0  0
    3.2151    1.8563    0.0000 Cl  0  0  0  0  0  0  0  0  0  0  0  0
    1.7862    1.8563    0.0000 C   0  0  0  0  0  0  0  0  0  0  0  0
    1.7862    2.6813    0.0000 Cl  0  0  0  0  0  0  0  0  0  0  0  0
  2  1  1  0  0  0  0
  3  2  2  0  0  0  0
  3  4  1  0  0  0  0
  5  3  1  0  0  0  0
  5  6  1  0  0  0  0
  7  5  2  0  0  0  0
  7  8  1  0  0  0  0
  9  7  1  0  0  0  0
  1  9  2  0  0  0  0
  9 10  1  0  0  0  0
  1 11  1  0  0  0  0
 12 11  1  0  0  0  0
 13 12  2  0  0  0  0
 13 14  1  0  0  0  0
 15 13  1  0  0  0  0
 15 16  1  0  0  0  0
 17 15  2  0  0  0  0
 17 18  1  0  0  0  0
 19 17  1  0  0  0  0
 11 19  2  0  0  0  0
 19 20  1  0  0  0  0
M  END
> <ChemID>
100472

> <CAS>
35694-08-7

> <Original_SMILES>
Clc1cc(-c2cc(Cl)c(Cl)c(Cl)c2Cl)c(Cl)c(Cl)c1Cl

> <preferred_name>
2,2',3,3',4,4',5,5'-Octachlorobiphenyl

> <dsstox_substance_id>
DTXSID5074139

> <dsstox_compound_id>
DTXCID9039078

> <qc_level>
Public_High

> <Canonical_QSARr>
ClC1=CC(C2C=C(Cl)C(Cl)=C(Cl)C=2Cl)=C(Cl)C(Cl)=C1Cl

> <InChI_Code_QSARr>
InChI=1S/C12H2Cl8/c13-5-1-3(7(15)11(19)9(5)17)4-2-6(14)10(18)12(20)8(4)16/h1-2H

> <InChI Key_QSARr>
DTMRKGRREZAYAP-UHFFFAOYSA-N

> <Salt_Solvent>


> <Salt_Solvent_ID>
0

> <MPID>
102076

> <LogKmHL>
3.0

> <Tr_1_Tst_0>
1

$$$$
100473
  Mrv171c012251910542D          

 21 23  0  0  0  0            999 V2000
    3.9379   -2.9396    0.0000 C   0  0  0  0  0  0  0  0  0  0  0  0
    4.6524   -3.3521    0.0000 O   0  0  0  0  0  0  0  0  0  0  0  0
    5.3668   -2.9396    0.0000 C   0  0  0  0  0  0  0  0  0  0  0  0
    6.0813   -3.3521    0.0000 C   0  0  0  0  0  0  0  0  0  0  0  0
    6.7958   -2.9396    0.0000 C   0  0  0  0  0  0  0  0  0  0  0  0
    6.7958   -2.1146    0.0000 C   0  0  0  0  0  0  0  0  0  0  0  0
    6.0813   -1.7021    0.0000 C   0  0  0  0  0  0  0  0  0  0  0  0
    6.0813   -0.8771    0.0000 Cl  0  0  0  0  0  0  0  0  0  0  0  0
    5.3668   -2.1146    0.0000 C   0  0  0  0  0  0  0  0  0  0  0  0
    4.6524   -1.7021    0.0000 O   0  0  0  0  0  0  0  0  0  0  0  0
    3.9379   -2.1146    0.0000 C   0  0  0  0  0  0  0  0  0  0  0  0
    3.2234   -1.7021    0.0000 C   0  0  0  0  0  0  0  0  0  0  0  0
    2.5090   -2.1146    0.0000 C   0  0  0  0  0  0  0  0  0  0  0  0
    1.7945   -1.7021    0.0000 Cl  0  0  0  0  0  0  0  0  0  0  0  0
    2.5090   -2.9396    0.0000 C   0  0  0  0  0  0  0  0  0  0  0  0
    1.7945   -3.3521    0.0000 Cl  0  0  0  0  0  0  0  0  0  0  0  0
    3.2234   -3.3521    0.0000 C   0  0  0  0  0  0  0  0  0  0  0  0
    3.2234   -4.1771    0.0000 Cl  0  0  0  0  0  0  0  0  0  0  0  0
    7.5103   -1.7021    0.0000 Cl  0  0  0  0  0  0  0  0  0  0  0  0
    7.5103   -3.3521    0.0000 Cl  0  0  0  0  0  0  0  0  0  0  0  0
    6.0813   -4.1771    0.0000 Cl  0  0  0  0  0  0  0  0  0  0  0  0
  2  1  1  0  0  0  0
  3  2  1  0  0  0  0
  3  4  1  0  0  0  0
  4  5  2  0  0  0  0
  5  6  1  0  0  0  0
  6  7  2  0  0  0  0
  7  8  1  0  0  0  0
  7  9  1  0  0  0  0
  9  3  2  0  0  0  0
 10  9  1  0  0  0  0
 11 10  1  0  0  0  0
 11  1  1  0  0  0  0
 12 11  2  0  0  0  0
 13 12  1  0  0  0  0
 13 14  1  0  0  0  0
 15 13  2  0  0  0  0
 15 16  1  0  0  0  0
 17 15  1  0  0  0  0
  1 17  2  0  0  0  0
 17 18  1  0  0  0  0
  6 19  1  0  0  0  0
  5 20  1  0  0  0  0
  4 21  1  0  0  0  0
M  END
> <ChemID>
100473

> <CAS>
35822-46-9

> <Original_SMILES>
Clc1cc2Oc3c(Oc2c(Cl)c1Cl)c(Cl)c(Cl)c(Cl)c3Cl

> <preferred_name>
1,2,3,4,6,7,8-Heptachlorodibenzodioxin

> <dsstox_substance_id>
DTXSID1052034

> <dsstox_compound_id>
DTXCID5032442

> <qc_level>
DSSTox_High

> <Canonical_QSARr>
ClC1C=C2OC3=C(OC2=C(Cl)C=1Cl)C(Cl)=C(Cl)C(Cl)=C3Cl

> <InChI_Code_QSARr>
InChI=1S/C12HCl7O2/c13-2-1-3-10(7(17)4(2)14)21-12-9(19)6(16)5(15)8(18)11(12)20-3/h1H

> <InChI Key_QSARr>
WCLNVRQZUKYVAI-UHFFFAOYSA-N

> <Salt_Solvent>


> <Salt_Solvent_ID>
0

> <MPID>
102077

> <LogKmHL>
1.21

> <Tr_1_Tst_0>
1

$$$$
100476
  Mrv171c012251910542D          

 21 21  0  0  0  0            999 V2000
    6.4857   -2.5228    0.0000 C   0  0  0  0  0  0  0  0  0  0  0  0
    5.7713   -2.9353    0.0000 C   0  0  0  0  0  0  0  0  0  0  0  0
    5.0568   -2.5228    0.0000 C   0  0  0  0  0  0  0  0  0  0  0  0
    4.3423   -2.9353    0.0000 N   0  0  0  0  0  0  0  0  0  0  0  0
    3.6279   -2.5228    0.0000 P   0  0  0  0  0  0  0  0  0  0  0  0
    4.0404   -1.8084    0.0000 S   0  0  0  0  0  0  0  0  0  0  0  0
    2.9134   -2.1103    0.0000 O   0  0  0  0  0  0  0  0  0  0  0  0
    2.1989   -2.5228    0.0000 C   0  0  0  0  0  0  0  0  0  0  0  0
    1.4844   -2.1103    0.0000 C   0  0  0  0  0  0  0  0  0  0  0  0
    1.4844   -1.2853    0.0000 N   0  3  0  0  0  0  0  0  0  0  0  0
    0.7700   -0.8728    0.0000 O   0  0  0  0  0  0  0  0  0  0  0  0
    2.1989   -0.8728    0.0000 O   0  5  0  0  0  0  0  0  0  0  0  0
    0.7700   -2.5228    0.0000 C   0  0  0  0  0  0  0  0  0  0  0  0
    0.7700   -3.3478    0.0000 C   0  0  0  0  0  0  0  0  0  0  0  0
    1.4844   -3.7603    0.0000 C   0  0  0  0  0  0  0  0  0  0  0  0
    1.4844   -4.5853    0.0000 C   0  0  0  0  0  0  0  0  0  0  0  0
    2.1989   -3.3478    0.0000 C   0  0  0  0  0  0  0  0  0  0  0  0
    3.2154   -3.2373    0.0000 O   0  0  0  0  0  0  0  0  0  0  0  0
    3.6279   -3.9518    0.0000 C   0  0  0  0  0  0  0  0  0  0  0  0
    3.2154   -4.6662    0.0000 C   0  0  0  0  0  0  0  0  0  0  0  0
    5.0568   -1.6978    0.0000 C   0  0  0  0  0  0  0  0  0  0  0  0
  1  2  1  0  0  0  0
  2  3  1  0  0  0  0
  3  4  1  0  0  0  0
  4  5  1  0  0  0  0
  5  6  2  0  0  0  0
  5  7  1  0  0  0  0
  7  8  1  0  0  0  0
  9  8  2  0  0  0  0
  9 10  1  0  0  0  0
 10 11  2  0  0  0  0
 10 12  1  0  0  0  0
 13  9  1  0  0  0  0
 14 13  2  0  0  0  0
 15 14  1  0  0  0  0
 15 16  1  0  0  0  0
 17 15  2  0  0  0  0
  8 17  1  0  0  0  0
  5 18  1  0  0  0  0
 18 19  1  0  0  0  0
 19 20  1  0  0  0  0
  3 21  1  0  0  0  0
M  CHG  2  10   1  12  -1
M  END
> <ChemID>
100476

> <CAS>
36335-67-8

> <Original_SMILES>
Cc1ccc(c(c1)OP(=S)(NC(C)CC)OCC)[N+]([O-])=O

> <preferred_name>
Butamiphos

> <dsstox_substance_id>
DTXSID5058068

> <dsstox_compound_id>
DTXCID1031836

> <qc_level>
DSSTox_High

> <Canonical_QSARr>
CC1C=CC(=C(C=1)OP(=S)(NC(C)CC)OCC)[N+]([O-])=O

> <InChI_Code_QSARr>
InChI=1S/C13H21N2O4PS/c1-5-11(4)14-20(21,18-6-2)19-13-9-10(3)7-8-12(13)15(16)17/h7-9,11H,5-6H2,1-4H3,(H,14,21)

> <InChI Key_QSARr>
OEYOMNZEMCPTKN-UHFFFAOYSA-N

> <Salt_Solvent>


> <Salt_Solvent_ID>
0

> <MPID>
102078

> <LogKmHL>
-0.2

> <Tr_1_Tst_0>
0

$$$$
100477
  Mrv171c012251910542D          

 16 17  0  0  0  0            999 V2000
    2.5546   -1.1797    0.0000 C   0  0  0  0  0  0  0  0  0  0  0  0
    3.2691   -1.5922    0.0000 C   0  0  0  0  0  0  0  0  0  0  0  0
    3.9835   -1.1797    0.0000 C   0  0  0  0  0  0  0  0  0  0  0  0
    3.9835   -0.3547    0.0000 C   0  0  0  0  0  0  0  0  0  0  0  0
    3.2691    0.0578    0.0000 C   0  0  0  0  0  0  0  0  0  0  0  0
    3.2691    0.8828    0.0000 Cl  0  0  0  0  0  0  0  0  0  0  0  0
    2.5546   -0.3547    0.0000 C   0  0  0  0  0  0  0  0  0  0  0  0
    1.8401    0.0578    0.0000 Cl  0  0  0  0  0  0  0  0  0  0  0  0
    1.8401   -1.5922    0.0000 C   0  0  0  0  0  0  0  0  0  0  0  0
    1.1256   -1.1797    0.0000 C   0  0  0  0  0  0  0  0  0  0  0  0
    0.4112   -1.5922    0.0000 C   0  0  0  0  0  0  0  0  0  0  0  0
    0.4112   -2.4172    0.0000 C   0  0  0  0  0  0  0  0  0  0  0  0
   -0.3033   -2.8297    0.0000 Cl  0  0  0  0  0  0  0  0  0  0  0  0
    1.1256   -2.8297    0.0000 C   0  0  0  0  0  0  0  0  0  0  0  0
    1.8401   -2.4172    0.0000 C   0  0  0  0  0  0  0  0  0  0  0  0
    2.5546   -2.8297    0.0000 Cl  0  0  0  0  0  0  0  0  0  0  0  0
  2  1  1  0  0  0  0
  3  2  2  0  0  0  0
  4  3  1  0  0  0  0
  5  4  2  0  0  0  0
  5  6  1  0  0  0  0
  7  5  1  0  0  0  0
  1  7  2  0  0  0  0
  7  8  1  0  0  0  0
  1  9  1  0  0  0  0
 10  9  1  0  0  0  0
 11 10  2  0  0  0  0
 12 11  1  0  0  0  0
 12 13  1  0  0  0  0
 14 12  2  0  0  0  0
 15 14  1  0  0  0  0
  9 15  2  0  0  0  0
 15 16  1  0  0  0  0
M  END
> <ChemID>
100477

> <CAS>
36559-22-5

> <Original_SMILES>
Clc1cc(Cl)c(cc1)-c1cccc(Cl)c1Cl

> <preferred_name>
Aroclor 1242

> <dsstox_substance_id>
DTXSID80873557

> <dsstox_compound_id>
DTXCID1020223

> <qc_level>
DSSTox_High

> <Canonical_QSARr>
ClC1C=C(Cl)C=CC=1C1C=CC=C(Cl)C=1Cl

> <InChI_Code_QSARr>
InChI=1S/C12H6Cl4/c13-7-4-5-8(11(15)6-7)9-2-1-3-10(14)12(9)16/h1-6H

> <InChI Key_QSARr>
ALFHIHDQSYXSGP-UHFFFAOYSA-N

> <Salt_Solvent>


> <Salt_Solvent_ID>
0

> <MPID>
102079

> <LogKmHL>
2.62

> <Tr_1_Tst_0>
1

$$$$
100478
  Mrv171c012251910542D          

 15 16  0  0  0  0            999 V2000
    0.5239    1.8425    0.0000 C   0  0  0  0  0  0  0  0  0  0  0  0
    0.5239    2.6675    0.0000 C   0  0  0  0  0  0  0  0  0  0  0  0
   -0.1905    3.0800    0.0000 C   0  0  0  0  0  0  0  0  0  0  0  0
   -0.1905    3.9050    0.0000 Cl  0  0  0  0  0  0  0  0  0  0  0  0
   -0.9050    2.6675    0.0000 C   0  0  0  0  0  0  0  0  0  0  0  0
   -0.9050    1.8425    0.0000 C   0  0  0  0  0  0  0  0  0  0  0  0
   -0.1905    1.4300    0.0000 C   0  0  0  0  0  0  0  0  0  0  0  0
   -0.1905    0.6050    0.0000 Cl  0  0  0  0  0  0  0  0  0  0  0  0
    1.2384    1.4300    0.0000 C   0  0  0  0  0  0  0  0  0  0  0  0
    1.2384    0.6050    0.0000 C   0  0  0  0  0  0  0  0  0  0  0  0
    1.9529    0.1925    0.0000 C   0  0  0  0  0  0  0  0  0  0  0  0
    2.6673    0.6050    0.0000 C   0  0  0  0  0  0  0  0  0  0  0  0
    2.6673    1.4300    0.0000 C   0  0  0  0  0  0  0  0  0  0  0  0
    1.9529    1.8425    0.0000 C   0  0  0  0  0  0  0  0  0  0  0  0
    1.9529    2.6675    0.0000 Cl  0  0  0  0  0  0  0  0  0  0  0  0
  2  1  1  0  0  0  0
  3  2  2  0  0  0  0
  3  4  1  0  0  0  0
  5  3  1  0  0  0  0
  6  5  2  0  0  0  0
  7  6  1  0  0  0  0
  1  7  2  0  0  0  0
  7  8  1  0  0  0  0
  1  9  1  0  0  0  0
 10  9  1  0  0  0  0
 11 10  2  0  0  0  0
 12 11  1  0  0  0  0
 13 12  2  0  0  0  0
 14 13  1  0  0  0  0
  9 14  2  0  0  0  0
 14 15  1  0  0  0  0
M  END
> <ChemID>
100478

> <CAS>
37680-65-2

> <Original_SMILES>
Clc1cc(-c2ccccc2Cl)c(Cl)cc1

> <preferred_name>
2,2',5-Trichlorobiphenyl

> <dsstox_substance_id>
DTXSID6073491

> <dsstox_compound_id>
DTXCID7039383

> <qc_level>
Public_High

> <Canonical_QSARr>
ClC1=CC(C2C=CC=CC=2Cl)=C(Cl)C=C1

> <InChI_Code_QSARr>
InChI=1S/C12H7Cl3/c13-8-5-6-12(15)10(7-8)9-3-1-2-4-11(9)14/h1-7H

> <InChI Key_QSARr>
DCMURXAZTZQAFB-UHFFFAOYSA-N

> <Salt_Solvent>


> <Salt_Solvent_ID>
0

> <MPID>
102080

> <LogKmHL>
1.87

> <Tr_1_Tst_0>
1

$$$$
100479
  Mrv171c012251910542D          

 17 18  0  0  0  0            999 V2000
    2.5007   -1.3053    0.0000 C   0  0  0  0  0  0  0  0  0  0  0  0
    2.5007   -0.4803    0.0000 C   0  0  0  0  0  0  0  0  0  0  0  0
    1.7862   -0.0678    0.0000 C   0  0  0  0  0  0  0  0  0  0  0  0
    1.7862    0.7572    0.0000 Cl  0  0  0  0  0  0  0  0  0  0  0  0
    1.0718   -0.4803    0.0000 C   0  0  0  0  0  0  0  0  0  0  0  0
    0.3573   -0.0678    0.0000 Cl  0  0  0  0  0  0  0  0  0  0  0  0
    1.0718   -1.3053    0.0000 C   0  0  0  0  0  0  0  0  0  0  0  0
    1.7862   -1.7178    0.0000 C   0  0  0  0  0  0  0  0  0  0  0  0
    1.7862   -2.5428    0.0000 Cl  0  0  0  0  0  0  0  0  0  0  0  0
    3.2152   -1.7178    0.0000 C   0  0  0  0  0  0  0  0  0  0  0  0
    3.2152   -2.5428    0.0000 C   0  0  0  0  0  0  0  0  0  0  0  0
    3.9296   -2.9553    0.0000 C   0  0  0  0  0  0  0  0  0  0  0  0
    3.9296   -3.7803    0.0000 Cl  0  0  0  0  0  0  0  0  0  0  0  0
    4.6441   -2.5428    0.0000 C   0  0  0  0  0  0  0  0  0  0  0  0
    4.6441   -1.7178    0.0000 C   0  0  0  0  0  0  0  0  0  0  0  0
    3.9296   -1.3053    0.0000 C   0  0  0  0  0  0  0  0  0  0  0  0
    3.9296   -0.4803    0.0000 Cl  0  0  0  0  0  0  0  0  0  0  0  0
  2  1  1  0  0  0  0
  3  2  2  0  0  0  0
  3  4  1  0  0  0  0
  5  3  1  0  0  0  0
  5  6  1  0  0  0  0
  7  5  2  0  0  0  0
  8  7  1  0  0  0  0
  1  8  2  0  0  0  0
  8  9  1  0  0  0  0
  1 10  1  0  0  0  0
 11 10  1  0  0  0  0
 12 11  2  0  0  0  0
 12 13  1  0  0  0  0
 14 12  1  0  0  0  0
 15 14  2  0  0  0  0
 16 15  1  0  0  0  0
 10 16  2  0  0  0  0
 16 17  1  0  0  0  0
M  END
> <ChemID>
100479

> <CAS>
37680-73-2

> <Original_SMILES>
Clc1cc(-c2cc(Cl)c(Cl)cc2Cl)c(Cl)cc1

> <preferred_name>
2,2,4,5,5'-Pentochlorobiphenyl

> <dsstox_substance_id>
DTXSID8038304

> <dsstox_compound_id>
DTXCID6018304

> <qc_level>
DSSTox_Low

> <Canonical_QSARr>
ClC1=CC(C2C=C(Cl)C(Cl)=CC=2Cl)=C(Cl)C=C1

> <InChI_Code_QSARr>
InChI=1S/C12H5Cl5/c13-6-1-2-9(14)7(3-6)8-4-11(16)12(17)5-10(8)15/h1-5H

> <InChI Key_QSARr>
LAHWLEDBADHJGA-UHFFFAOYSA-N

> <Salt_Solvent>


> <Salt_Solvent_ID>
0

> <MPID>
102081

> <LogKmHL>
2.46

> <Tr_1_Tst_0>
1

$$$$
100480
  Mrv171c012251910542D          

 17 18  0  0  0  0            999 V2000
    0.5044    1.8442    0.0000 C   0  0  0  0  0  0  0  0  0  0  0  0
    0.5044    2.6692    0.0000 C   0  0  0  0  0  0  0  0  0  0  0  0
   -0.2101    3.0817    0.0000 C   0  0  0  0  0  0  0  0  0  0  0  0
   -0.2101    3.9067    0.0000 Cl  0  0  0  0  0  0  0  0  0  0  0  0
   -0.9246    2.6692    0.0000 C   0  0  0  0  0  0  0  0  0  0  0  0
   -1.6391    3.0817    0.0000 Cl  0  0  0  0  0  0  0  0  0  0  0  0
   -0.9246    1.8442    0.0000 C   0  0  0  0  0  0  0  0  0  0  0  0
   -0.2101    1.4317    0.0000 C   0  0  0  0  0  0  0  0  0  0  0  0
   -0.2101    0.6067    0.0000 Cl  0  0  0  0  0  0  0  0  0  0  0  0
    1.2188    1.4317    0.0000 C   0  0  0  0  0  0  0  0  0  0  0  0
    1.2188    0.6067    0.0000 C   0  0  0  0  0  0  0  0  0  0  0  0
    1.9333    0.1942    0.0000 C   0  0  0  0  0  0  0  0  0  0  0  0
    2.6478    0.6067    0.0000 C   0  0  0  0  0  0  0  0  0  0  0  0
    3.3622    0.1942    0.0000 Cl  0  0  0  0  0  0  0  0  0  0  0  0
    2.6478    1.4317    0.0000 C   0  0  0  0  0  0  0  0  0  0  0  0
    1.9333    1.8442    0.0000 C   0  0  0  0  0  0  0  0  0  0  0  0
    1.9333    2.6692    0.0000 Cl  0  0  0  0  0  0  0  0  0  0  0  0
  2  1  1  0  0  0  0
  3  2  2  0  0  0  0
  3  4  1  0  0  0  0
  5  3  1  0  0  0  0
  5  6  1  0  0  0  0
  7  5  2  0  0  0  0
  8  7  1  0  0  0  0
  1  8  2  0  0  0  0
  8  9  1  0  0  0  0
  1 10  1  0  0  0  0
 11 10  1  0  0  0  0
 12 11  2  0  0  0  0
 13 12  1  0  0  0  0
 13 14  1  0  0  0  0
 15 13  2  0  0  0  0
 16 15  1  0  0  0  0
 10 16  2  0  0  0  0
 16 17  1  0  0  0  0
M  END
> <ChemID>
100480

> <CAS>
38380-01-7

> <Original_SMILES>
Clc1cc(Cl)c(cc1)-c1cc(Cl)c(Cl)cc1Cl

> <preferred_name>
2,2',4,4',5-Pentachlorobiphenyl

> <dsstox_substance_id>
DTXSID1073496

> <dsstox_compound_id>
DTXCID0039483

> <qc_level>
Public_High

> <Canonical_QSARr>
ClC1=CC(Cl)=C(C=C1)C1C=C(Cl)C(Cl)=CC=1Cl

> <InChI_Code_QSARr>
InChI=1S/C12H5Cl5/c13-6-1-2-7(9(14)3-6)8-4-11(16)12(17)5-10(8)15/h1-5H

> <InChI Key_QSARr>
LMQJBFRGXHMNOX-UHFFFAOYSA-N

> <Salt_Solvent>


> <Salt_Solvent_ID>
0

> <MPID>
102082

> <LogKmHL>
2.73

> <Tr_1_Tst_0>
0

$$$$
100481
  Mrv171c012251910542D          

 17 18  0  0  0  0            999 V2000
    0.7145    2.0625    0.0000 C   0  0  0  0  0  0  0  0  0  0  0  0
    1.4289    2.4750    0.0000 C   0  0  0  0  0  0  0  0  0  0  0  0
    1.4289    3.3000    0.0000 C   0  0  0  0  0  0  0  0  0  0  0  0
    0.7145    3.7125    0.0000 C   0  0  0  0  0  0  0  0  0  0  0  0
    0.7145    4.5375    0.0000 Cl  0  0  0  0  0  0  0  0  0  0  0  0
   -0.0000    3.3000    0.0000 C   0  0  0  0  0  0  0  0  0  0  0  0
   -0.7145    3.7125    0.0000 Cl  0  0  0  0  0  0  0  0  0  0  0  0
   -0.0000    2.4750    0.0000 C   0  0  0  0  0  0  0  0  0  0  0  0
   -0.7145    2.0625    0.0000 Cl  0  0  0  0  0  0  0  0  0  0  0  0
    0.7145    1.2375    0.0000 C   0  0  0  0  0  0  0  0  0  0  0  0
   -0.0000    0.8250    0.0000 C   0  0  0  0  0  0  0  0  0  0  0  0
   -0.0000    0.0000    0.0000 C   0  0  0  0  0  0  0  0  0  0  0  0
   -0.7145   -0.4125    0.0000 Cl  0  0  0  0  0  0  0  0  0  0  0  0
    0.7145   -0.4125    0.0000 C   0  0  0  0  0  0  0  0  0  0  0  0
    1.4289    0.0000    0.0000 C   0  0  0  0  0  0  0  0  0  0  0  0
    1.4289    0.8250    0.0000 C   0  0  0  0  0  0  0  0  0  0  0  0
    2.1434    1.2375    0.0000 Cl  0  0  0  0  0  0  0  0  0  0  0  0
  2  1  1  0  0  0  0
  3  2  2  0  0  0  0
  4  3  1  0  0  0  0
  4  5  1  0  0  0  0
  6  4  2  0  0  0  0
  6  7  1  0  0  0  0
  8  6  1  0  0  0  0
  1  8  2  0  0  0  0
  8  9  1  0  0  0  0
  1 10  1  0  0  0  0
 11 10  1  0  0  0  0
 12 11  2  0  0  0  0
 12 13  1  0  0  0  0
 14 12  1  0  0  0  0
 15 14  2  0  0  0  0
 16 15  1  0  0  0  0
 10 16  2  0  0  0  0
 16 17  1  0  0  0  0
M  END
> <ChemID>
100481

> <CAS>
38380-02-8

> <Original_SMILES>
Clc1cc(-c2ccc(Cl)c(Cl)c2Cl)c(Cl)cc1

> <preferred_name>
2,2',3,4,5'-Pentachlorobiphenyl

> <dsstox_substance_id>
DTXSID6073497

> <dsstox_compound_id>
DTXCID5039484

> <qc_level>
Public_High

> <Canonical_QSARr>
ClC1=CC(C2C=CC(Cl)=C(Cl)C=2Cl)=C(Cl)C=C1

> <InChI_Code_QSARr>
InChI=1S/C12H5Cl5/c13-6-1-3-9(14)8(5-6)7-2-4-10(15)12(17)11(7)16/h1-5H

> <InChI Key_QSARr>
OPKYDBFRKPQCBS-UHFFFAOYSA-N

> <Salt_Solvent>


> <Salt_Solvent_ID>
0

> <MPID>
102083

> <LogKmHL>
2.31

> <Tr_1_Tst_0>
1

$$$$
100482
  Mrv171c012251910542D          

 17 18  0  0  0  0            999 V2000
    1.7187   -1.6935    0.0000 C   0  0  0  0  0  0  0  0  0  0  0  0
    1.0042   -1.2810    0.0000 C   0  0  0  0  0  0  0  0  0  0  0  0
    1.0042   -0.4560    0.0000 Cl  0  0  0  0  0  0  0  0  0  0  0  0
    0.2897   -1.6935    0.0000 C   0  0  0  0  0  0  0  0  0  0  0  0
    0.2897   -2.5185    0.0000 C   0  0  0  0  0  0  0  0  0  0  0  0
    1.0042   -2.9310    0.0000 C   0  0  0  0  0  0  0  0  0  0  0  0
    1.0042   -3.7560    0.0000 Cl  0  0  0  0  0  0  0  0  0  0  0  0
    1.7187   -2.5185    0.0000 C   0  0  0  0  0  0  0  0  0  0  0  0
    2.4331   -2.9310    0.0000 Cl  0  0  0  0  0  0  0  0  0  0  0  0
    2.4331   -1.2810    0.0000 C   0  0  0  0  0  0  0  0  0  0  0  0
    3.1476   -1.6935    0.0000 C   0  0  0  0  0  0  0  0  0  0  0  0
    3.8621   -1.2810    0.0000 C   0  0  0  0  0  0  0  0  0  0  0  0
    3.8621   -0.4560    0.0000 C   0  0  0  0  0  0  0  0  0  0  0  0
    4.5766   -0.0435    0.0000 Cl  0  0  0  0  0  0  0  0  0  0  0  0
    3.1476   -0.0435    0.0000 C   0  0  0  0  0  0  0  0  0  0  0  0
    3.1476    0.7815    0.0000 Cl  0  0  0  0  0  0  0  0  0  0  0  0
    2.4331   -0.4560    0.0000 C   0  0  0  0  0  0  0  0  0  0  0  0
  2  1  1  0  0  0  0
  2  3  1  0  0  0  0
  4  2  2  0  0  0  0
  5  4  1  0  0  0  0
  6  5  2  0  0  0  0
  6  7  1  0  0  0  0
  8  6  1  0  0  0  0
  1  8  2  0  0  0  0
  8  9  1  0  0  0  0
  1 10  1  0  0  0  0
 11 10  1  0  0  0  0
 12 11  2  0  0  0  0
 13 12  1  0  0  0  0
 13 14  1  0  0  0  0
 15 13  2  0  0  0  0
 15 16  1  0  0  0  0
 17 15  1  0  0  0  0
 10 17  2  0  0  0  0
M  END
> <ChemID>
100482

> <CAS>
38380-03-9

> <Original_SMILES>
Clc1c(-c2cc(Cl)c(Cl)cc2)c(Cl)ccc1Cl

> <preferred_name>
2,3,3',4',6-Pentachlorobiphenyl

> <dsstox_substance_id>
DTXSID3038307

> <dsstox_compound_id>
DTXCID1018307

> <qc_level>
DSSTox_Low

> <Canonical_QSARr>
ClC1C=C(C=CC=1Cl)C1=C(Cl)C(Cl)=CC=C1Cl

> <InChI_Code_QSARr>
InChI=1S/C12H5Cl5/c13-7-2-1-6(5-10(7)16)11-8(14)3-4-9(15)12(11)17/h1-5H

> <InChI Key_QSARr>
ARXHIJMGSIYYRZ-UHFFFAOYSA-N

> <Salt_Solvent>


> <Salt_Solvent_ID>
0

> <MPID>
102084

> <LogKmHL>
2.63

> <Tr_1_Tst_0>
1

$$$$
100483
  Mrv171c012251910542D          

 18 19  0  0  0  0            999 V2000
    0.3572    1.1688    0.0000 C   0  0  0  0  0  0  0  0  0  0  0  0
   -0.3572    1.5813    0.0000 C   0  0  0  0  0  0  0  0  0  0  0  0
   -0.3572    2.4063    0.0000 Cl  0  0  0  0  0  0  0  0  0  0  0  0
   -1.0717    1.1688    0.0000 C   0  0  0  0  0  0  0  0  0  0  0  0
   -1.0717    0.3438    0.0000 C   0  0  0  0  0  0  0  0  0  0  0  0
   -0.3572   -0.0687    0.0000 C   0  0  0  0  0  0  0  0  0  0  0  0
   -0.3572   -0.8937    0.0000 Cl  0  0  0  0  0  0  0  0  0  0  0  0
    0.3572    0.3438    0.0000 C   0  0  0  0  0  0  0  0  0  0  0  0
    1.0717   -0.0687    0.0000 Cl  0  0  0  0  0  0  0  0  0  0  0  0
    1.0717    1.5813    0.0000 C   0  0  0  0  0  0  0  0  0  0  0  0
    1.7862    1.1688    0.0000 C   0  0  0  0  0  0  0  0  0  0  0  0
    2.5006    1.5813    0.0000 C   0  0  0  0  0  0  0  0  0  0  0  0
    2.5006    2.4063    0.0000 C   0  0  0  0  0  0  0  0  0  0  0  0
    3.2151    2.8188    0.0000 Cl  0  0  0  0  0  0  0  0  0  0  0  0
    1.7862    2.8188    0.0000 C   0  0  0  0  0  0  0  0  0  0  0  0
    1.7862    3.6438    0.0000 Cl  0  0  0  0  0  0  0  0  0  0  0  0
    1.0717    2.4063    0.0000 C   0  0  0  0  0  0  0  0  0  0  0  0
    0.3572    2.8188    0.0000 Cl  0  0  0  0  0  0  0  0  0  0  0  0
  2  1  1  0  0  0  0
  2  3  1  0  0  0  0
  4  2  2  0  0  0  0
  5  4  1  0  0  0  0
  6  5  2  0  0  0  0
  6  7  1  0  0  0  0
  8  6  1  0  0  0  0
  1  8  2  0  0  0  0
  8  9  1  0  0  0  0
  1 10  1  0  0  0  0
 11 10  1  0  0  0  0
 12 11  2  0  0  0  0
 13 12  1  0  0  0  0
 13 14  1  0  0  0  0
 15 13  2  0  0  0  0
 15 16  1  0  0  0  0
 17 15  1  0  0  0  0
 10 17  2  0  0  0  0
 17 18  1  0  0  0  0
M  END
> <ChemID>
100483

> <CAS>
38380-05-1

> <Original_SMILES>
Clc1ccc(Cl)c(-c2ccc(Cl)c(Cl)c2Cl)c1Cl

> <preferred_name>
2,2',3,3',4,6'-Hexachlorobiphenyl

> <dsstox_substance_id>
DTXSID9074141

> <dsstox_compound_id>
DTXCID5039486

> <qc_level>
Public_High

> <Canonical_QSARr>
ClC1C=CC(C2=C(Cl)C(Cl)=CC=C2Cl)=C(Cl)C=1Cl

> <InChI_Code_QSARr>
InChI=1S/C12H4Cl6/c13-6-3-4-7(14)11(17)9(6)5-1-2-8(15)12(18)10(5)16/h1-4H

> <InChI Key_QSARr>
OKBJVIVEFXPEOU-UHFFFAOYSA-N

> <Salt_Solvent>


> <Salt_Solvent_ID>
0

> <MPID>
102085

> <LogKmHL>
2.24

> <Tr_1_Tst_0>
1

$$$$
100484
  Mrv171c012251910542D          

 18 19  0  0  0  0            999 V2000
    0.0000    0.4115    0.0000 C   0  0  0  0  0  0  0  0  0  0  0  0
    0.7145    0.8240    0.0000 C   0  0  0  0  0  0  0  0  0  0  0  0
    0.7145    1.6490    0.0000 C   0  0  0  0  0  0  0  0  0  0  0  0
    0.0000    2.0615    0.0000 C   0  0  0  0  0  0  0  0  0  0  0  0
    0.0000    2.8865    0.0000 Cl  0  0  0  0  0  0  0  0  0  0  0  0
   -0.7145    1.6490    0.0000 C   0  0  0  0  0  0  0  0  0  0  0  0
   -1.4289    2.0615    0.0000 Cl  0  0  0  0  0  0  0  0  0  0  0  0
   -0.7145    0.8240    0.0000 C   0  0  0  0  0  0  0  0  0  0  0  0
   -1.4289    0.4115    0.0000 Cl  0  0  0  0  0  0  0  0  0  0  0  0
    0.0000   -0.4135    0.0000 C   0  0  0  0  0  0  0  0  0  0  0  0
   -0.7145   -0.8260    0.0000 C   0  0  0  0  0  0  0  0  0  0  0  0
   -0.7145   -1.6510    0.0000 C   0  0  0  0  0  0  0  0  0  0  0  0
    0.0000   -2.0635    0.0000 C   0  0  0  0  0  0  0  0  0  0  0  0
    0.0000   -2.8885    0.0000 Cl  0  0  0  0  0  0  0  0  0  0  0  0
    0.7145   -1.6510    0.0000 C   0  0  0  0  0  0  0  0  0  0  0  0
    1.4290   -2.0635    0.0000 Cl  0  0  0  0  0  0  0  0  0  0  0  0
    0.7145   -0.8260    0.0000 C   0  0  0  0  0  0  0  0  0  0  0  0
    1.4290   -0.4135    0.0000 Cl  0  0  0  0  0  0  0  0  0  0  0  0
  2  1  1  0  0  0  0
  3  2  2  0  0  0  0
  4  3  1  0  0  0  0
  4  5  1  0  0  0  0
  6  4  2  0  0  0  0
  6  7  1  0  0  0  0
  8  6  1  0  0  0  0
  1  8  2  0  0  0  0
  8  9  1  0  0  0  0
  1 10  1  0  0  0  0
 11 10  1  0  0  0  0
 12 11  2  0  0  0  0
 13 12  1  0  0  0  0
 13 14  1  0  0  0  0
 15 13  2  0  0  0  0
 15 16  1  0  0  0  0
 17 15  1  0  0  0  0
 10 17  2  0  0  0  0
 17 18  1  0  0  0  0
M  END
> <ChemID>
100484

> <CAS>
38380-07-3

> <Original_SMILES>
Clc1ccc(-c2ccc(Cl)c(Cl)c2Cl)c(Cl)c1Cl

> <preferred_name>
2,2',3,3',4,4'-Hexachlorobiphenyl

> <dsstox_substance_id>
DTXSID50858932

> <dsstox_compound_id>
DTXCID40101

> <qc_level>
DSSTox_High

> <Canonical_QSARr>
ClC1C=CC(C2C=CC(Cl)=C(Cl)C=2Cl)=C(Cl)C=1Cl

> <InChI_Code_QSARr>
InChI=1S/C12H4Cl6/c13-7-3-1-5(9(15)11(7)17)6-2-4-8(14)12(18)10(6)16/h1-4H

> <InChI Key_QSARr>
BTAGRXWGMYTPBY-UHFFFAOYSA-N

> <Salt_Solvent>


> <Salt_Solvent_ID>
0

> <MPID>
102086

> <LogKmHL>
2.64

> <Tr_1_Tst_0>
0

$$$$
100485
  Mrv171c012251910542D          

 18 19  0  0  0  0            999 V2000
    2.9464   -0.0150    0.0000 C   0  0  0  0  0  0  0  0  0  0  0  0
    3.6608    0.3975    0.0000 Cl  0  0  0  0  0  0  0  0  0  0  0  0
    2.2319    0.3975    0.0000 C   0  0  0  0  0  0  0  0  0  0  0  0
    2.2319    1.2225    0.0000 Cl  0  0  0  0  0  0  0  0  0  0  0  0
    1.5174   -0.0150    0.0000 C   0  0  0  0  0  0  0  0  0  0  0  0
    0.8029    0.3975    0.0000 Cl  0  0  0  0  0  0  0  0  0  0  0  0
    1.5174   -0.8400    0.0000 C   0  0  0  0  0  0  0  0  0  0  0  0
    2.2319   -1.2525    0.0000 C   0  0  0  0  0  0  0  0  0  0  0  0
    2.2319   -2.0775    0.0000 C   0  0  0  0  0  0  0  0  0  0  0  0
    1.5174   -2.4900    0.0000 C   0  0  0  0  0  0  0  0  0  0  0  0
    1.5174   -3.3150    0.0000 C   0  0  0  0  0  0  0  0  0  0  0  0
    2.2319   -3.7275    0.0000 C   0  0  0  0  0  0  0  0  0  0  0  0
    2.2319   -4.5525    0.0000 Cl  0  0  0  0  0  0  0  0  0  0  0  0
    2.9464   -3.3150    0.0000 C   0  0  0  0  0  0  0  0  0  0  0  0
    3.6608   -3.7275    0.0000 Cl  0  0  0  0  0  0  0  0  0  0  0  0
    2.9464   -2.4900    0.0000 C   0  0  0  0  0  0  0  0  0  0  0  0
    2.9464   -0.8400    0.0000 C   0  0  0  0  0  0  0  0  0  0  0  0
    3.6608   -1.2525    0.0000 Cl  0  0  0  0  0  0  0  0  0  0  0  0
  1  2  1  0  0  0  0
  3  1  2  0  0  0  0
  3  4  1  0  0  0  0
  5  3  1  0  0  0  0
  5  6  1  0  0  0  0
  7  5  2  0  0  0  0
  8  7  1  0  0  0  0
  8  9  1  0  0  0  0
 10  9  1  0  0  0  0
 11 10  2  0  0  0  0
 12 11  1  0  0  0  0
 12 13  1  0  0  0  0
 14 12  2  0  0  0  0
 14 15  1  0  0  0  0
 16 14  1  0  0  0  0
  9 16  2  0  0  0  0
 17  8  2  0  0  0  0
  1 17  1  0  0  0  0
 17 18  1  0  0  0  0
M  END
> <ChemID>
100485

> <CAS>
38380-08-4

> <Original_SMILES>
Clc1c(cc(Cl)c(Cl)c1Cl)-c1cc(Cl)c(Cl)cc1

> <preferred_name>
2,3,3',4,4',5-Hexachlorobiphenyl

> <dsstox_substance_id>
DTXSID0052706

> <dsstox_compound_id>
DTXCID9031301

> <qc_level>
DSSTox_Low

> <Canonical_QSARr>
ClC1C=C(C=CC=1Cl)C1C=C(Cl)C(Cl)=C(Cl)C=1Cl

> <InChI_Code_QSARr>
InChI=1S/C12H4Cl6/c13-7-2-1-5(3-8(7)14)6-4-9(15)11(17)12(18)10(6)16/h1-4H

> <InChI Key_QSARr>
LCXMEXLGMKFLQO-UHFFFAOYSA-N

> <Salt_Solvent>


> <Salt_Solvent_ID>
0

> <MPID>
102087

> <LogKmHL>
2.73

> <Tr_1_Tst_0>
1

$$$$
100486
  Mrv171c012251910542D          

 18 19  0  0  0  0            999 V2000
    0.3572    1.4438    0.0000 C   0  0  0  0  0  0  0  0  0  0  0  0
   -0.3572    1.8563    0.0000 C   0  0  0  0  0  0  0  0  0  0  0  0
   -0.3572    2.6813    0.0000 Cl  0  0  0  0  0  0  0  0  0  0  0  0
   -1.0717    1.4438    0.0000 C   0  0  0  0  0  0  0  0  0  0  0  0
   -1.0717    0.6188    0.0000 C   0  0  0  0  0  0  0  0  0  0  0  0
   -0.3572    0.2063    0.0000 C   0  0  0  0  0  0  0  0  0  0  0  0
   -0.3572   -0.6187    0.0000 Cl  0  0  0  0  0  0  0  0  0  0  0  0
    0.3572    0.6188    0.0000 C   0  0  0  0  0  0  0  0  0  0  0  0
    1.0717    0.2063    0.0000 Cl  0  0  0  0  0  0  0  0  0  0  0  0
    1.0717    1.8563    0.0000 C   0  0  0  0  0  0  0  0  0  0  0  0
    1.7862    1.4438    0.0000 C   0  0  0  0  0  0  0  0  0  0  0  0
    1.7862    0.6188    0.0000 Cl  0  0  0  0  0  0  0  0  0  0  0  0
    2.5006    1.8563    0.0000 C   0  0  0  0  0  0  0  0  0  0  0  0
    2.5006    2.6813    0.0000 C   0  0  0  0  0  0  0  0  0  0  0  0
    1.7862    3.0938    0.0000 C   0  0  0  0  0  0  0  0  0  0  0  0
    1.7862    3.9188    0.0000 Cl  0  0  0  0  0  0  0  0  0  0  0  0
    1.0717    2.6813    0.0000 C   0  0  0  0  0  0  0  0  0  0  0  0
    0.3572    3.0938    0.0000 Cl  0  0  0  0  0  0  0  0  0  0  0  0
  2  1  1  0  0  0  0
  2  3  1  0  0  0  0
  4  2  2  0  0  0  0
  5  4  1  0  0  0  0
  6  5  2  0  0  0  0
  6  7  1  0  0  0  0
  8  6  1  0  0  0  0
  1  8  2  0  0  0  0
  8  9  1  0  0  0  0
  1 10  1  0  0  0  0
 11 10  1  0  0  0  0
 11 12  1  0  0  0  0
 13 11  2  0  0  0  0
 14 13  1  0  0  0  0
 15 14  2  0  0  0  0
 15 16  1  0  0  0  0
 17 15  1  0  0  0  0
 10 17  2  0  0  0  0
 17 18  1  0  0  0  0
M  END
> <ChemID>
100486

> <CAS>
38411-22-2

> <Original_SMILES>
Clc1ccc(Cl)c(Cl)c1-c1c(Cl)c(Cl)ccc1Cl

> <preferred_name>
2,2',3,3',6,6'-Hexachlorobiphenyl

> <dsstox_substance_id>
DTXSID6073499

> <dsstox_compound_id>
DTXCID9039490

> <qc_level>
Public_High

> <Canonical_QSARr>
ClC1=CC=C(Cl)C(Cl)=C1C1=C(Cl)C(Cl)=CC=C1Cl

> <InChI_Code_QSARr>
InChI=1S/C12H4Cl6/c13-5-1-3-7(15)11(17)9(5)10-6(14)2-4-8(16)12(10)18/h1-4H

> <InChI Key_QSARr>
FZFUUSROAHKTTF-UHFFFAOYSA-N

> <Salt_Solvent>


> <Salt_Solvent_ID>
0

> <MPID>
102088

> <LogKmHL>
2.34

> <Tr_1_Tst_0>
1

$$$$
100487
  Mrv171c012251910542D          

 19 20  0  0  0  0            999 V2000
    0.1504    1.0855    0.0000 C   0  0  0  0  0  0  0  0  0  0  0  0
   -0.5641    1.4980    0.0000 C   0  0  0  0  0  0  0  0  0  0  0  0
   -0.5641    2.3230    0.0000 Cl  0  0  0  0  0  0  0  0  0  0  0  0
   -1.2785    1.0855    0.0000 C   0  0  0  0  0  0  0  0  0  0  0  0
   -1.2785    0.2605    0.0000 C   0  0  0  0  0  0  0  0  0  0  0  0
   -0.5641   -0.1520    0.0000 C   0  0  0  0  0  0  0  0  0  0  0  0
   -0.5641   -0.9770    0.0000 Cl  0  0  0  0  0  0  0  0  0  0  0  0
    0.1504    0.2605    0.0000 C   0  0  0  0  0  0  0  0  0  0  0  0
    0.8649   -0.1520    0.0000 Cl  0  0  0  0  0  0  0  0  0  0  0  0
    0.8649    1.4980    0.0000 C   0  0  0  0  0  0  0  0  0  0  0  0
    1.5793    1.0855    0.0000 C   0  0  0  0  0  0  0  0  0  0  0  0
    2.2938    1.4980    0.0000 C   0  0  0  0  0  0  0  0  0  0  0  0
    3.0083    1.0855    0.0000 Cl  0  0  0  0  0  0  0  0  0  0  0  0
    2.2938    2.3230    0.0000 C   0  0  0  0  0  0  0  0  0  0  0  0
    3.0083    2.7355    0.0000 Cl  0  0  0  0  0  0  0  0  0  0  0  0
    1.5793    2.7355    0.0000 C   0  0  0  0  0  0  0  0  0  0  0  0
    1.5793    3.5605    0.0000 Cl  0  0  0  0  0  0  0  0  0  0  0  0
    0.8649    2.3230    0.0000 C   0  0  0  0  0  0  0  0  0  0  0  0
    0.1504    2.7355    0.0000 Cl  0  0  0  0  0  0  0  0  0  0  0  0
  2  1  1  0  0  0  0
  2  3  1  0  0  0  0
  4  2  2  0  0  0  0
  5  4  1  0  0  0  0
  6  5  2  0  0  0  0
  6  7  1  0  0  0  0
  8  6  1  0  0  0  0
  1  8  2  0  0  0  0
  8  9  1  0  0  0  0
  1 10  1  0  0  0  0
 11 10  1  0  0  0  0
 12 11  2  0  0  0  0
 12 13  1  0  0  0  0
 14 12  1  0  0  0  0
 14 15  1  0  0  0  0
 16 14  2  0  0  0  0
 16 17  1  0  0  0  0
 18 16  1  0  0  0  0
 10 18  2  0  0  0  0
 18 19  1  0  0  0  0
M  END
> <ChemID>
100487

> <CAS>
38411-25-5

> <Original_SMILES>
Clc1c(cc(Cl)c(Cl)c1Cl)-c1c(Cl)c(Cl)ccc1Cl

> <preferred_name>
2,2',3,3',4,5,6'-Heptachlorobiphenyl

> <dsstox_substance_id>
DTXSID4074142

> <dsstox_compound_id>
DTXCID4039491

> <qc_level>
Public_High

> <Canonical_QSARr>
ClC1=C(C=C(Cl)C(Cl)=C1Cl)C1=C(Cl)C(Cl)=CC=C1Cl

> <InChI_Code_QSARr>
InChI=1S/C12H3Cl7/c13-5-1-2-6(14)10(17)8(5)4-3-7(15)11(18)12(19)9(4)16/h1-3H

> <InChI Key_QSARr>
ZDLMBNHYTPHDLF-UHFFFAOYSA-N

> <Salt_Solvent>


> <Salt_Solvent_ID>
0

> <MPID>
102089

> <LogKmHL>
2.47

> <Tr_1_Tst_0>
1

$$$$
100488
  Mrv171c012251910542D          

 15 16  0  0  0  0            999 V2000
    0.5239    1.4025    0.0000 C   0  0  0  0  0  0  0  0  0  0  0  0
   -0.1905    1.8150    0.0000 C   0  0  0  0  0  0  0  0  0  0  0  0
   -0.1905    2.6400    0.0000 Cl  0  0  0  0  0  0  0  0  0  0  0  0
   -0.9050    1.4025    0.0000 C   0  0  0  0  0  0  0  0  0  0  0  0
   -0.9050    0.5775    0.0000 C   0  0  0  0  0  0  0  0  0  0  0  0
   -0.1905    0.1650    0.0000 C   0  0  0  0  0  0  0  0  0  0  0  0
    0.5239    0.5775    0.0000 C   0  0  0  0  0  0  0  0  0  0  0  0
    1.2384    0.1650    0.0000 Cl  0  0  0  0  0  0  0  0  0  0  0  0
    1.2384    1.8150    0.0000 C   0  0  0  0  0  0  0  0  0  0  0  0
    1.9529    1.4025    0.0000 C   0  0  0  0  0  0  0  0  0  0  0  0
    2.6673    1.8150    0.0000 C   0  0  0  0  0  0  0  0  0  0  0  0
    2.6673    2.6400    0.0000 C   0  0  0  0  0  0  0  0  0  0  0  0
    1.9529    3.0525    0.0000 C   0  0  0  0  0  0  0  0  0  0  0  0
    1.2384    2.6400    0.0000 C   0  0  0  0  0  0  0  0  0  0  0  0
    0.5239    3.0525    0.0000 Cl  0  0  0  0  0  0  0  0  0  0  0  0
  2  1  1  0  0  0  0
  2  3  1  0  0  0  0
  4  2  2  0  0  0  0
  5  4  1  0  0  0  0
  6  5  2  0  0  0  0
  7  6  1  0  0  0  0
  1  7  2  0  0  0  0
  7  8  1  0  0  0  0
  1  9  1  0  0  0  0
 10  9  1  0  0  0  0
 11 10  2  0  0  0  0
 12 11  1  0  0  0  0
 13 12  2  0  0  0  0
 14 13  1  0  0  0  0
  9 14  2  0  0  0  0
 14 15  1  0  0  0  0
M  END
> <ChemID>
100488

> <CAS>
38444-73-4

> <Original_SMILES>
Clc1ccccc1-c1c(Cl)cccc1Cl

> <preferred_name>
PCB 019

> <dsstox_substance_id>
DTXSID9074777

> <dsstox_compound_id>
DTXCID6039502

> <qc_level>
Public_High

> <Canonical_QSARr>
ClC1C=CC=CC=1C1C(Cl)=CC=CC=1Cl

> <InChI_Code_QSARr>
InChI=1S/C12H7Cl3/c13-9-5-2-1-4-8(9)12-10(14)6-3-7-11(12)15/h1-7H

> <InChI Key_QSARr>
MVXIJRBBCDLNLX-UHFFFAOYSA-N

> <Salt_Solvent>


> <Salt_Solvent_ID>
0

> <MPID>
102090

> <LogKmHL>
2.5

> <Tr_1_Tst_0>
0

$$$$
100489
  Mrv171c012251910542D          

 15 16  0  0  0  0            999 V2000
    0.2382    1.2375    0.0000 C   0  0  0  0  0  0  0  0  0  0  0  0
   -0.4763    1.6500    0.0000 C   0  0  0  0  0  0  0  0  0  0  0  0
   -0.4763    2.4750    0.0000 Cl  0  0  0  0  0  0  0  0  0  0  0  0
   -1.1908    1.2375    0.0000 C   0  0  0  0  0  0  0  0  0  0  0  0
   -1.1908    0.4125    0.0000 C   0  0  0  0  0  0  0  0  0  0  0  0
   -0.4763    0.0000    0.0000 C   0  0  0  0  0  0  0  0  0  0  0  0
    0.2382    0.4125    0.0000 C   0  0  0  0  0  0  0  0  0  0  0  0
    0.9526    0.0000    0.0000 Cl  0  0  0  0  0  0  0  0  0  0  0  0
    0.9526    1.6500    0.0000 C   0  0  0  0  0  0  0  0  0  0  0  0
    1.6671    1.2375    0.0000 C   0  0  0  0  0  0  0  0  0  0  0  0
    2.3816    1.6500    0.0000 C   0  0  0  0  0  0  0  0  0  0  0  0
    2.3816    2.4750    0.0000 C   0  0  0  0  0  0  0  0  0  0  0  0
    3.0960    2.8875    0.0000 Cl  0  0  0  0  0  0  0  0  0  0  0  0
    1.6671    2.8875    0.0000 C   0  0  0  0  0  0  0  0  0  0  0  0
    0.9526    2.4750    0.0000 C   0  0  0  0  0  0  0  0  0  0  0  0
  2  1  1  0  0  0  0
  2  3  1  0  0  0  0
  4  2  2  0  0  0  0
  5  4  1  0  0  0  0
  6  5  2  0  0  0  0
  7  6  1  0  0  0  0
  1  7  2  0  0  0  0
  7  8  1  0  0  0  0
  1  9  1  0  0  0  0
 10  9  1  0  0  0  0
 11 10  2  0  0  0  0
 12 11  1  0  0  0  0
 12 13  1  0  0  0  0
 14 12  2  0  0  0  0
 15 14  1  0  0  0  0
  9 15  2  0  0  0  0
M  END
> <ChemID>
100489

> <CAS>
38444-77-8

> <Original_SMILES>
Clc1ccc(cc1)-c1c(Cl)cccc1Cl

> <preferred_name>
2,4',6-Trichlorobiphenyl

> <dsstox_substance_id>
DTXSID8073500

> <dsstox_compound_id>
DTXCID6039504

> <qc_level>
Public_High

> <Canonical_QSARr>
ClC1C=CC=C(Cl)C=1C1C=CC(Cl)=CC=1

> <InChI_Code_QSARr>
InChI=1S/C12H7Cl3/c13-9-6-4-8(5-7-9)12-10(14)2-1-3-11(12)15/h1-7H

> <InChI Key_QSARr>
IHIDFKLAWYPTKB-UHFFFAOYSA-N

> <Salt_Solvent>


> <Salt_Solvent_ID>
0

> <MPID>
102091

> <LogKmHL>
2.44

> <Tr_1_Tst_0>
1

$$$$
100490
  Mrv171c012251910542D          

 15 16  0  0  0  0            999 V2000
    0.1586   -0.5771    0.0000 C   0  0  0  0  0  0  0  0  0  0  0  0
   -0.5559   -0.1646    0.0000 C   0  0  0  0  0  0  0  0  0  0  0  0
   -0.5559    0.6604    0.0000 Cl  0  0  0  0  0  0  0  0  0  0  0  0
   -1.2704   -0.5771    0.0000 C   0  0  0  0  0  0  0  0  0  0  0  0
   -1.9848   -0.1646    0.0000 Cl  0  0  0  0  0  0  0  0  0  0  0  0
   -1.2704   -1.4021    0.0000 C   0  0  0  0  0  0  0  0  0  0  0  0
   -0.5559   -1.8146    0.0000 C   0  0  0  0  0  0  0  0  0  0  0  0
    0.1586   -1.4021    0.0000 C   0  0  0  0  0  0  0  0  0  0  0  0
    0.8730   -0.1646    0.0000 C   0  0  0  0  0  0  0  0  0  0  0  0
    1.5875   -0.5771    0.0000 C   0  0  0  0  0  0  0  0  0  0  0  0
    2.3020   -0.1646    0.0000 C   0  0  0  0  0  0  0  0  0  0  0  0
    2.3020    0.6604    0.0000 C   0  0  0  0  0  0  0  0  0  0  0  0
    3.0165    1.0729    0.0000 Cl  0  0  0  0  0  0  0  0  0  0  0  0
    1.5875    1.0729    0.0000 C   0  0  0  0  0  0  0  0  0  0  0  0
    0.8730    0.6604    0.0000 C   0  0  0  0  0  0  0  0  0  0  0  0
  2  1  2  0  0  0  0
  2  3  1  0  0  0  0
  4  2  1  0  0  0  0
  4  5  1  0  0  0  0
  6  4  2  0  0  0  0
  7  6  1  0  0  0  0
  8  7  2  0  0  0  0
  1  8  1  0  0  0  0
  1  9  1  0  0  0  0
 10  9  1  0  0  0  0
 11 10  2  0  0  0  0
 12 11  1  0  0  0  0
 12 13  1  0  0  0  0
 14 12  2  0  0  0  0
 15 14  1  0  0  0  0
  9 15  2  0  0  0  0
M  END
> <ChemID>
100490

> <CAS>
38444-85-8

> <Original_SMILES>
Clc1ccc(cc1)-c1cccc(Cl)c1Cl

> <preferred_name>
2,3,4'-Trichlorobiphenyl

> <dsstox_substance_id>
DTXSID7091549

> <dsstox_compound_id>
DTXCID9065231

> <qc_level>
DSSTox_Low

> <Canonical_QSARr>
ClC1C=CC(=CC=1)C1C=CC=C(Cl)C=1Cl

> <InChI_Code_QSARr>
InChI=1S/C12H7Cl3/c13-9-6-4-8(5-7-9)10-2-1-3-11(14)12(10)15/h1-7H

> <InChI Key_QSARr>
ZMHWQAHZKUPENF-UHFFFAOYSA-N

> <Salt_Solvent>


> <Salt_Solvent_ID>
0

> <MPID>
102092

> <LogKmHL>
2.16

> <Tr_1_Tst_0>
1

$$$$
100491
  Mrv171c012251910542D          

 16 17  0  0  0  0            999 V2000
    1.0717    1.8563    0.0000 C   0  0  0  0  0  0  0  0  0  0  0  0
    1.7862    1.4438    0.0000 C   0  0  0  0  0  0  0  0  0  0  0  0
    2.5006    1.8563    0.0000 C   0  0  0  0  0  0  0  0  0  0  0  0
    2.5006    2.6813    0.0000 C   0  0  0  0  0  0  0  0  0  0  0  0
    1.7862    3.0938    0.0000 C   0  0  0  0  0  0  0  0  0  0  0  0
    1.7862    3.9188    0.0000 Cl  0  0  0  0  0  0  0  0  0  0  0  0
    1.0717    2.6813    0.0000 C   0  0  0  0  0  0  0  0  0  0  0  0
    0.3572    3.0938    0.0000 Cl  0  0  0  0  0  0  0  0  0  0  0  0
    0.3572    1.4438    0.0000 C   0  0  0  0  0  0  0  0  0  0  0  0
   -0.3572    1.8563    0.0000 C   0  0  0  0  0  0  0  0  0  0  0  0
   -1.0717    1.4438    0.0000 C   0  0  0  0  0  0  0  0  0  0  0  0
   -1.0717    0.6188    0.0000 C   0  0  0  0  0  0  0  0  0  0  0  0
   -0.3572    0.2063    0.0000 C   0  0  0  0  0  0  0  0  0  0  0  0
   -0.3572   -0.6187    0.0000 Cl  0  0  0  0  0  0  0  0  0  0  0  0
    0.3572    0.6188    0.0000 C   0  0  0  0  0  0  0  0  0  0  0  0
    1.0717    0.2063    0.0000 Cl  0  0  0  0  0  0  0  0  0  0  0  0
  2  1  1  0  0  0  0
  3  2  2  0  0  0  0
  4  3  1  0  0  0  0
  5  4  2  0  0  0  0
  5  6  1  0  0  0  0
  7  5  1  0  0  0  0
  1  7  2  0  0  0  0
  7  8  1  0  0  0  0
  1  9  1  0  0  0  0
 10  9  1  0  0  0  0
 11 10  2  0  0  0  0
 12 11  1  0  0  0  0
 13 12  2  0  0  0  0
 13 14  1  0  0  0  0
 15 13  1  0  0  0  0
  9 15  2  0  0  0  0
 15 16  1  0  0  0  0
M  END
> <ChemID>
100491

> <CAS>
38444-93-8

> <Original_SMILES>
Clc1cccc(-c2cccc(Cl)c2Cl)c1Cl

> <preferred_name>
2,2',3,3'-Tetrachlorobiphenyl

> <dsstox_substance_id>
DTXSID3073503

> <dsstox_compound_id>
DTXCID6039508

> <qc_level>
Public_High

> <Canonical_QSARr>
ClC1=CC=CC(C2C=CC=C(Cl)C=2Cl)=C1Cl

> <InChI_Code_QSARr>
InChI=1S/C12H6Cl4/c13-9-5-1-3-7(11(9)15)8-4-2-6-10(14)12(8)16/h1-6H

> <InChI Key_QSARr>
VTLYHLREPCPDKX-UHFFFAOYSA-N

> <Salt_Solvent>


> <Salt_Solvent_ID>
0

> <MPID>
102093

> <LogKmHL>
2.0

> <Tr_1_Tst_0>
1

$$$$
100493
  Mrv171c012251910542D          

 21 23  0  0  0  0            999 V2000
    2.1629   -2.2433    0.0000 C   0  0  0  0  0  0  0  0  0  0  0  0
    2.8304   -2.7282    0.0000 O   0  0  0  0  0  0  0  0  0  0  0  0
    3.4978   -2.2433    0.0000 C   0  0  0  0  0  0  0  0  0  0  0  0
    4.3048   -2.4148    0.0000 C   0  0  0  0  0  0  0  0  0  0  0  0
    4.8568   -1.8017    0.0000 C   0  0  0  0  0  0  0  0  0  0  0  0
    4.6019   -1.0171    0.0000 C   0  0  0  0  0  0  0  0  0  0  0  0
    3.7949   -0.8455    0.0000 C   0  0  0  0  0  0  0  0  0  0  0  0
    3.5400   -0.0609    0.0000 Cl  0  0  0  0  0  0  0  0  0  0  0  0
    3.2429   -1.4586    0.0000 C   0  0  0  0  0  0  0  0  0  0  0  0
    2.4179   -1.4586    0.0000 C   0  0  0  0  0  0  0  0  0  0  0  0
    1.8658   -0.8455    0.0000 C   0  0  0  0  0  0  0  0  0  0  0  0
    2.1208   -0.0609    0.0000 Cl  0  0  0  0  0  0  0  0  0  0  0  0
    1.0589   -1.0171    0.0000 C   0  0  0  0  0  0  0  0  0  0  0  0
    0.5068   -0.4040    0.0000 Cl  0  0  0  0  0  0  0  0  0  0  0  0
    0.8039   -1.8017    0.0000 C   0  0  0  0  0  0  0  0  0  0  0  0
   -0.0030   -1.9732    0.0000 Cl  0  0  0  0  0  0  0  0  0  0  0  0
    1.3560   -2.4148    0.0000 C   0  0  0  0  0  0  0  0  0  0  0  0
    1.1010   -3.1994    0.0000 Cl  0  0  0  0  0  0  0  0  0  0  0  0
    5.1539   -0.4040    0.0000 Cl  0  0  0  0  0  0  0  0  0  0  0  0
    5.6638   -1.9732    0.0000 Cl  0  0  0  0  0  0  0  0  0  0  0  0
    4.5597   -3.1994    0.0000 Cl  0  0  0  0  0  0  0  0  0  0  0  0
  2  1  1  0  0  0  0
  3  2  1  0  0  0  0
  3  4  1  0  0  0  0
  4  5  2  0  0  0  0
  5  6  1  0  0  0  0
  6  7  2  0  0  0  0
  7  8  1  0  0  0  0
  7  9  1  0  0  0  0
  9  3  2  0  0  0  0
 10  9  1  0  0  0  0
 10  1  1  0  0  0  0
 11 10  2  0  0  0  0
 11 12  1  0  0  0  0
 13 11  1  0  0  0  0
 13 14  1  0  0  0  0
 15 13  2  0  0  0  0
 15 16  1  0  0  0  0
 17 15  1  0  0  0  0
  1 17  2  0  0  0  0
 17 18  1  0  0  0  0
  6 19  1  0  0  0  0
  5 20  1  0  0  0  0
  4 21  1  0  0  0  0
M  END
> <ChemID>
100493

> <CAS>
39001-02-0

> <Original_SMILES>
Clc1c2oc3c(c2c(Cl)c(Cl)c1Cl)c(Cl)c(Cl)c(Cl)c3Cl

> <preferred_name>
Octachlorodibenzofuran

> <dsstox_substance_id>
DTXSID3052062

> <dsstox_compound_id>
DTXCID4030629

> <qc_level>
DSSTox_Low

> <Canonical_QSARr>
ClC1C2OC3C(C=2C(Cl)=C(Cl)C=1Cl)=C(Cl)C(Cl)=C(Cl)C=3Cl

> <InChI_Code_QSARr>
InChI=1S/C12Cl8O/c13-3-1-2-4(14)6(16)8(18)10(20)12(2)21-11(1)9(19)7(17)5(3)15

> <InChI Key_QSARr>
RHIROFAGUQOFLU-UHFFFAOYSA-N

> <Salt_Solvent>


> <Salt_Solvent_ID>
0

> <MPID>
102094

> <LogKmHL>
1.22

> <Tr_1_Tst_0>
0

$$$$
100494
  Mrv171c012251910542D          

 20 22  0  0  0  0            999 V2000
    2.1475   -2.0636    0.0000 C   0  0  0  0  0  0  0  0  0  0  0  0
    2.8619   -2.4761    0.0000 O   0  0  0  0  0  0  0  0  0  0  0  0
    3.5764   -2.0636    0.0000 C   0  0  0  0  0  0  0  0  0  0  0  0
    4.2909   -2.4761    0.0000 C   0  0  0  0  0  0  0  0  0  0  0  0
    5.0054   -2.0636    0.0000 C   0  0  0  0  0  0  0  0  0  0  0  0
    5.0054   -1.2386    0.0000 C   0  0  0  0  0  0  0  0  0  0  0  0
    4.2909   -0.8261    0.0000 C   0  0  0  0  0  0  0  0  0  0  0  0
    4.2909   -0.0011    0.0000 Cl  0  0  0  0  0  0  0  0  0  0  0  0
    3.5764   -1.2386    0.0000 C   0  0  0  0  0  0  0  0  0  0  0  0
    2.8619   -0.8261    0.0000 O   0  0  0  0  0  0  0  0  0  0  0  0
    2.1475   -1.2386    0.0000 C   0  0  0  0  0  0  0  0  0  0  0  0
    1.4330   -0.8261    0.0000 C   0  0  0  0  0  0  0  0  0  0  0  0
    0.7185   -1.2386    0.0000 C   0  0  0  0  0  0  0  0  0  0  0  0
    0.0041   -0.8261    0.0000 Cl  0  0  0  0  0  0  0  0  0  0  0  0
    0.7185   -2.0636    0.0000 C   0  0  0  0  0  0  0  0  0  0  0  0
    0.0041   -2.4761    0.0000 Cl  0  0  0  0  0  0  0  0  0  0  0  0
    1.4330   -2.4761    0.0000 C   0  0  0  0  0  0  0  0  0  0  0  0
    5.7198   -0.8261    0.0000 Cl  0  0  0  0  0  0  0  0  0  0  0  0
    5.7198   -2.4761    0.0000 Cl  0  0  0  0  0  0  0  0  0  0  0  0
    4.2909   -3.3011    0.0000 Cl  0  0  0  0  0  0  0  0  0  0  0  0
  2  1  1  0  0  0  0
  3  2  1  0  0  0  0
  3  4  1  0  0  0  0
  4  5  2  0  0  0  0
  5  6  1  0  0  0  0
  6  7  2  0  0  0  0
  7  8  1  0  0  0  0
  7  9  1  0  0  0  0
  9  3  2  0  0  0  0
 10  9  1  0  0  0  0
 11 10  1  0  0  0  0
 11  1  1  0  0  0  0
 12 11  2  0  0  0  0
 13 12  1  0  0  0  0
 13 14  1  0  0  0  0
 15 13  2  0  0  0  0
 15 16  1  0  0  0  0
 17 15  1  0  0  0  0
  1 17  2  0  0  0  0
  6 18  1  0  0  0  0
  5 19  1  0  0  0  0
  4 20  1  0  0  0  0
M  END
> <ChemID>
100494

> <CAS>
39227-28-6

> <Original_SMILES>
Clc1cc2Oc3c(Oc2cc1Cl)c(Cl)c(Cl)c(Cl)c3Cl

> <preferred_name>
1,2,3,4,7,8-Hexachlorodibenzodioxin

> <dsstox_substance_id>
DTXSID8052067

> <dsstox_compound_id>
DTXCID3030634

> <qc_level>
DSSTox_High

> <Canonical_QSARr>
ClC1C=C2OC3=C(OC2=CC=1Cl)C(Cl)=C(Cl)C(Cl)=C3Cl

> <InChI_Code_QSARr>
InChI=1S/C12H2Cl6O2/c13-3-1-5-6(2-4(3)14)20-12-10(18)8(16)7(15)9(17)11(12)19-5/h1-2H

> <InChI Key_QSARr>
WCYYQNSQJHPVMG-UHFFFAOYSA-N

> <Salt_Solvent>


> <Salt_Solvent_ID>
0

> <MPID>
102095

> <LogKmHL>
1.27

> <Tr_1_Tst_0>
1

$$$$
100495
  Mrv171c012251910542D          

 17 19  0  0  0  0            999 V2000
    5.1158    1.6492    0.0000 Cl  0  0  0  0  0  0  0  0  0  0  0  0
    5.1158    0.8242    0.0000 C   0  0  0  0  0  0  0  0  0  0  0  0
    5.8303    0.4117    0.0000 C   0  0  0  0  0  0  0  0  0  0  0  0
    6.5447    0.8242    0.0000 Cl  0  0  0  0  0  0  0  0  0  0  0  0
    5.8303   -0.4133    0.0000 C   0  0  0  0  0  0  0  0  0  0  0  0
    5.1158   -0.8258    0.0000 C   0  0  0  0  0  0  0  0  0  0  0  0
    5.1158   -1.6508    0.0000 Cl  0  0  0  0  0  0  0  0  0  0  0  0
    4.4013   -0.4133    0.0000 C   0  0  0  0  0  0  0  0  0  0  0  0
    4.4013    0.4117    0.0000 C   0  0  0  0  0  0  0  0  0  0  0  0
    3.6868    0.8242    0.0000 O   0  0  0  0  0  0  0  0  0  0  0  0
    2.9724    0.4117    0.0000 C   0  0  0  0  0  0  0  0  0  0  0  0
    2.2579    0.8242    0.0000 C   0  0  0  0  0  0  0  0  0  0  0  0
    1.5434    0.4117    0.0000 C   0  0  0  0  0  0  0  0  0  0  0  0
    1.5434   -0.4133    0.0000 C   0  0  0  0  0  0  0  0  0  0  0  0
    2.2579   -0.8258    0.0000 C   0  0  0  0  0  0  0  0  0  0  0  0
    2.9724   -0.4133    0.0000 C   0  0  0  0  0  0  0  0  0  0  0  0
    3.6868   -0.8258    0.0000 O   0  0  0  0  0  0  0  0  0  0  0  0
  1  2  1  0  0  0  0
  3  2  2  0  0  0  0
  3  4  1  0  0  0  0
  5  3  1  0  0  0  0
  6  5  2  0  0  0  0
  6  7  1  0  0  0  0
  8  6  1  0  0  0  0
  8  9  2  0  0  0  0
  2  9  1  0  0  0  0
  9 10  1  0  0  0  0
 10 11  1  0  0  0  0
 12 11  2  0  0  0  0
 13 12  1  0  0  0  0
 14 13  2  0  0  0  0
 15 14  1  0  0  0  0
 16 15  2  0  0  0  0
 11 16  1  0  0  0  0
 16 17  1  0  0  0  0
 17  8  1  0  0  0  0
M  END
> <ChemID>
100495

> <CAS>
39227-58-2

> <Original_SMILES>
Clc1cc(Cl)c(Cl)c2Oc3ccccc3Oc12

> <preferred_name>
1,2,4-Trichlorodibenzo-1,4-dioxin

> <dsstox_substance_id>
DTXSID50192489

> <dsstox_compound_id>
DTXCID10114980

> <qc_level>
Public_Medium

> <Canonical_QSARr>
ClC1C=C(Cl)C2OC3=CC=CC=C3OC=2C=1Cl

> <InChI_Code_QSARr>
InChI=1S/C12H5Cl3O2/c13-6-5-7(14)11-12(10(6)15)17-9-4-2-1-3-8(9)16-11/h1-5H

> <InChI Key_QSARr>
HRVUKLBFRPWXPJ-UHFFFAOYSA-N

> <Salt_Solvent>


> <Salt_Solvent_ID>
0

> <MPID>
102096

> <LogKmHL>
0.43

> <Tr_1_Tst_0>
1

$$$$
100496
  Mrv171c012251910542D          

 19 20  0  0  0  0            999 V2000
    0.3761    1.7803    0.0000 C   0  0  0  0  0  0  0  0  0  0  0  0
    0.3761    2.6053    0.0000 C   0  0  0  0  0  0  0  0  0  0  0  0
   -0.3384    3.0178    0.0000 C   0  0  0  0  0  0  0  0  0  0  0  0
   -0.3384    3.8428    0.0000 Cl  0  0  0  0  0  0  0  0  0  0  0  0
   -1.0529    2.6053    0.0000 C   0  0  0  0  0  0  0  0  0  0  0  0
   -1.7673    3.0178    0.0000 Cl  0  0  0  0  0  0  0  0  0  0  0  0
   -1.0529    1.7803    0.0000 C   0  0  0  0  0  0  0  0  0  0  0  0
   -1.7673    1.3678    0.0000 Cl  0  0  0  0  0  0  0  0  0  0  0  0
   -0.3384    1.3678    0.0000 C   0  0  0  0  0  0  0  0  0  0  0  0
    1.0905    1.3678    0.0000 C   0  0  0  0  0  0  0  0  0  0  0  0
    1.0905    0.5428    0.0000 C   0  0  0  0  0  0  0  0  0  0  0  0
    1.8050    0.1303    0.0000 C   0  0  0  0  0  0  0  0  0  0  0  0
    1.8050   -0.6947    0.0000 Cl  0  0  0  0  0  0  0  0  0  0  0  0
    2.5195    0.5428    0.0000 C   0  0  0  0  0  0  0  0  0  0  0  0
    3.2339    0.1303    0.0000 Cl  0  0  0  0  0  0  0  0  0  0  0  0
    2.5195    1.3678    0.0000 C   0  0  0  0  0  0  0  0  0  0  0  0
    3.2339    1.7803    0.0000 Cl  0  0  0  0  0  0  0  0  0  0  0  0
    1.8050    1.7803    0.0000 C   0  0  0  0  0  0  0  0  0  0  0  0
    1.8050    2.6053    0.0000 Cl  0  0  0  0  0  0  0  0  0  0  0  0
  2  1  1  0  0  0  0
  3  2  2  0  0  0  0
  3  4  1  0  0  0  0
  5  3  1  0  0  0  0
  5  6  1  0  0  0  0
  7  5  2  0  0  0  0
  7  8  1  0  0  0  0
  9  7  1  0  0  0  0
  1  9  2  0  0  0  0
  1 10  1  0  0  0  0
 11 10  1  0  0  0  0
 12 11  2  0  0  0  0
 12 13  1  0  0  0  0
 14 12  1  0  0  0  0
 14 15  1  0  0  0  0
 16 14  2  0  0  0  0
 16 17  1  0  0  0  0
 18 16  1  0  0  0  0
 10 18  2  0  0  0  0
 18 19  1  0  0  0  0
M  END
> <ChemID>
100496

> <CAS>
39635-31-9

> <Original_SMILES>
Clc1c(cc(Cl)c(Cl)c1Cl)-c1cc(Cl)c(Cl)c(Cl)c1

> <preferred_name>
2,3,3',4,4',5,5'-Heptachlorobiphenyl

> <dsstox_substance_id>
DTXSID4074144

> <dsstox_compound_id>
DTXCID8039661

> <qc_level>
Public_High

> <Canonical_QSARr>
ClC1C=C(C=C(Cl)C=1Cl)C1C=C(Cl)C(Cl)=C(Cl)C=1Cl

> <InChI_Code_QSARr>
InChI=1S/C12H3Cl7/c13-6-1-4(2-7(14)10(6)17)5-3-8(15)11(18)12(19)9(5)16/h1-3H

> <InChI Key_QSARr>
XUAWBXBYHDRROL-UHFFFAOYSA-N

> <Salt_Solvent>


> <Salt_Solvent_ID>
0

> <MPID>
102097

> <LogKmHL>
2.32

> <Tr_1_Tst_0>
1

$$$$
100497
  Mrv171c012251910542D          

 20 21  0  0  0  0            999 V2000
    0.2858    1.5675    0.0000 C   0  0  0  0  0  0  0  0  0  0  0  0
   -0.4287    1.9800    0.0000 C   0  0  0  0  0  0  0  0  0  0  0  0
   -0.4287    2.8050    0.0000 Cl  0  0  0  0  0  0  0  0  0  0  0  0
   -1.1432    1.5675    0.0000 C   0  0  0  0  0  0  0  0  0  0  0  0
   -1.1432    0.7425    0.0000 C   0  0  0  0  0  0  0  0  0  0  0  0
   -1.8576    0.3300    0.0000 Cl  0  0  0  0  0  0  0  0  0  0  0  0
   -0.4287    0.3300    0.0000 C   0  0  0  0  0  0  0  0  0  0  0  0
   -0.4287   -0.4950    0.0000 Cl  0  0  0  0  0  0  0  0  0  0  0  0
    0.2858    0.7425    0.0000 C   0  0  0  0  0  0  0  0  0  0  0  0
    1.0003    0.3300    0.0000 Cl  0  0  0  0  0  0  0  0  0  0  0  0
    1.0003    1.9800    0.0000 C   0  0  0  0  0  0  0  0  0  0  0  0
    1.7147    1.5675    0.0000 C   0  0  0  0  0  0  0  0  0  0  0  0
    1.7147    0.7425    0.0000 Cl  0  0  0  0  0  0  0  0  0  0  0  0
    2.4292    1.9800    0.0000 C   0  0  0  0  0  0  0  0  0  0  0  0
    3.1437    1.5675    0.0000 Cl  0  0  0  0  0  0  0  0  0  0  0  0
    2.4292    2.8050    0.0000 C   0  0  0  0  0  0  0  0  0  0  0  0
    1.7147    3.2175    0.0000 C   0  0  0  0  0  0  0  0  0  0  0  0
    1.7147    4.0425    0.0000 Cl  0  0  0  0  0  0  0  0  0  0  0  0
    1.0003    2.8050    0.0000 C   0  0  0  0  0  0  0  0  0  0  0  0
    0.2858    3.2175    0.0000 Cl  0  0  0  0  0  0  0  0  0  0  0  0
  2  1  1  0  0  0  0
  2  3  1  0  0  0  0
  4  2  2  0  0  0  0
  5  4  1  0  0  0  0
  5  6  1  0  0  0  0
  7  5  2  0  0  0  0
  7  8  1  0  0  0  0
  9  7  1  0  0  0  0
  1  9  2  0  0  0  0
  9 10  1  0  0  0  0
  1 11  1  0  0  0  0
 12 11  1  0  0  0  0
 12 13  1  0  0  0  0
 14 12  2  0  0  0  0
 14 15  1  0  0  0  0
 16 14  1  0  0  0  0
 17 16  2  0  0  0  0
 17 18  1  0  0  0  0
 19 17  1  0  0  0  0
 11 19  2  0  0  0  0
 19 20  1  0  0  0  0
M  END
> <ChemID>
100497

> <CAS>
40186-71-8

> <Original_SMILES>
Clc1cc(Cl)c(Cl)c(Cl)c1-c1c(Cl)c(Cl)cc(Cl)c1Cl

> <preferred_name>
2,2',3,3',4,5',6,6'-Octachlorobiphenyl

> <dsstox_substance_id>
DTXSID4074148

> <dsstox_compound_id>
DTXCID0039728

> <qc_level>
Public_High

> <Canonical_QSARr>
ClC1C(C2=C(Cl)C(Cl)=C(Cl)C=C2Cl)=C(Cl)C(Cl)=CC=1Cl

> <InChI_Code_QSARr>
InChI=1S/C12H2Cl8/c13-3-1-6(16)11(19)12(20)7(3)8-9(17)4(14)2-5(15)10(8)18/h1-2H

> <InChI Key_QSARr>
LJQOBQLZTUSEJA-UHFFFAOYSA-N

> <Salt_Solvent>


> <Salt_Solvent_ID>
0

> <MPID>
102098

> <LogKmHL>
2.46

> <Tr_1_Tst_0>
0

$$$$
100498
  Mrv171c012251910542D          

 21 22  0  0  0  0            999 V2000
    3.2789   -0.6852    0.0000 C   0  0  0  0  0  0  0  0  0  0  0  0
    3.9934   -0.2727    0.0000 Cl  0  0  0  0  0  0  0  0  0  0  0  0
    2.5645   -0.2727    0.0000 C   0  0  0  0  0  0  0  0  0  0  0  0
    2.5645    0.5523    0.0000 Cl  0  0  0  0  0  0  0  0  0  0  0  0
    1.8500   -0.6852    0.0000 C   0  0  0  0  0  0  0  0  0  0  0  0
    1.1355   -0.2727    0.0000 Cl  0  0  0  0  0  0  0  0  0  0  0  0
    1.8500   -1.5102    0.0000 C   0  0  0  0  0  0  0  0  0  0  0  0
    1.1355   -1.9227    0.0000 Cl  0  0  0  0  0  0  0  0  0  0  0  0
    2.5645   -1.9227    0.0000 C   0  0  0  0  0  0  0  0  0  0  0  0
    2.5645   -2.7477    0.0000 C   0  0  0  0  0  0  0  0  0  0  0  0
    1.8500   -3.1602    0.0000 C   0  0  0  0  0  0  0  0  0  0  0  0
    1.1355   -2.7477    0.0000 Cl  0  0  0  0  0  0  0  0  0  0  0  0
    1.8500   -3.9852    0.0000 C   0  0  0  0  0  0  0  0  0  0  0  0
    1.1355   -4.3977    0.0000 Cl  0  0  0  0  0  0  0  0  0  0  0  0
    2.5645   -4.3977    0.0000 C   0  0  0  0  0  0  0  0  0  0  0  0
    2.5645   -5.2227    0.0000 Cl  0  0  0  0  0  0  0  0  0  0  0  0
    3.2789   -3.9852    0.0000 C   0  0  0  0  0  0  0  0  0  0  0  0
    3.9934   -4.3977    0.0000 Cl  0  0  0  0  0  0  0  0  0  0  0  0
    3.2789   -3.1602    0.0000 C   0  0  0  0  0  0  0  0  0  0  0  0
    3.2789   -1.5102    0.0000 C   0  0  0  0  0  0  0  0  0  0  0  0
    3.9934   -1.9227    0.0000 Cl  0  0  0  0  0  0  0  0  0  0  0  0
  1  2  1  0  0  0  0
  3  1  1  0  0  0  0
  3  4  1  0  0  0  0
  5  3  2  0  0  0  0
  5  6  1  0  0  0  0
  7  5  1  0  0  0  0
  7  8  1  0  0  0  0
  9  7  2  0  0  0  0
  9 10  1  0  0  0  0
 11 10  1  0  0  0  0
 11 12  1  0  0  0  0
 13 11  2  0  0  0  0
 13 14  1  0  0  0  0
 15 13  1  0  0  0  0
 15 16  1  0  0  0  0
 17 15  2  0  0  0  0
 17 18  1  0  0  0  0
 19 17  1  0  0  0  0
 10 19  2  0  0  0  0
 20  9  1  0  0  0  0
  1 20  2  0  0  0  0
 20 21  1  0  0  0  0
M  END
> <ChemID>
100498

> <CAS>
40186-72-9

> <Original_SMILES>
Clc1cc(-c2c(Cl)c(Cl)c(Cl)c(Cl)c2Cl)c(Cl)c(Cl)c1Cl

> <preferred_name>


> <dsstox_substance_id>
DTXSID50865989

> <dsstox_compound_id>
DTXCID70814333

> <qc_level>


> <Canonical_QSARr>
ClC1=C(C2=CC(Cl)=C(Cl)C(Cl)=C2Cl)C(Cl)=C(Cl)C(Cl)=C1Cl

> <InChI_Code_QSARr>
InChI=1S/C12HCl9/c13-3-1-2(5(14)9(18)6(3)15)4-7(16)10(19)12(21)11(20)8(4)17/h1H

> <InChI Key_QSARr>
JFIMDKGRGPNPRQ-UHFFFAOYSA-N

> <Salt_Solvent>


> <Salt_Solvent_ID>
0

> <MPID>
102099

> <LogKmHL>
2.68

> <Tr_1_Tst_0>
1

$$$$
100499
  Mrv171c012251910542D          

 19 21  0  0  0  0            999 V2000
    2.1373   -1.8857    0.0000 C   0  0  0  0  0  0  0  0  0  0  0  0
    2.8518   -2.2982    0.0000 O   0  0  0  0  0  0  0  0  0  0  0  0
    3.5663   -1.8857    0.0000 C   0  0  0  0  0  0  0  0  0  0  0  0
    4.2807   -2.2982    0.0000 C   0  0  0  0  0  0  0  0  0  0  0  0
    4.9952   -1.8857    0.0000 C   0  0  0  0  0  0  0  0  0  0  0  0
    4.9952   -1.0607    0.0000 C   0  0  0  0  0  0  0  0  0  0  0  0
    4.2807   -0.6482    0.0000 C   0  0  0  0  0  0  0  0  0  0  0  0
    3.5663   -1.0607    0.0000 C   0  0  0  0  0  0  0  0  0  0  0  0
    2.8518   -0.6482    0.0000 O   0  0  0  0  0  0  0  0  0  0  0  0
    2.1373   -1.0607    0.0000 C   0  0  0  0  0  0  0  0  0  0  0  0
    1.4229   -0.6482    0.0000 C   0  0  0  0  0  0  0  0  0  0  0  0
    0.7084   -1.0607    0.0000 C   0  0  0  0  0  0  0  0  0  0  0  0
   -0.0061   -0.6482    0.0000 Cl  0  0  0  0  0  0  0  0  0  0  0  0
    0.7084   -1.8857    0.0000 C   0  0  0  0  0  0  0  0  0  0  0  0
   -0.0061   -2.2982    0.0000 Cl  0  0  0  0  0  0  0  0  0  0  0  0
    1.4229   -2.2982    0.0000 C   0  0  0  0  0  0  0  0  0  0  0  0
    5.7097   -0.6482    0.0000 Cl  0  0  0  0  0  0  0  0  0  0  0  0
    5.7097   -2.2982    0.0000 Cl  0  0  0  0  0  0  0  0  0  0  0  0
    4.2807   -3.1232    0.0000 Cl  0  0  0  0  0  0  0  0  0  0  0  0
  2  1  1  0  0  0  0
  3  2  1  0  0  0  0
  3  4  1  0  0  0  0
  4  5  2  0  0  0  0
  5  6  1  0  0  0  0
  6  7  2  0  0  0  0
  7  8  1  0  0  0  0
  8  3  2  0  0  0  0
  9  8  1  0  0  0  0
 10  9  1  0  0  0  0
 10  1  1  0  0  0  0
 11 10  2  0  0  0  0
 12 11  1  0  0  0  0
 12 13  1  0  0  0  0
 14 12  2  0  0  0  0
 14 15  1  0  0  0  0
 16 14  1  0  0  0  0
  1 16  2  0  0  0  0
  6 17  1  0  0  0  0
  5 18  1  0  0  0  0
  4 19  1  0  0  0  0
M  END
> <ChemID>
100499

> <CAS>
40321-76-4

> <Original_SMILES>
Clc1c(Cl)c2Oc3cc(Cl)c(Cl)cc3Oc2cc1Cl

> <preferred_name>
1,2,3,7,8-Pentachlorodibenzo-p-dioxin

> <dsstox_substance_id>
DTXSID7052078

> <dsstox_compound_id>
DTXCID2030645

> <qc_level>
DSSTox_Low

> <Canonical_QSARr>
ClC1C=C2OC3C=C(Cl)C(Cl)=C(Cl)C=3OC2=CC=1Cl

> <InChI_Code_QSARr>
InChI=1S/C12H3Cl5O2/c13-4-1-7-8(2-5(4)14)19-12-9(18-7)3-6(15)10(16)11(12)17/h1-3H

> <InChI Key_QSARr>
FSPZPQQWDODWAU-UHFFFAOYSA-N

> <Salt_Solvent>


> <Salt_Solvent_ID>
0

> <MPID>
102100

> <LogKmHL>
1.56

> <Tr_1_Tst_0>
1

$$$$
100501
  Mrv171c012251910542D          

 20 21  0  0  0  0            999 V2000
   -1.2155   -2.5183    0.0000 C   0  0  0  0  0  0  0  0  0  0  0  0
   -0.5010   -2.9308    0.0000 C   0  0  0  0  0  0  0  0  0  0  0  0
    0.2134   -2.5183    0.0000 C   0  0  0  0  0  0  0  0  0  0  0  0
    0.9279   -2.9308    0.0000 C   0  0  0  0  0  0  0  0  0  0  0  0
    1.6424   -2.5183    0.0000 C   0  0  0  0  0  0  0  0  0  0  0  0
    2.3569   -2.9308    0.0000 C   0  0  0  0  0  0  0  0  0  0  0  0
    3.0713   -2.5183    0.0000 C   0  0  0  0  0  0  0  0  0  0  0  0
    3.7858   -2.9308    0.0000 C   0  0  0  0  0  0  0  0  0  0  0  0
    4.5003   -2.5183    0.0000 C   0  0  0  0  0  0  0  0  0  0  0  0
    4.5003   -1.6933    0.0000 C   0  0  0  0  0  0  0  0  0  0  0  0
    5.2147   -1.2808    0.0000 C   0  0  0  0  0  0  0  0  0  0  0  0
    5.9292   -1.6933    0.0000 C   0  0  0  0  0  0  0  0  0  0  0  0
    6.6437   -1.2808    0.0000 C   0  0  0  0  0  0  0  0  0  0  0  0
    6.6437   -0.4558    0.0000 C   0  0  0  0  0  0  0  0  0  0  0  0
    7.3582   -0.0433    0.0000 C   0  0  0  0  0  0  0  0  0  0  0  0
    8.0726    0.3692    0.0000 N   0  0  0  0  0  0  0  0  0  0  0  0
    5.9292   -0.0433    0.0000 C   0  0  0  0  0  0  0  0  0  0  0  0
    5.2147   -0.4558    0.0000 C   0  0  0  0  0  0  0  0  0  0  0  0
    3.7858   -1.2808    0.0000 C   0  0  0  0  0  0  0  0  0  0  0  0
    3.0713   -1.6933    0.0000 C   0  0  0  0  0  0  0  0  0  0  0  0
  1  2  1  0  0  0  0
  2  3  1  0  0  0  0
  3  4  1  0  0  0  0
  4  5  1  0  0  0  0
  5  6  1  0  0  0  0
  6  7  1  0  0  0  0
  8  7  1  0  0  0  0
  9  8  2  0  0  0  0
 10  9  1  0  0  0  0
 10 11  1  0  0  0  0
 12 11  1  0  0  0  0
 13 12  2  0  0  0  0
 14 13  1  0  0  0  0
 14 15  1  0  0  0  0
 15 16  3  0  0  0  0
 17 14  2  0  0  0  0
 18 17  1  0  0  0  0
 11 18  2  0  0  0  0
 19 10  2  0  0  0  0
 20 19  1  0  0  0  0
  7 20  2  0  0  0  0
M  END
> <ChemID>
100501

> <CAS>
41122-70-7

> <Original_SMILES>
CCCCCCc1ccc(cc1)-c1ccc(cc1)C#N

> <preferred_name>
4-Hexyl-4'-cyanobiphenyl

> <dsstox_substance_id>
DTXSID4025404

> <dsstox_compound_id>
DTXCID905404

> <qc_level>
DSSTox_Low

> <Canonical_QSARr>
CCCCCCC1C=CC(=CC=1)C1C=CC(=CC=1)C#N

> <InChI_Code_QSARr>
InChI=1S/C19H21N/c1-2-3-4-5-6-16-7-11-18(12-8-16)19-13-9-17(15-20)10-14-19/h7-14H,2-6H2,1H3

> <InChI Key_QSARr>
VADSDVGLFDVIMG-UHFFFAOYSA-N

> <Salt_Solvent>


> <Salt_Solvent_ID>
0

> <MPID>
102101

> <LogKmHL>
0.85

> <Tr_1_Tst_0>
1

$$$$
100502
  Mrv171c012251910542D          

 16 17  0  0  0  0            999 V2000
    3.6565   -3.7646    0.0000 Br  0  0  0  0  0  0  0  0  0  0  0  0
    3.6565   -2.9396    0.0000 C   0  0  0  0  0  0  0  0  0  0  0  0
    4.3709   -2.5271    0.0000 C   0  0  0  0  0  0  0  0  0  0  0  0
    4.3709   -1.7021    0.0000 C   0  0  0  0  0  0  0  0  0  0  0  0
    3.6565   -1.2896    0.0000 C   0  0  0  0  0  0  0  0  0  0  0  0
    3.6565   -0.4646    0.0000 O   0  0  0  0  0  0  0  0  0  0  0  0
    2.9420   -0.0521    0.0000 C   0  0  0  0  0  0  0  0  0  0  0  0
    2.9420    0.7729    0.0000 C   0  0  0  0  0  0  0  0  0  0  0  0
    2.2275    1.1854    0.0000 C   0  0  0  0  0  0  0  0  0  0  0  0
    1.5130    0.7729    0.0000 C   0  0  0  0  0  0  0  0  0  0  0  0
    0.7986    1.1854    0.0000 Br  0  0  0  0  0  0  0  0  0  0  0  0
    1.5130   -0.0521    0.0000 C   0  0  0  0  0  0  0  0  0  0  0  0
    2.2275   -0.4646    0.0000 C   0  0  0  0  0  0  0  0  0  0  0  0
    2.2275   -1.2896    0.0000 Br  0  0  0  0  0  0  0  0  0  0  0  0
    2.9420   -1.7021    0.0000 C   0  0  0  0  0  0  0  0  0  0  0  0
    2.9420   -2.5271    0.0000 C   0  0  0  0  0  0  0  0  0  0  0  0
  1  2  1  0  0  0  0
  3  2  2  0  0  0  0
  4  3  1  0  0  0  0
  5  4  2  0  0  0  0
  5  6  1  0  0  0  0
  6  7  1  0  0  0  0
  8  7  1  0  0  0  0
  9  8  2  0  0  0  0
 10  9  1  0  0  0  0
 10 11  1  0  0  0  0
 12 10  2  0  0  0  0
 13 12  1  0  0  0  0
  7 13  2  0  0  0  0
 13 14  1  0  0  0  0
 15  5  1  0  0  0  0
 16 15  2  0  0  0  0
  2 16  1  0  0  0  0
M  END
> <ChemID>
100502

> <CAS>
41318-75-6

> <Original_SMILES>
Brc1cc(Br)ccc1Oc1ccc(Br)cc1

> <preferred_name>
2,4,4'-Tribromodiphenyl ether (BDE 28)

> <dsstox_substance_id>
DTXSID4052710

> <dsstox_compound_id>
DTXCID4031304

> <qc_level>
DSSTox_High

> <Canonical_QSARr>
BrC1=CC(Br)=C(C=C1)OC1C=CC(Br)=CC=1

> <InChI_Code_QSARr>
InChI=1S/C12H7Br3O/c13-8-1-4-10(5-2-8)16-12-6-3-9(14)7-11(12)15/h1-7H

> <InChI Key_QSARr>
UPNBETHEXPIWQX-UHFFFAOYSA-N

> <Salt_Solvent>


> <Salt_Solvent_ID>
0

> <MPID>
102102

> <LogKmHL>
1.25

> <Tr_1_Tst_0>
0

$$$$
100503
  Mrv171c012251910542D          

 16 17  0  0  0  0            999 V2000
    2.5069   -1.1993    0.0000 C   0  0  0  0  0  0  0  0  0  0  0  0
    3.2214   -1.6118    0.0000 C   0  0  0  0  0  0  0  0  0  0  0  0
    3.9359   -1.1993    0.0000 C   0  0  0  0  0  0  0  0  0  0  0  0
    3.9359   -0.3743    0.0000 C   0  0  0  0  0  0  0  0  0  0  0  0
    3.2214    0.0382    0.0000 C   0  0  0  0  0  0  0  0  0  0  0  0
    3.2214    0.8632    0.0000 Cl  0  0  0  0  0  0  0  0  0  0  0  0
    2.5069   -0.3743    0.0000 C   0  0  0  0  0  0  0  0  0  0  0  0
    1.7924    0.0382    0.0000 Cl  0  0  0  0  0  0  0  0  0  0  0  0
    1.7924   -1.6118    0.0000 C   0  0  0  0  0  0  0  0  0  0  0  0
    1.0780   -1.1993    0.0000 C   0  0  0  0  0  0  0  0  0  0  0  0
    0.3635   -1.6118    0.0000 C   0  0  0  0  0  0  0  0  0  0  0  0
   -0.3510   -1.1993    0.0000 Cl  0  0  0  0  0  0  0  0  0  0  0  0
    0.3635   -2.4368    0.0000 C   0  0  0  0  0  0  0  0  0  0  0  0
    1.0780   -2.8493    0.0000 C   0  0  0  0  0  0  0  0  0  0  0  0
    1.7924   -2.4368    0.0000 C   0  0  0  0  0  0  0  0  0  0  0  0
    2.5069   -2.8493    0.0000 Cl  0  0  0  0  0  0  0  0  0  0  0  0
  2  1  1  0  0  0  0
  3  2  2  0  0  0  0
  4  3  1  0  0  0  0
  5  4  2  0  0  0  0
  5  6  1  0  0  0  0
  7  5  1  0  0  0  0
  1  7  2  0  0  0  0
  7  8  1  0  0  0  0
  1  9  1  0  0  0  0
 10  9  1  0  0  0  0
 11 10  2  0  0  0  0
 11 12  1  0  0  0  0
 13 11  1  0  0  0  0
 14 13  2  0  0  0  0
 15 14  1  0  0  0  0
  9 15  2  0  0  0  0
 15 16  1  0  0  0  0
M  END
> <ChemID>
100503

> <CAS>
41464-39-5

> <Original_SMILES>
Clc1cc(-c2cccc(Cl)c2Cl)c(Cl)cc1

> <preferred_name>
2,2',3,5'-tetrachlorobiphenyl

> <dsstox_substance_id>
DTXSID8038302

> <dsstox_compound_id>
DTXCID6018302

> <qc_level>
DSSTox_Low

> <Canonical_QSARr>
ClC1C=CC(Cl)=CC=1C1C=CC=C(Cl)C=1Cl

> <InChI_Code_QSARr>
InChI=1S/C12H6Cl4/c13-7-4-5-10(14)9(6-7)8-2-1-3-11(15)12(8)16/h1-6H

> <InChI Key_QSARr>
ALDJIKXAHSDLLB-UHFFFAOYSA-N

> <Salt_Solvent>


> <Salt_Solvent_ID>
0

> <MPID>
102103

> <LogKmHL>
2.33

> <Tr_1_Tst_0>
1

$$$$
100504
  Mrv171c012251910542D          

 16 17  0  0  0  0            999 V2000
    1.1610    1.7016    0.0000 C   0  0  0  0  0  0  0  0  0  0  0  0
    1.8755    1.2891    0.0000 C   0  0  0  0  0  0  0  0  0  0  0  0
    2.5900    1.7016    0.0000 C   0  0  0  0  0  0  0  0  0  0  0  0
    2.5900    2.5266    0.0000 C   0  0  0  0  0  0  0  0  0  0  0  0
    1.8755    2.9391    0.0000 C   0  0  0  0  0  0  0  0  0  0  0  0
    1.8755    3.7641    0.0000 Cl  0  0  0  0  0  0  0  0  0  0  0  0
    1.1610    2.5266    0.0000 C   0  0  0  0  0  0  0  0  0  0  0  0
    0.4465    2.9391    0.0000 Cl  0  0  0  0  0  0  0  0  0  0  0  0
    0.4465    1.2891    0.0000 C   0  0  0  0  0  0  0  0  0  0  0  0
   -0.2679    1.7016    0.0000 C   0  0  0  0  0  0  0  0  0  0  0  0
   -0.9824    1.2891    0.0000 C   0  0  0  0  0  0  0  0  0  0  0  0
   -0.9824    0.4641    0.0000 C   0  0  0  0  0  0  0  0  0  0  0  0
   -1.6969    0.0516    0.0000 Cl  0  0  0  0  0  0  0  0  0  0  0  0
   -0.2679    0.0516    0.0000 C   0  0  0  0  0  0  0  0  0  0  0  0
   -0.2679   -0.7734    0.0000 Cl  0  0  0  0  0  0  0  0  0  0  0  0
    0.4465    0.4641    0.0000 C   0  0  0  0  0  0  0  0  0  0  0  0
  2  1  1  0  0  0  0
  3  2  2  0  0  0  0
  4  3  1  0  0  0  0
  5  4  2  0  0  0  0
  5  6  1  0  0  0  0
  7  5  1  0  0  0  0
  1  7  2  0  0  0  0
  7  8  1  0  0  0  0
  1  9  1  0  0  0  0
 10  9  1  0  0  0  0
 11 10  2  0  0  0  0
 12 11  1  0  0  0  0
 12 13  1  0  0  0  0
 14 12  2  0  0  0  0
 14 15  1  0  0  0  0
 16 14  1  0  0  0  0
  9 16  2  0  0  0  0
M  END
> <ChemID>
100504

> <CAS>
41464-43-1

> <Original_SMILES>
Clc1cc(ccc1Cl)-c1cccc(Cl)c1Cl

> <preferred_name>
2,3,3',4'-Tetrachlorobiphenyl

> <dsstox_substance_id>
DTXSID3074153

> <dsstox_compound_id>
DTXCID1039925

> <qc_level>
Public_High

> <Canonical_QSARr>
ClC1C=C(C=CC=1Cl)C1C=CC=C(Cl)C=1Cl

> <InChI_Code_QSARr>
InChI=1S/C12H6Cl4/c13-9-5-4-7(6-11(9)15)8-2-1-3-10(14)12(8)16/h1-6H

> <InChI Key_QSARr>
UNCGJRRROFURDV-UHFFFAOYSA-N

> <Salt_Solvent>


> <Salt_Solvent_ID>
0

> <MPID>
102104

> <LogKmHL>
2.47

> <Tr_1_Tst_0>
1

$$$$
100505
  Mrv171c012251910542D          

 16 17  0  0  0  0            999 V2000
    2.3066   -1.2432    0.0000 C   0  0  0  0  0  0  0  0  0  0  0  0
    3.0210   -1.6557    0.0000 C   0  0  0  0  0  0  0  0  0  0  0  0
    3.7355   -1.2432    0.0000 C   0  0  0  0  0  0  0  0  0  0  0  0
    3.7355   -0.4182    0.0000 C   0  0  0  0  0  0  0  0  0  0  0  0
    3.0210   -0.0057    0.0000 C   0  0  0  0  0  0  0  0  0  0  0  0
    3.0210    0.8193    0.0000 Cl  0  0  0  0  0  0  0  0  0  0  0  0
    2.3066   -0.4182    0.0000 C   0  0  0  0  0  0  0  0  0  0  0  0
    1.5921   -0.0057    0.0000 Cl  0  0  0  0  0  0  0  0  0  0  0  0
    1.5921   -1.6557    0.0000 C   0  0  0  0  0  0  0  0  0  0  0  0
    0.8776   -1.2432    0.0000 C   0  0  0  0  0  0  0  0  0  0  0  0
    0.8776   -0.4182    0.0000 Cl  0  0  0  0  0  0  0  0  0  0  0  0
    0.1632   -1.6557    0.0000 C   0  0  0  0  0  0  0  0  0  0  0  0
    0.1632   -2.4807    0.0000 C   0  0  0  0  0  0  0  0  0  0  0  0
    0.8776   -2.8932    0.0000 C   0  0  0  0  0  0  0  0  0  0  0  0
    1.5921   -2.4807    0.0000 C   0  0  0  0  0  0  0  0  0  0  0  0
    2.3066   -2.8932    0.0000 Cl  0  0  0  0  0  0  0  0  0  0  0  0
  2  1  1  0  0  0  0
  3  2  2  0  0  0  0
  4  3  1  0  0  0  0
  5  4  2  0  0  0  0
  5  6  1  0  0  0  0
  7  5  1  0  0  0  0
  1  7  2  0  0  0  0
  7  8  1  0  0  0  0
  1  9  1  0  0  0  0
 10  9  1  0  0  0  0
 10 11  1  0  0  0  0
 12 10  2  0  0  0  0
 13 12  1  0  0  0  0
 14 13  2  0  0  0  0
 15 14  1  0  0  0  0
  9 15  2  0  0  0  0
 15 16  1  0  0  0  0
M  END
> <ChemID>
100505

> <CAS>
41464-47-5

> <Original_SMILES>
Clc1c(cccc1Cl)-c1c(Cl)cccc1Cl

> <preferred_name>


> <dsstox_substance_id>
DTXSID40866046

> <dsstox_compound_id>
DTXCID00814386

> <qc_level>


> <Canonical_QSARr>
ClC1C=CC=C(Cl)C=1C1C=CC=C(Cl)C=1Cl

> <InChI_Code_QSARr>
InChI=1S/C12H6Cl4/c13-8-4-2-5-9(14)11(8)7-3-1-6-10(15)12(7)16/h1-6H

> <InChI Key_QSARr>
CUGLICQCTXWQNF-UHFFFAOYSA-N

> <Salt_Solvent>


> <Salt_Solvent_ID>
0

> <MPID>
102105

> <LogKmHL>
2.18

> <Tr_1_Tst_0>
1

$$$$
100506
  Mrv171c012251910542D          

 17 18  0  0  0  0            999 V2000
    1.1347    1.6257    0.0000 C   0  0  0  0  0  0  0  0  0  0  0  0
    1.8492    1.2132    0.0000 C   0  0  0  0  0  0  0  0  0  0  0  0
    2.5637    1.6257    0.0000 C   0  0  0  0  0  0  0  0  0  0  0  0
    2.5637    2.4507    0.0000 C   0  0  0  0  0  0  0  0  0  0  0  0
    1.8492    2.8632    0.0000 C   0  0  0  0  0  0  0  0  0  0  0  0
    1.8492    3.6882    0.0000 Cl  0  0  0  0  0  0  0  0  0  0  0  0
    1.1347    2.4507    0.0000 C   0  0  0  0  0  0  0  0  0  0  0  0
    0.4203    2.8632    0.0000 Cl  0  0  0  0  0  0  0  0  0  0  0  0
    0.4203    1.2132    0.0000 C   0  0  0  0  0  0  0  0  0  0  0  0
   -0.2942    1.6257    0.0000 C   0  0  0  0  0  0  0  0  0  0  0  0
   -1.0087    1.2132    0.0000 C   0  0  0  0  0  0  0  0  0  0  0  0
   -1.7231    1.6257    0.0000 Cl  0  0  0  0  0  0  0  0  0  0  0  0
   -1.0087    0.3882    0.0000 C   0  0  0  0  0  0  0  0  0  0  0  0
   -1.7231   -0.0243    0.0000 Cl  0  0  0  0  0  0  0  0  0  0  0  0
   -0.2942   -0.0243    0.0000 C   0  0  0  0  0  0  0  0  0  0  0  0
    0.4203    0.3882    0.0000 C   0  0  0  0  0  0  0  0  0  0  0  0
    1.1347   -0.0243    0.0000 Cl  0  0  0  0  0  0  0  0  0  0  0  0
  2  1  1  0  0  0  0
  3  2  2  0  0  0  0
  4  3  1  0  0  0  0
  5  4  2  0  0  0  0
  5  6  1  0  0  0  0
  7  5  1  0  0  0  0
  1  7  2  0  0  0  0
  7  8  1  0  0  0  0
  1  9  1  0  0  0  0
 10  9  1  0  0  0  0
 11 10  2  0  0  0  0
 11 12  1  0  0  0  0
 13 11  1  0  0  0  0
 13 14  1  0  0  0  0
 15 13  2  0  0  0  0
 16 15  1  0  0  0  0
  9 16  2  0  0  0  0
 16 17  1  0  0  0  0
M  END
> <ChemID>
100506

> <CAS>
41464-51-1

> <Original_SMILES>
Clc1cc(Cl)c(Cl)cc1-c1cccc(Cl)c1Cl

> <preferred_name>
2,2',3,4',5'-Pentachlorobiphenyl

> <dsstox_substance_id>
DTXSID2073510

> <dsstox_compound_id>
DTXCID1039929

> <qc_level>
Public_High

> <Canonical_QSARr>
ClC1C=C(Cl)C(Cl)=CC=1C1C=CC=C(Cl)C=1Cl

> <InChI_Code_QSARr>
InChI=1S/C12H5Cl5/c13-8-3-1-2-6(12(8)17)7-4-10(15)11(16)5-9(7)14/h1-5H

> <InChI Key_QSARr>
JTUSORDQZVOEAZ-UHFFFAOYSA-N

> <Salt_Solvent>


> <Salt_Solvent_ID>
0

> <MPID>
102106

> <LogKmHL>
2.55

> <Tr_1_Tst_0>
0

$$$$
100509
  Mrv171c012251910542D          

 17 19  0  0  0  0            999 V2000
    2.1642   -1.7855    0.0000 C   0  0  0  0  0  0  0  0  0  0  0  0
    2.8316   -2.2704    0.0000 O   0  0  0  0  0  0  0  0  0  0  0  0
    3.4991   -1.7855    0.0000 C   0  0  0  0  0  0  0  0  0  0  0  0
    4.3060   -1.9570    0.0000 C   0  0  0  0  0  0  0  0  0  0  0  0
    4.8581   -1.3439    0.0000 C   0  0  0  0  0  0  0  0  0  0  0  0
    4.6031   -0.5593    0.0000 C   0  0  0  0  0  0  0  0  0  0  0  0
    3.7962   -0.3877    0.0000 C   0  0  0  0  0  0  0  0  0  0  0  0
    3.2441   -1.0008    0.0000 C   0  0  0  0  0  0  0  0  0  0  0  0
    2.4191   -1.0008    0.0000 C   0  0  0  0  0  0  0  0  0  0  0  0
    1.8671   -0.3877    0.0000 C   0  0  0  0  0  0  0  0  0  0  0  0
    1.0601   -0.5593    0.0000 C   0  0  0  0  0  0  0  0  0  0  0  0
    0.5081    0.0538    0.0000 Cl  0  0  0  0  0  0  0  0  0  0  0  0
    0.8052   -1.3439    0.0000 C   0  0  0  0  0  0  0  0  0  0  0  0
   -0.0018   -1.5154    0.0000 Cl  0  0  0  0  0  0  0  0  0  0  0  0
    1.3572   -1.9570    0.0000 C   0  0  0  0  0  0  0  0  0  0  0  0
    5.1552    0.0538    0.0000 Cl  0  0  0  0  0  0  0  0  0  0  0  0
    5.6650   -1.5154    0.0000 Cl  0  0  0  0  0  0  0  0  0  0  0  0
  2  1  1  0  0  0  0
  3  2  1  0  0  0  0
  3  4  1  0  0  0  0
  4  5  2  0  0  0  0
  5  6  1  0  0  0  0
  6  7  2  0  0  0  0
  7  8  1  0  0  0  0
  8  3  2  0  0  0  0
  9  8  1  0  0  0  0
  9  1  1  0  0  0  0
 10  9  2  0  0  0  0
 11 10  1  0  0  0  0
 11 12  1  0  0  0  0
 13 11  2  0  0  0  0
 13 14  1  0  0  0  0
 15 13  1  0  0  0  0
  1 15  2  0  0  0  0
  6 16  1  0  0  0  0
  5 17  1  0  0  0  0
M  END
> <ChemID>
100509

> <CAS>
51207-31-9

> <Original_SMILES>
Clc1cc2c(cc1Cl)oc1cc(Cl)c(Cl)cc21

> <preferred_name>
2,3,7,8-Tetrachlorodibenzofuran

> <dsstox_substance_id>
DTXSID3052147

> <dsstox_compound_id>
DTXCID8030716

> <qc_level>
DSSTox_High

> <Canonical_QSARr>
ClC1=CC2OC3=CC(Cl)=C(Cl)C=C3C=2C=C1Cl

> <InChI_Code_QSARr>
InChI=1S/C12H4Cl4O/c13-7-1-5-6-2-8(14)10(16)4-12(6)17-11(5)3-9(7)15/h1-4H

> <InChI Key_QSARr>
KSMVNVHUTQZITP-UHFFFAOYSA-N

> <Salt_Solvent>


> <Salt_Solvent_ID>
0

> <MPID>
102107

> <LogKmHL>
0.56

> <Tr_1_Tst_0>
1

$$$$
100510
  Mrv171c012251910542D          

 30 32  0  0  0  0            999 V2000
    4.1197   -1.3492    0.0000 O   0  0  0  0  0  0  0  0  0  0  0  0
    4.5322   -2.0636    0.0000 C   0  0  0  0  0  0  0  0  0  0  0  0
    4.1197   -2.7781    0.0000 O   0  0  0  0  0  0  0  0  0  0  0  0
    3.2947   -2.7781    0.0000 C   0  0  0  0  0  0  0  0  0  0  0  0
    2.8822   -2.0636    0.0000 C   0  0  0  0  0  0  0  0  0  0  0  0
    2.4697   -1.3492    0.0000 N   0  0  0  0  0  0  0  0  0  0  0  0
    2.8822   -3.4926    0.0000 C   0  0  0  0  0  0  0  0  0  0  0  0
    2.0572   -3.4926    0.0000 C   0  0  0  0  0  0  0  0  0  0  0  0
    1.6447   -4.2070    0.0000 C   0  0  0  0  0  0  0  0  0  0  0  0
    0.8197   -4.2070    0.0000 O   0  0  0  0  0  0  0  0  0  0  0  0
    0.4072   -4.9215    0.0000 C   0  0  0  0  0  0  0  0  0  0  0  0
   -0.4178   -4.9215    0.0000 C   0  0  0  0  0  0  0  0  0  0  0  0
   -0.8303   -5.6360    0.0000 C   0  0  0  0  0  0  0  0  0  0  0  0
   -0.4178   -6.3505    0.0000 C   0  0  0  0  0  0  0  0  0  0  0  0
    0.4072   -6.3505    0.0000 C   0  0  0  0  0  0  0  0  0  0  0  0
    0.8197   -5.6360    0.0000 C   0  0  0  0  0  0  0  0  0  0  0  0
    2.0572   -4.9215    0.0000 C   0  0  0  0  0  0  0  0  0  0  0  0
    2.8822   -4.9215    0.0000 C   0  0  0  0  0  0  0  0  0  0  0  0
    3.2947   -4.2070    0.0000 C   0  0  0  0  0  0  0  0  0  0  0  0
    5.3572   -2.0636    0.0000 C   0  0  0  0  0  0  0  0  0  0  0  0
    5.7697   -2.7781    0.0000 C   0  0  0  0  0  0  0  0  0  0  0  0
    6.5947   -2.7781    0.0000 C   0  0  0  0  0  0  0  0  0  0  0  0
    5.3572   -3.4926    0.0000 C   0  0  0  0  0  0  0  0  0  0  0  0
    5.7697   -1.3492    0.0000 C   0  0  0  0  0  0  0  0  0  0  0  0
    6.5947   -1.3492    0.0000 C   0  0  0  0  0  0  0  0  0  0  0  0
    7.0072   -0.6347    0.0000 C   0  0  0  0  0  0  0  0  0  0  0  0
    6.5947    0.0798    0.0000 C   0  0  0  0  0  0  0  0  0  0  0  0
    7.0072    0.7943    0.0000 Cl  0  0  0  0  0  0  0  0  0  0  0  0
    5.7697    0.0798    0.0000 C   0  0  0  0  0  0  0  0  0  0  0  0
    5.3572   -0.6347    0.0000 C   0  0  0  0  0  0  0  0  0  0  0  0
  1  2  2  0  0  0  0
  2  3  1  0  0  0  0
  3  4  1  0  0  0  0
  4  5  1  0  0  0  0
  5  6  3  0  0  0  0
  4  7  1  0  0  0  0
  8  7  1  0  0  0  0
  9  8  2  0  0  0  0
  9 10  1  0  0  0  0
 10 11  1  0  0  0  0
 12 11  1  0  0  0  0
 13 12  2  0  0  0  0
 14 13  1  0  0  0  0
 15 14  2  0  0  0  0
 16 15  1  0  0  0  0
 11 16  2  0  0  0  0
 17  9  1  0  0  0  0
 18 17  2  0  0  0  0
 19 18  1  0  0  0  0
  7 19  2  0  0  0  0
  2 20  1  0  0  0  0
 20 21  1  0  0  0  0
 21 22  1  0  0  0  0
 21 23  1  0  0  0  0
 20 24  1  0  0  0  0
 25 24  1  0  0  0  0
 26 25  2  0  0  0  0
 27 26  1  0  0  0  0
 27 28  1  0  0  0  0
 29 27  2  0  0  0  0
 30 29  1  0  0  0  0
 24 30  2  0  0  0  0
M  END
> <ChemID>
100510

> <CAS>
67614-33-9

> <Original_SMILES>
CC(C)C(C(=O)OC(C#N)c1cc(ccc1)Oc1ccccc1)c1ccc(Cl)cc1

> <preferred_name>
Fenvalerate

> <dsstox_substance_id>
DTXSID3020621

> <dsstox_compound_id>
DTXCID201475882

> <qc_level>
DSSTox_Low

> <Canonical_QSARr>
CC(C)C(C1=CC=C(Cl)C=C1)C(=O)OC(C#N)C1C=C(C=CC=1)OC1C=CC=CC=1

> <InChI_Code_QSARr>
InChI=1S/C25H22ClNO3/c1-17(2)24(18-11-13-20(26)14-12-18)25(28)30-23(16-27)19-7-6-10-22(15-19)29-21-8-4-3-5-9-21/h3-15,17,23-24H,1-2H3

> <InChI Key_QSARr>
NYPJDWWKZLNGGM-UHFFFAOYSA-N

> <Salt_Solvent>


> <Salt_Solvent_ID>
0

> <MPID>
102108

> <LogKmHL>
0.69

> <Tr_1_Tst_0>
1

$$$$
100511
  Mrv171c012251910542D          

 14 13  0  0  0  0            999 V2000
    6.6514    0.0295    0.0000 C   0  0  0  0  0  0  0  0  0  0  0  0
    5.9369    0.4420    0.0000 C   0  0  0  0  0  0  0  0  0  0  0  0
    5.2224    0.0295    0.0000 C   0  0  0  0  0  0  0  0  0  0  0  0
    4.5079    0.4420    0.0000 C   0  0  0  0  0  0  0  0  0  0  0  0
    4.5079    1.2670    0.0000 C   0  0  0  0  0  0  0  0  0  0  0  0
    3.7935    0.0295    0.0000 C   0  0  0  0  0  0  0  0  0  0  0  0
    3.0790    0.4420    0.0000 C   0  0  0  0  0  0  0  0  0  0  0  0
    2.3645    0.0295    0.0000 C   0  0  0  0  0  0  0  0  0  0  0  0
    1.6501    0.4420    0.0000 C   0  0  0  0  0  0  0  0  0  0  0  0
    7.3658    0.4420    0.0000 C   0  0  0  0  0  0  0  0  0  0  0  0
    8.0803    0.0295    0.0000 C   0  0  0  0  0  0  0  0  0  0  0  0
    8.7948    0.4420    0.0000 C   0  0  0  0  0  0  0  0  0  0  0  0
    9.5092    0.0295    0.0000 C   0  0  0  0  0  0  0  0  0  0  0  0
   10.2237    0.4420    0.0000 C   0  0  0  0  0  0  0  0  0  0  0  0
  1  2  1  0  0  0  0
  2  3  1  0  0  0  0
  3  4  1  0  0  0  0
  4  5  2  0  0  0  0
  4  6  1  0  0  0  0
  6  7  1  0  0  0  0
  7  8  1  0  0  0  0
  8  9  1  0  0  0  0
  1 10  1  0  0  0  0
 10 11  1  0  0  0  0
 11 12  1  0  0  0  0
 12 13  1  0  0  0  0
 13 14  1  0  0  0  0
M  END
> <ChemID>
100511

> <CAS>
51655-65-3

> <Original_SMILES>
CCCCC(=C)CCCCCCCC

> <preferred_name>
2-Butyl-1-decene

> <dsstox_substance_id>
DTXSID30334623

> <dsstox_compound_id>
DTXCID40285713

> <qc_level>
Public_Low

> <Canonical_QSARr>
CCCCC(=C)CCCCCCCC

> <InChI_Code_QSARr>
InChI=1S/C14H28/c1-4-6-8-9-10-11-13-14(3)12-7-5-2/h3-13H2,1-2H3

> <InChI Key_QSARr>
RMTSLZJISCPGBT-UHFFFAOYSA-N

> <Salt_Solvent>


> <Salt_Solvent_ID>
0

> <MPID>
102109

> <LogKmHL>
0.88

> <Tr_1_Tst_0>
1

$$$$
100512
  Mrv171c012251910542D          

 18 19  0  0  0  0            999 V2000
    0.2778    1.9021    0.0000 C   0  0  0  0  0  0  0  0  0  0  0  0
    0.2778    2.7271    0.0000 C   0  0  0  0  0  0  0  0  0  0  0  0
   -0.4366    3.1396    0.0000 C   0  0  0  0  0  0  0  0  0  0  0  0
   -0.4366    3.9646    0.0000 Cl  0  0  0  0  0  0  0  0  0  0  0  0
   -1.1511    2.7271    0.0000 C   0  0  0  0  0  0  0  0  0  0  0  0
   -1.1511    1.9021    0.0000 C   0  0  0  0  0  0  0  0  0  0  0  0
   -1.8656    1.4896    0.0000 Cl  0  0  0  0  0  0  0  0  0  0  0  0
   -0.4366    1.4896    0.0000 C   0  0  0  0  0  0  0  0  0  0  0  0
   -0.4366    0.6646    0.0000 Cl  0  0  0  0  0  0  0  0  0  0  0  0
    0.9923    1.4896    0.0000 C   0  0  0  0  0  0  0  0  0  0  0  0
    0.9923    0.6646    0.0000 C   0  0  0  0  0  0  0  0  0  0  0  0
    1.7068    0.2521    0.0000 C   0  0  0  0  0  0  0  0  0  0  0  0
    1.7068   -0.5729    0.0000 Cl  0  0  0  0  0  0  0  0  0  0  0  0
    2.4213    0.6646    0.0000 C   0  0  0  0  0  0  0  0  0  0  0  0
    3.1357    0.2521    0.0000 Cl  0  0  0  0  0  0  0  0  0  0  0  0
    2.4213    1.4896    0.0000 C   0  0  0  0  0  0  0  0  0  0  0  0
    1.7068    1.9021    0.0000 C   0  0  0  0  0  0  0  0  0  0  0  0
    1.7068    2.7271    0.0000 Cl  0  0  0  0  0  0  0  0  0  0  0  0
  2  1  1  0  0  0  0
  3  2  2  0  0  0  0
  3  4  1  0  0  0  0
  5  3  1  0  0  0  0
  6  5  2  0  0  0  0
  6  7  1  0  0  0  0
  8  6  1  0  0  0  0
  1  8  2  0  0  0  0
  8  9  1  0  0  0  0
  1 10  1  0  0  0  0
 11 10  1  0  0  0  0
 12 11  2  0  0  0  0
 12 13  1  0  0  0  0
 14 12  1  0  0  0  0
 14 15  1  0  0  0  0
 16 14  2  0  0  0  0
 17 16  1  0  0  0  0
 10 17  2  0  0  0  0
 17 18  1  0  0  0  0
M  END
> <ChemID>
100512

> <CAS>
51908-16-8

> <Original_SMILES>
Clc1cc(-c2cc(Cl)c(Cl)cc2Cl)c(Cl)c(Cl)c1

> <preferred_name>
2,2',3,4',5,5'-Hexachlorobiphenyl

> <dsstox_substance_id>
DTXSID8074158

> <dsstox_compound_id>
DTXCID4041101

> <qc_level>
Public_High

> <Canonical_QSARr>
ClC1C=C(Cl)C(Cl)=CC=1C1C=C(Cl)C=C(Cl)C=1Cl

> <InChI_Code_QSARr>
InChI=1S/C12H4Cl6/c13-5-1-7(12(18)11(17)2-5)6-3-9(15)10(16)4-8(6)14/h1-4H

> <InChI Key_QSARr>
BQHCQAQLTCQFJZ-UHFFFAOYSA-N

> <Salt_Solvent>


> <Salt_Solvent_ID>
0

> <MPID>
102110

> <LogKmHL>
2.4

> <Tr_1_Tst_0>
0

$$$$
100513
  Mrv171c012251910542D          

 16 17  0  0  0  0            999 V2000
    0.5358   -5.3625    0.0000 C   0  0  0  0  0  0  0  0  0  0  0  0
    0.5358   -6.1875    0.0000 Cl  0  0  0  0  0  0  0  0  0  0  0  0
    1.2503   -4.9500    0.0000 C   0  0  0  0  0  0  0  0  0  0  0  0
    1.2503   -4.1250    0.0000 C   0  0  0  0  0  0  0  0  0  0  0  0
    0.5358   -3.7125    0.0000 C   0  0  0  0  0  0  0  0  0  0  0  0
    0.5358   -2.8875    0.0000 C   0  0  0  0  0  0  0  0  0  0  0  0
    1.2503   -2.4750    0.0000 C   0  0  0  0  0  0  0  0  0  0  0  0
    1.9648   -2.8875    0.0000 Cl  0  0  0  0  0  0  0  0  0  0  0  0
    1.2503   -1.6500    0.0000 C   0  0  0  0  0  0  0  0  0  0  0  0
    1.9648   -1.2375    0.0000 Cl  0  0  0  0  0  0  0  0  0  0  0  0
    0.5358   -1.2375    0.0000 C   0  0  0  0  0  0  0  0  0  0  0  0
   -0.1786   -1.6500    0.0000 C   0  0  0  0  0  0  0  0  0  0  0  0
   -0.1786   -2.4750    0.0000 C   0  0  0  0  0  0  0  0  0  0  0  0
   -0.8931   -2.8875    0.0000 Cl  0  0  0  0  0  0  0  0  0  0  0  0
   -0.1786   -4.1250    0.0000 C   0  0  0  0  0  0  0  0  0  0  0  0
   -0.1786   -4.9500    0.0000 C   0  0  0  0  0  0  0  0  0  0  0  0
  1  2  1  0  0  0  0
  3  1  1  0  0  0  0
  4  3  2  0  0  0  0
  5  4  1  0  0  0  0
  5  6  1  0  0  0  0
  7  6  1  0  0  0  0
  7  8  1  0  0  0  0
  9  7  2  0  0  0  0
  9 10  1  0  0  0  0
 11  9  1  0  0  0  0
 12 11  2  0  0  0  0
 13 12  1  0  0  0  0
  6 13  2  0  0  0  0
 13 14  1  0  0  0  0
 15  5  2  0  0  0  0
 16 15  1  0  0  0  0
  1 16  2  0  0  0  0
M  END
> <ChemID>
100513

> <CAS>
52663-58-8

> <Original_SMILES>
Clc1ccc(cc1)-c1c(Cl)c(Cl)ccc1Cl

> <preferred_name>
2,3,4',6-Tetrachlorobiphenyl

> <dsstox_substance_id>
DTXSID3074159

> <dsstox_compound_id>
DTXCID4041232

> <qc_level>
Public_High

> <Canonical_QSARr>
ClC1C=CC(=CC=1)C1C(Cl)=C(Cl)C=CC=1Cl

> <InChI_Code_QSARr>
InChI=1S/C12H6Cl4/c13-8-3-1-7(2-4-8)11-9(14)5-6-10(15)12(11)16/h1-6H

> <InChI Key_QSARr>
FXRXQYZZALWWGA-UHFFFAOYSA-N

> <Salt_Solvent>


> <Salt_Solvent_ID>
0

> <MPID>
102111

> <LogKmHL>
2.35

> <Tr_1_Tst_0>
1

$$$$
100514
  Mrv171c012251910542D          

 19 20  0  0  0  0            999 V2000
    1.9021   -2.7357    0.0000 C   0  0  0  0  0  0  0  0  0  0  0  0
    1.1876   -2.3232    0.0000 C   0  0  0  0  0  0  0  0  0  0  0  0
    1.1876   -1.4982    0.0000 Cl  0  0  0  0  0  0  0  0  0  0  0  0
    0.4731   -2.7357    0.0000 C   0  0  0  0  0  0  0  0  0  0  0  0
   -0.2414   -2.3232    0.0000 Cl  0  0  0  0  0  0  0  0  0  0  0  0
    0.4731   -3.5607    0.0000 C   0  0  0  0  0  0  0  0  0  0  0  0
    1.1876   -3.9732    0.0000 C   0  0  0  0  0  0  0  0  0  0  0  0
    1.1876   -4.7982    0.0000 Cl  0  0  0  0  0  0  0  0  0  0  0  0
    1.9021   -3.5607    0.0000 C   0  0  0  0  0  0  0  0  0  0  0  0
    2.6165   -3.9732    0.0000 Cl  0  0  0  0  0  0  0  0  0  0  0  0
    2.6165   -2.3232    0.0000 C   0  0  0  0  0  0  0  0  0  0  0  0
    3.3310   -2.7357    0.0000 C   0  0  0  0  0  0  0  0  0  0  0  0
    4.0455   -2.3232    0.0000 C   0  0  0  0  0  0  0  0  0  0  0  0
    4.7599   -2.7357    0.0000 Cl  0  0  0  0  0  0  0  0  0  0  0  0
    4.0455   -1.4982    0.0000 C   0  0  0  0  0  0  0  0  0  0  0  0
    4.7599   -1.0857    0.0000 Cl  0  0  0  0  0  0  0  0  0  0  0  0
    3.3310   -1.0857    0.0000 C   0  0  0  0  0  0  0  0  0  0  0  0
    2.6165   -1.4982    0.0000 C   0  0  0  0  0  0  0  0  0  0  0  0
    1.9021   -1.0857    0.0000 Cl  0  0  0  0  0  0  0  0  0  0  0  0
  2  1  2  0  0  0  0
  2  3  1  0  0  0  0
  4  2  1  0  0  0  0
  4  5  1  0  0  0  0
  6  4  2  0  0  0  0
  7  6  1  0  0  0  0
  7  8  1  0  0  0  0
  9  7  2  0  0  0  0
  1  9  1  0  0  0  0
  9 10  1  0  0  0  0
  1 11  1  0  0  0  0
 12 11  1  0  0  0  0
 13 12  2  0  0  0  0
 13 14  1  0  0  0  0
 15 13  1  0  0  0  0
 15 16  1  0  0  0  0
 17 15  2  0  0  0  0
 18 17  1  0  0  0  0
 11 18  2  0  0  0  0
 18 19  1  0  0  0  0
M  END
> <ChemID>
100514

> <CAS>
52663-68-0

> <Original_SMILES>
Clc1cc(Cl)c(Cl)cc1-c1c(Cl)c(Cl)cc(Cl)c1Cl

> <preferred_name>
2,2',3,4',5,5',6-Heptachloro-1,1'-biphenyl

> <dsstox_substance_id>
DTXSID5052832

> <dsstox_compound_id>
DTXCID7031375

> <qc_level>
DSSTox_Low

> <Canonical_QSARr>
ClC1C=C(Cl)C(Cl)=C(C2C=C(Cl)C(Cl)=CC=2Cl)C=1Cl

> <InChI_Code_QSARr>
InChI=1S/C12H3Cl7/c13-5-2-7(15)6(14)1-4(5)10-11(18)8(16)3-9(17)12(10)19/h1-3H

> <InChI Key_QSARr>
UDMZPLROONOSEF-UHFFFAOYSA-N

> <Salt_Solvent>


> <Salt_Solvent_ID>
0

> <MPID>
102112

> <LogKmHL>
2.45

> <Tr_1_Tst_0>
1

$$$$
100515
  Mrv171c012251910542D          

 19 20  0  0  0  0            999 V2000
    0.3761    1.7803    0.0000 C   0  0  0  0  0  0  0  0  0  0  0  0
    0.3761    2.6053    0.0000 C   0  0  0  0  0  0  0  0  0  0  0  0
   -0.3384    3.0178    0.0000 C   0  0  0  0  0  0  0  0  0  0  0  0
   -0.3384    3.8428    0.0000 Cl  0  0  0  0  0  0  0  0  0  0  0  0
   -1.0529    2.6053    0.0000 C   0  0  0  0  0  0  0  0  0  0  0  0
   -1.7673    3.0178    0.0000 Cl  0  0  0  0  0  0  0  0  0  0  0  0
   -1.0529    1.7803    0.0000 C   0  0  0  0  0  0  0  0  0  0  0  0
   -0.3384    1.3678    0.0000 C   0  0  0  0  0  0  0  0  0  0  0  0
   -0.3384    0.5428    0.0000 Cl  0  0  0  0  0  0  0  0  0  0  0  0
    1.0905    1.3678    0.0000 C   0  0  0  0  0  0  0  0  0  0  0  0
    1.0905    0.5428    0.0000 C   0  0  0  0  0  0  0  0  0  0  0  0
    0.3761    0.1303    0.0000 Cl  0  0  0  0  0  0  0  0  0  0  0  0
    1.8050    0.1303    0.0000 C   0  0  0  0  0  0  0  0  0  0  0  0
    2.5195    0.5428    0.0000 C   0  0  0  0  0  0  0  0  0  0  0  0
    3.2339    0.1303    0.0000 Cl  0  0  0  0  0  0  0  0  0  0  0  0
    2.5195    1.3678    0.0000 C   0  0  0  0  0  0  0  0  0  0  0  0
    3.2339    1.7803    0.0000 Cl  0  0  0  0  0  0  0  0  0  0  0  0
    1.8050    1.7803    0.0000 C   0  0  0  0  0  0  0  0  0  0  0  0
    1.8050    2.6053    0.0000 Cl  0  0  0  0  0  0  0  0  0  0  0  0
  2  1  1  0  0  0  0
  3  2  2  0  0  0  0
  3  4  1  0  0  0  0
  5  3  1  0  0  0  0
  5  6  1  0  0  0  0
  7  5  2  0  0  0  0
  8  7  1  0  0  0  0
  1  8  2  0  0  0  0
  8  9  1  0  0  0  0
  1 10  1  0  0  0  0
 11 10  1  0  0  0  0
 11 12  1  0  0  0  0
 13 11  2  0  0  0  0
 14 13  1  0  0  0  0
 14 15  1  0  0  0  0
 16 14  2  0  0  0  0
 16 17  1  0  0  0  0
 18 16  1  0  0  0  0
 10 18  2  0  0  0  0
 18 19  1  0  0  0  0
M  END
> <ChemID>
100515

> <CAS>
52663-69-1

> <Original_SMILES>
Clc1c(Cl)c(-c2cc(Cl)c(Cl)cc2Cl)c(Cl)cc1Cl

> <preferred_name>
2,2',3,4,4',5',6-Heptachlorobiphenyl

> <dsstox_substance_id>
DTXSID7074163

> <dsstox_compound_id>
DTXCID3041241

> <qc_level>
Public_High

> <Canonical_QSARr>
ClC1C=C(Cl)C(C2C=C(Cl)C(Cl)=CC=2Cl)=C(Cl)C=1Cl

> <InChI_Code_QSARr>
InChI=1S/C12H3Cl7/c13-5-2-7(15)6(14)1-4(5)10-8(16)3-9(17)11(18)12(10)19/h1-3H

> <InChI Key_QSARr>
KQBFUDNJKCZEDQ-UHFFFAOYSA-N

> <Salt_Solvent>


> <Salt_Solvent_ID>
0

> <MPID>
102113

> <LogKmHL>
2.59

> <Tr_1_Tst_0>
1

$$$$
100516
  Mrv171c012251910542D          

 19 20  0  0  0  0            999 V2000
    0.5640    1.2809    0.0000 C   0  0  0  0  0  0  0  0  0  0  0  0
   -0.1504    1.6934    0.0000 C   0  0  0  0  0  0  0  0  0  0  0  0
   -0.1504    2.5184    0.0000 Cl  0  0  0  0  0  0  0  0  0  0  0  0
   -0.8649    1.2809    0.0000 C   0  0  0  0  0  0  0  0  0  0  0  0
   -1.5794    1.6934    0.0000 Cl  0  0  0  0  0  0  0  0  0  0  0  0
   -0.8649    0.4559    0.0000 C   0  0  0  0  0  0  0  0  0  0  0  0
   -0.1504    0.0434    0.0000 C   0  0  0  0  0  0  0  0  0  0  0  0
   -0.1504   -0.7816    0.0000 Cl  0  0  0  0  0  0  0  0  0  0  0  0
    0.5640    0.4559    0.0000 C   0  0  0  0  0  0  0  0  0  0  0  0
    1.2785    0.0434    0.0000 Cl  0  0  0  0  0  0  0  0  0  0  0  0
    1.2785    1.6934    0.0000 C   0  0  0  0  0  0  0  0  0  0  0  0
    1.9930    1.2809    0.0000 C   0  0  0  0  0  0  0  0  0  0  0  0
    2.7075    1.6934    0.0000 C   0  0  0  0  0  0  0  0  0  0  0  0
    2.7075    2.5184    0.0000 C   0  0  0  0  0  0  0  0  0  0  0  0
    3.4219    2.9309    0.0000 Cl  0  0  0  0  0  0  0  0  0  0  0  0
    1.9930    2.9309    0.0000 C   0  0  0  0  0  0  0  0  0  0  0  0
    1.9930    3.7559    0.0000 Cl  0  0  0  0  0  0  0  0  0  0  0  0
    1.2785    2.5184    0.0000 C   0  0  0  0  0  0  0  0  0  0  0  0
    0.5640    2.9309    0.0000 Cl  0  0  0  0  0  0  0  0  0  0  0  0
  2  1  1  0  0  0  0
  2  3  1  0  0  0  0
  4  2  2  0  0  0  0
  4  5  1  0  0  0  0
  6  4  1  0  0  0  0
  7  6  2  0  0  0  0
  7  8  1  0  0  0  0
  9  7  1  0  0  0  0
  1  9  2  0  0  0  0
  9 10  1  0  0  0  0
  1 11  1  0  0  0  0
 12 11  1  0  0  0  0
 13 12  2  0  0  0  0
 14 13  1  0  0  0  0
 14 15  1  0  0  0  0
 16 14  2  0  0  0  0
 16 17  1  0  0  0  0
 18 16  1  0  0  0  0
 11 18  2  0  0  0  0
 18 19  1  0  0  0  0
M  END
> <ChemID>
100516

> <CAS>
52663-70-4

> <Original_SMILES>
Clc1c(Cl)c(ccc1Cl)-c1c(Cl)c(Cl)cc(Cl)c1Cl

> <preferred_name>
2,2',3,3',4,5',6'-Heptachlorobiphenyl

> <dsstox_substance_id>
DTXSID2074164

> <dsstox_compound_id>
DTXCID8041242

> <qc_level>
Public_High

> <Canonical_QSARr>
ClC1C=C(Cl)C(Cl)=C(C2C=CC(Cl)=C(Cl)C=2Cl)C=1Cl

> <InChI_Code_QSARr>
InChI=1S/C12H3Cl7/c13-5-2-1-4(9(16)12(5)19)8-10(17)6(14)3-7(15)11(8)18/h1-3H

> <InChI Key_QSARr>
CXOYNJAHPUASHN-UHFFFAOYSA-N

> <Salt_Solvent>


> <Salt_Solvent_ID>
0

> <MPID>
102114

> <LogKmHL>
2.5

> <Tr_1_Tst_0>
0

$$$$
100517
  Mrv171c012251910542D          

 19 20  0  0  0  0            999 V2000
    0.4889    1.4113    0.0000 C   0  0  0  0  0  0  0  0  0  0  0  0
   -0.2256    1.8238    0.0000 C   0  0  0  0  0  0  0  0  0  0  0  0
   -0.2256    2.6488    0.0000 Cl  0  0  0  0  0  0  0  0  0  0  0  0
   -0.9401    1.4113    0.0000 C   0  0  0  0  0  0  0  0  0  0  0  0
   -0.9401    0.5863    0.0000 C   0  0  0  0  0  0  0  0  0  0  0  0
   -1.6545    0.1738    0.0000 Cl  0  0  0  0  0  0  0  0  0  0  0  0
   -0.2256    0.1738    0.0000 C   0  0  0  0  0  0  0  0  0  0  0  0
   -0.2256   -0.6512    0.0000 Cl  0  0  0  0  0  0  0  0  0  0  0  0
    0.4889    0.5863    0.0000 C   0  0  0  0  0  0  0  0  0  0  0  0
    1.2033    0.1738    0.0000 Cl  0  0  0  0  0  0  0  0  0  0  0  0
    1.2033    1.8238    0.0000 C   0  0  0  0  0  0  0  0  0  0  0  0
    1.9178    1.4113    0.0000 C   0  0  0  0  0  0  0  0  0  0  0  0
    2.6323    1.8238    0.0000 C   0  0  0  0  0  0  0  0  0  0  0  0
    2.6323    2.6488    0.0000 C   0  0  0  0  0  0  0  0  0  0  0  0
    3.3468    3.0613    0.0000 Cl  0  0  0  0  0  0  0  0  0  0  0  0
    1.9178    3.0613    0.0000 C   0  0  0  0  0  0  0  0  0  0  0  0
    1.9178    3.8863    0.0000 Cl  0  0  0  0  0  0  0  0  0  0  0  0
    1.2033    2.6488    0.0000 C   0  0  0  0  0  0  0  0  0  0  0  0
    0.4889    3.0613    0.0000 Cl  0  0  0  0  0  0  0  0  0  0  0  0
  2  1  1  0  0  0  0
  2  3  1  0  0  0  0
  4  2  2  0  0  0  0
  5  4  1  0  0  0  0
  5  6  1  0  0  0  0
  7  5  2  0  0  0  0
  7  8  1  0  0  0  0
  9  7  1  0  0  0  0
  1  9  2  0  0  0  0
  9 10  1  0  0  0  0
  1 11  1  0  0  0  0
 12 11  1  0  0  0  0
 13 12  2  0  0  0  0
 14 13  1  0  0  0  0
 14 15  1  0  0  0  0
 16 14  2  0  0  0  0
 16 17  1  0  0  0  0
 18 16  1  0  0  0  0
 11 18  2  0  0  0  0
 18 19  1  0  0  0  0
M  END
> <ChemID>
100517

> <CAS>
52663-71-5

> <Original_SMILES>
Clc1cc(Cl)c(-c2ccc(Cl)c(Cl)c2Cl)c(Cl)c1Cl

> <preferred_name>
2,2',3,3',4,4',6-Heptachlorobiphenyl

> <dsstox_substance_id>
DTXSID4073540

> <dsstox_compound_id>
DTXCID3041243

> <qc_level>
Public_High

> <Canonical_QSARr>
ClC1C=C(Cl)C(C2C=CC(Cl)=C(Cl)C=2Cl)=C(Cl)C=1Cl

> <InChI_Code_QSARr>
InChI=1S/C12H3Cl7/c13-5-2-1-4(9(16)10(5)17)8-6(14)3-7(15)11(18)12(8)19/h1-3H

> <InChI Key_QSARr>
TZMHVHLTPWKZCI-UHFFFAOYSA-N

> <Salt_Solvent>


> <Salt_Solvent_ID>
0

> <MPID>
102115

> <LogKmHL>
2.52

> <Tr_1_Tst_0>
1

$$$$
100518
  Mrv171c012251910542D          

 18 19  0  0  0  0            999 V2000
    0.4366    1.9022    0.0000 C   0  0  0  0  0  0  0  0  0  0  0  0
    0.4366    2.7272    0.0000 C   0  0  0  0  0  0  0  0  0  0  0  0
   -0.2778    3.1397    0.0000 C   0  0  0  0  0  0  0  0  0  0  0  0
   -0.2778    3.9647    0.0000 Cl  0  0  0  0  0  0  0  0  0  0  0  0
   -0.9923    2.7272    0.0000 C   0  0  0  0  0  0  0  0  0  0  0  0
   -1.7068    3.1397    0.0000 Cl  0  0  0  0  0  0  0  0  0  0  0  0
   -0.9923    1.9022    0.0000 C   0  0  0  0  0  0  0  0  0  0  0  0
   -1.7068    1.4897    0.0000 Cl  0  0  0  0  0  0  0  0  0  0  0  0
   -0.2778    1.4897    0.0000 C   0  0  0  0  0  0  0  0  0  0  0  0
    1.1511    1.4897    0.0000 C   0  0  0  0  0  0  0  0  0  0  0  0
    1.1511    0.6647    0.0000 C   0  0  0  0  0  0  0  0  0  0  0  0
    1.8656    0.2522    0.0000 C   0  0  0  0  0  0  0  0  0  0  0  0
    1.8656   -0.5728    0.0000 Cl  0  0  0  0  0  0  0  0  0  0  0  0
    2.5801    0.6647    0.0000 C   0  0  0  0  0  0  0  0  0  0  0  0
    3.2945    0.2522    0.0000 Cl  0  0  0  0  0  0  0  0  0  0  0  0
    2.5801    1.4897    0.0000 C   0  0  0  0  0  0  0  0  0  0  0  0
    1.8656    1.9022    0.0000 C   0  0  0  0  0  0  0  0  0  0  0  0
    1.8656    2.7272    0.0000 Cl  0  0  0  0  0  0  0  0  0  0  0  0
  2  1  1  0  0  0  0
  3  2  2  0  0  0  0
  3  4  1  0  0  0  0
  5  3  1  0  0  0  0
  5  6  1  0  0  0  0
  7  5  2  0  0  0  0
  7  8  1  0  0  0  0
  9  7  1  0  0  0  0
  1  9  2  0  0  0  0
  1 10  1  0  0  0  0
 11 10  1  0  0  0  0
 12 11  2  0  0  0  0
 12 13  1  0  0  0  0
 14 12  1  0  0  0  0
 14 15  1  0  0  0  0
 16 14  2  0  0  0  0
 17 16  1  0  0  0  0
 10 17  2  0  0  0  0
 17 18  1  0  0  0  0
M  END
> <ChemID>
100518

> <CAS>
52663-72-6

> <Original_SMILES>
Clc1c(Cl)cc(cc1Cl)-c1cc(Cl)c(Cl)cc1Cl

> <preferred_name>
2,3',4,4',5,5'-Hexachlorobiphenyl

> <dsstox_substance_id>
DTXSID7074165

> <dsstox_compound_id>
DTXCID8041244

> <qc_level>
Public_High

> <Canonical_QSARr>
ClC1C=C(Cl)C(Cl)=CC=1C1C=C(Cl)C(Cl)=C(Cl)C=1

> <InChI_Code_QSARr>
InChI=1S/C12H4Cl6/c13-7-4-9(15)8(14)3-6(7)5-1-10(16)12(18)11(17)2-5/h1-4H

> <InChI Key_QSARr>
AZXHAWRMEPZSSV-UHFFFAOYSA-N

> <Salt_Solvent>


> <Salt_Solvent_ID>
0

> <MPID>
102116

> <LogKmHL>
2.43

> <Tr_1_Tst_0>
1

$$$$
100519
  Mrv171c012251910542D          

 19 20  0  0  0  0            999 V2000
    0.4888    1.9323    0.0000 C   0  0  0  0  0  0  0  0  0  0  0  0
    0.4888    2.7573    0.0000 C   0  0  0  0  0  0  0  0  0  0  0  0
   -0.2256    3.1698    0.0000 C   0  0  0  0  0  0  0  0  0  0  0  0
   -0.2256    3.9948    0.0000 Cl  0  0  0  0  0  0  0  0  0  0  0  0
   -0.9401    2.7573    0.0000 C   0  0  0  0  0  0  0  0  0  0  0  0
   -1.6546    3.1698    0.0000 Cl  0  0  0  0  0  0  0  0  0  0  0  0
   -0.9401    1.9323    0.0000 C   0  0  0  0  0  0  0  0  0  0  0  0
   -1.6546    1.5198    0.0000 Cl  0  0  0  0  0  0  0  0  0  0  0  0
   -0.2256    1.5198    0.0000 C   0  0  0  0  0  0  0  0  0  0  0  0
   -0.2256    0.6948    0.0000 Cl  0  0  0  0  0  0  0  0  0  0  0  0
    1.2033    1.5198    0.0000 C   0  0  0  0  0  0  0  0  0  0  0  0
    1.2033    0.6948    0.0000 C   0  0  0  0  0  0  0  0  0  0  0  0
    1.9178    0.2823    0.0000 C   0  0  0  0  0  0  0  0  0  0  0  0
    1.9178   -0.5427    0.0000 Cl  0  0  0  0  0  0  0  0  0  0  0  0
    2.6323    0.6948    0.0000 C   0  0  0  0  0  0  0  0  0  0  0  0
    2.6323    1.5198    0.0000 C   0  0  0  0  0  0  0  0  0  0  0  0
    3.3467    1.9323    0.0000 Cl  0  0  0  0  0  0  0  0  0  0  0  0
    1.9178    1.9323    0.0000 C   0  0  0  0  0  0  0  0  0  0  0  0
    1.9178    2.7573    0.0000 Cl  0  0  0  0  0  0  0  0  0  0  0  0
  2  1  1  0  0  0  0
  3  2  2  0  0  0  0
  3  4  1  0  0  0  0
  5  3  1  0  0  0  0
  5  6  1  0  0  0  0
  7  5  2  0  0  0  0
  7  8  1  0  0  0  0
  9  7  1  0  0  0  0
  1  9  2  0  0  0  0
  9 10  1  0  0  0  0
  1 11  1  0  0  0  0
 12 11  1  0  0  0  0
 13 12  2  0  0  0  0
 13 14  1  0  0  0  0
 15 13  1  0  0  0  0
 16 15  2  0  0  0  0
 16 17  1  0  0  0  0
 18 16  1  0  0  0  0
 11 18  2  0  0  0  0
 18 19  1  0  0  0  0
M  END
> <ChemID>
100519

> <CAS>
52663-74-8

> <Original_SMILES>
Clc1cc(Cl)c(Cl)c(c1)-c1cc(Cl)c(Cl)c(Cl)c1Cl

> <preferred_name>
2,2',3,3',4,5,5'-Heptachlorobiphenyl

> <dsstox_substance_id>
DTXSID7074167

> <dsstox_compound_id>
DTXCID8041246

> <qc_level>
Public_High

> <Canonical_QSARr>
ClC1C=C(Cl)C(Cl)=C(C=1)C1C=C(Cl)C(Cl)=C(Cl)C=1Cl

> <InChI_Code_QSARr>
InChI=1S/C12H3Cl7/c13-4-1-5(9(16)7(14)2-4)6-3-8(15)11(18)12(19)10(6)17/h1-3H

> <InChI Key_QSARr>
HOPMUCXYRNOABF-UHFFFAOYSA-N

> <Salt_Solvent>


> <Salt_Solvent_ID>
0

> <MPID>
102117

> <LogKmHL>
2.51

> <Tr_1_Tst_0>
1

$$$$
100520
  Mrv171c012251910542D          

 20 21  0  0  0  0            999 V2000
    0.3572    1.1963    0.0000 C   0  0  0  0  0  0  0  0  0  0  0  0
   -0.3572    1.6088    0.0000 C   0  0  0  0  0  0  0  0  0  0  0  0
   -0.3572    2.4338    0.0000 Cl  0  0  0  0  0  0  0  0  0  0  0  0
   -1.0717    1.1963    0.0000 C   0  0  0  0  0  0  0  0  0  0  0  0
   -1.7862    1.6088    0.0000 Cl  0  0  0  0  0  0  0  0  0  0  0  0
   -1.0717    0.3713    0.0000 C   0  0  0  0  0  0  0  0  0  0  0  0
   -0.3572   -0.0412    0.0000 C   0  0  0  0  0  0  0  0  0  0  0  0
   -0.3572   -0.8662    0.0000 Cl  0  0  0  0  0  0  0  0  0  0  0  0
    0.3572    0.3713    0.0000 C   0  0  0  0  0  0  0  0  0  0  0  0
    1.0717   -0.0412    0.0000 Cl  0  0  0  0  0  0  0  0  0  0  0  0
    1.0717    1.6088    0.0000 C   0  0  0  0  0  0  0  0  0  0  0  0
    1.7862    1.1963    0.0000 C   0  0  0  0  0  0  0  0  0  0  0  0
    2.5006    1.6088    0.0000 C   0  0  0  0  0  0  0  0  0  0  0  0
    3.2151    1.1963    0.0000 Cl  0  0  0  0  0  0  0  0  0  0  0  0
    2.5006    2.4338    0.0000 C   0  0  0  0  0  0  0  0  0  0  0  0
    3.2151    2.8463    0.0000 Cl  0  0  0  0  0  0  0  0  0  0  0  0
    1.7862    2.8463    0.0000 C   0  0  0  0  0  0  0  0  0  0  0  0
    1.7862    3.6713    0.0000 Cl  0  0  0  0  0  0  0  0  0  0  0  0
    1.0717    2.4338    0.0000 C   0  0  0  0  0  0  0  0  0  0  0  0
    0.3572    2.8463    0.0000 Cl  0  0  0  0  0  0  0  0  0  0  0  0
  2  1  1  0  0  0  0
  2  3  1  0  0  0  0
  4  2  2  0  0  0  0
  4  5  1  0  0  0  0
  6  4  1  0  0  0  0
  7  6  2  0  0  0  0
  7  8  1  0  0  0  0
  9  7  1  0  0  0  0
  1  9  2  0  0  0  0
  9 10  1  0  0  0  0
  1 11  1  0  0  0  0
 12 11  1  0  0  0  0
 13 12  2  0  0  0  0
 13 14  1  0  0  0  0
 15 13  1  0  0  0  0
 15 16  1  0  0  0  0
 17 15  2  0  0  0  0
 17 18  1  0  0  0  0
 19 17  1  0  0  0  0
 11 19  2  0  0  0  0
 19 20  1  0  0  0  0
M  END
> <ChemID>
100520

> <CAS>
52663-75-9

> <Original_SMILES>
Clc1cc(-c2c(Cl)c(Cl)cc(Cl)c2Cl)c(Cl)c(Cl)c1Cl

> <preferred_name>
2,2',3,3',4,5,5',6'-Octachlorobiphenyl

> <dsstox_substance_id>
DTXSID2074168

> <dsstox_compound_id>
DTXCID3041247

> <qc_level>
Public_High

> <Canonical_QSARr>
ClC1C=C(Cl)C(Cl)=C(C2C=C(Cl)C(Cl)=C(Cl)C=2Cl)C=1Cl

> <InChI_Code_QSARr>
InChI=1S/C12H2Cl8/c13-4-1-3(8(16)12(20)11(4)19)7-9(17)5(14)2-6(15)10(7)18/h1-2H

> <InChI Key_QSARr>
HJBYDWKNARZTMJ-UHFFFAOYSA-N

> <Salt_Solvent>


> <Salt_Solvent_ID>
0

> <MPID>
102118

> <LogKmHL>
2.47

> <Tr_1_Tst_0>
0

$$$$
100521
  Mrv171c012251910542D          

 21 22  0  0  0  0            999 V2000
    0.4763    1.6500    0.0000 C   0  0  0  0  0  0  0  0  0  0  0  0
   -0.2382    2.0625    0.0000 C   0  0  0  0  0  0  0  0  0  0  0  0
   -0.2382    2.8875    0.0000 Cl  0  0  0  0  0  0  0  0  0  0  0  0
   -0.9526    1.6500    0.0000 C   0  0  0  0  0  0  0  0  0  0  0  0
   -1.6671    2.0625    0.0000 Cl  0  0  0  0  0  0  0  0  0  0  0  0
   -0.9526    0.8250    0.0000 C   0  0  0  0  0  0  0  0  0  0  0  0
   -1.6671    0.4125    0.0000 Cl  0  0  0  0  0  0  0  0  0  0  0  0
   -0.2382    0.4125    0.0000 C   0  0  0  0  0  0  0  0  0  0  0  0
   -0.2382   -0.4125    0.0000 Cl  0  0  0  0  0  0  0  0  0  0  0  0
    0.4763    0.8250    0.0000 C   0  0  0  0  0  0  0  0  0  0  0  0
    1.1908    0.4125    0.0000 Cl  0  0  0  0  0  0  0  0  0  0  0  0
    1.1908    2.0625    0.0000 C   0  0  0  0  0  0  0  0  0  0  0  0
    1.9052    1.6500    0.0000 C   0  0  0  0  0  0  0  0  0  0  0  0
    1.9052    0.8250    0.0000 Cl  0  0  0  0  0  0  0  0  0  0  0  0
    2.6197    2.0625    0.0000 C   0  0  0  0  0  0  0  0  0  0  0  0
    3.3342    1.6500    0.0000 Cl  0  0  0  0  0  0  0  0  0  0  0  0
    2.6197    2.8875    0.0000 C   0  0  0  0  0  0  0  0  0  0  0  0
    1.9052    3.3000    0.0000 C   0  0  0  0  0  0  0  0  0  0  0  0
    1.9052    4.1250    0.0000 Cl  0  0  0  0  0  0  0  0  0  0  0  0
    1.1908    2.8875    0.0000 C   0  0  0  0  0  0  0  0  0  0  0  0
    0.4763    3.3000    0.0000 Cl  0  0  0  0  0  0  0  0  0  0  0  0
  2  1  1  0  0  0  0
  2  3  1  0  0  0  0
  4  2  2  0  0  0  0
  4  5  1  0  0  0  0
  6  4  1  0  0  0  0
  6  7  1  0  0  0  0
  8  6  2  0  0  0  0
  8  9  1  0  0  0  0
 10  8  1  0  0  0  0
  1 10  2  0  0  0  0
 10 11  1  0  0  0  0
  1 12  1  0  0  0  0
 13 12  1  0  0  0  0
 13 14  1  0  0  0  0
 15 13  2  0  0  0  0
 15 16  1  0  0  0  0
 17 15  1  0  0  0  0
 18 17  2  0  0  0  0
 18 19  1  0  0  0  0
 20 18  1  0  0  0  0
 12 20  2  0  0  0  0
 20 21  1  0  0  0  0
M  END
> <ChemID>
100521

> <CAS>
52663-77-1

> <Original_SMILES>
Clc1c(-c2c(Cl)c(Cl)c(Cl)c(Cl)c2Cl)c(Cl)c(Cl)cc1Cl

> <preferred_name>
2,2',3,3',4,5,5',6,6'-Nonachlorobiphenyl

> <dsstox_substance_id>
DTXSID6074170

> <dsstox_compound_id>
DTXCID3041249

> <qc_level>
Public_High

> <Canonical_QSARr>
ClC1=CC(Cl)=C(Cl)C(C2=C(Cl)C(Cl)=C(Cl)C(Cl)=C2Cl)=C1Cl

> <InChI_Code_QSARr>
InChI=1S/C12HCl9/c13-2-1-3(14)7(16)4(6(2)15)5-8(17)10(19)12(21)11(20)9(5)18/h1H

> <InChI Key_QSARr>
XIFFTDRFWYFAPO-UHFFFAOYSA-N

> <Salt_Solvent>


> <Salt_Solvent_ID>
0

> <MPID>
102119

> <LogKmHL>
2.63

> <Tr_1_Tst_0>
1

$$$$
100522
  Mrv171c012251910542D          

 20 21  0  0  0  0            999 V2000
    0.6788    1.5057    0.0000 C   0  0  0  0  0  0  0  0  0  0  0  0
   -0.0357    1.9182    0.0000 C   0  0  0  0  0  0  0  0  0  0  0  0
   -0.0357    2.7432    0.0000 Cl  0  0  0  0  0  0  0  0  0  0  0  0
   -0.7502    1.5057    0.0000 C   0  0  0  0  0  0  0  0  0  0  0  0
   -1.4646    1.9182    0.0000 Cl  0  0  0  0  0  0  0  0  0  0  0  0
   -0.7502    0.6807    0.0000 C   0  0  0  0  0  0  0  0  0  0  0  0
   -1.4646    0.2682    0.0000 Cl  0  0  0  0  0  0  0  0  0  0  0  0
   -0.0357    0.2682    0.0000 C   0  0  0  0  0  0  0  0  0  0  0  0
   -0.0357   -0.5568    0.0000 Cl  0  0  0  0  0  0  0  0  0  0  0  0
    0.6788    0.6807    0.0000 C   0  0  0  0  0  0  0  0  0  0  0  0
    1.3932    0.2682    0.0000 Cl  0  0  0  0  0  0  0  0  0  0  0  0
    1.3932    1.9182    0.0000 C   0  0  0  0  0  0  0  0  0  0  0  0
    2.1077    1.5057    0.0000 C   0  0  0  0  0  0  0  0  0  0  0  0
    2.8222    1.9182    0.0000 C   0  0  0  0  0  0  0  0  0  0  0  0
    2.8222    2.7432    0.0000 C   0  0  0  0  0  0  0  0  0  0  0  0
    3.5367    3.1557    0.0000 Cl  0  0  0  0  0  0  0  0  0  0  0  0
    2.1077    3.1557    0.0000 C   0  0  0  0  0  0  0  0  0  0  0  0
    2.1077    3.9807    0.0000 Cl  0  0  0  0  0  0  0  0  0  0  0  0
    1.3932    2.7432    0.0000 C   0  0  0  0  0  0  0  0  0  0  0  0
    0.6788    3.1557    0.0000 Cl  0  0  0  0  0  0  0  0  0  0  0  0
  2  1  1  0  0  0  0
  2  3  1  0  0  0  0
  4  2  2  0  0  0  0
  4  5  1  0  0  0  0
  6  4  1  0  0  0  0
  6  7  1  0  0  0  0
  8  6  2  0  0  0  0
  8  9  1  0  0  0  0
 10  8  1  0  0  0  0
  1 10  2  0  0  0  0
 10 11  1  0  0  0  0
  1 12  1  0  0  0  0
 13 12  1  0  0  0  0
 14 13  2  0  0  0  0
 15 14  1  0  0  0  0
 15 16  1  0  0  0  0
 17 15  2  0  0  0  0
 17 18  1  0  0  0  0
 19 17  1  0  0  0  0
 12 19  2  0  0  0  0
 19 20  1  0  0  0  0
M  END
> <ChemID>
100522

> <CAS>
52663-78-2

> <Original_SMILES>
Clc1ccc(-c2c(Cl)c(Cl)c(Cl)c(Cl)c2Cl)c(Cl)c1Cl

> <preferred_name>
2,2',3,3',4,4',5,6-Octachlorobiphenyl

> <dsstox_substance_id>
DTXSID1074171

> <dsstox_compound_id>
DTXCID2041250

> <qc_level>
Public_High

> <Canonical_QSARr>
ClC1C=CC(C2C(Cl)=C(Cl)C(Cl)=C(Cl)C=2Cl)=C(Cl)C=1Cl

> <InChI_Code_QSARr>
InChI=1S/C12H2Cl8/c13-4-2-1-3(6(14)7(4)15)5-8(16)10(18)12(20)11(19)9(5)17/h1-2H

> <InChI Key_QSARr>
JAHJITLFJSDRCG-UHFFFAOYSA-N

> <Salt_Solvent>


> <Salt_Solvent_ID>
0

> <MPID>
102120

> <LogKmHL>
2.54

> <Tr_1_Tst_0>
1

$$$$
100523
  Mrv171c012251910542D          

 21 22  0  0  0  0            999 V2000
    0.4763   -2.2786    0.0000 C   0  0  0  0  0  0  0  0  0  0  0  0
   -0.2382   -1.8661    0.0000 C   0  0  0  0  0  0  0  0  0  0  0  0
   -0.2382   -1.0411    0.0000 C   0  0  0  0  0  0  0  0  0  0  0  0
    0.4763   -0.6286    0.0000 C   0  0  0  0  0  0  0  0  0  0  0  0
    1.1908   -1.0411    0.0000 Cl  0  0  0  0  0  0  0  0  0  0  0  0
    0.4763    0.1964    0.0000 C   0  0  0  0  0  0  0  0  0  0  0  0
   -0.2382    0.6089    0.0000 C   0  0  0  0  0  0  0  0  0  0  0  0
   -0.2382    1.4339    0.0000 Cl  0  0  0  0  0  0  0  0  0  0  0  0
   -0.9526    0.1964    0.0000 C   0  0  0  0  0  0  0  0  0  0  0  0
   -1.6671    0.6089    0.0000 Cl  0  0  0  0  0  0  0  0  0  0  0  0
   -0.9526   -0.6286    0.0000 C   0  0  0  0  0  0  0  0  0  0  0  0
   -1.6671   -1.0411    0.0000 Cl  0  0  0  0  0  0  0  0  0  0  0  0
   -0.9526   -2.2786    0.0000 C   0  0  0  0  0  0  0  0  0  0  0  0
   -1.6671   -1.8661    0.0000 Cl  0  0  0  0  0  0  0  0  0  0  0  0
   -0.9526   -3.1036    0.0000 C   0  0  0  0  0  0  0  0  0  0  0  0
   -1.6671   -3.5161    0.0000 Cl  0  0  0  0  0  0  0  0  0  0  0  0
   -0.2382   -3.5161    0.0000 C   0  0  0  0  0  0  0  0  0  0  0  0
   -0.2382   -4.3411    0.0000 Cl  0  0  0  0  0  0  0  0  0  0  0  0
    0.4763   -3.1036    0.0000 C   0  0  0  0  0  0  0  0  0  0  0  0
    1.1908   -3.5161    0.0000 Cl  0  0  0  0  0  0  0  0  0  0  0  0
    1.1908   -1.8661    0.0000 Cl  0  0  0  0  0  0  0  0  0  0  0  0
  2  1  1  0  0  0  0
  2  3  1  0  0  0  0
  4  3  1  0  0  0  0
  4  5  1  0  0  0  0
  6  4  2  0  0  0  0
  7  6  1  0  0  0  0
  7  8  1  0  0  0  0
  9  7  2  0  0  0  0
  9 10  1  0  0  0  0
 11  9  1  0  0  0  0
  3 11  2  0  0  0  0
 11 12  1  0  0  0  0
 13  2  2  0  0  0  0
 13 14  1  0  0  0  0
 15 13  1  0  0  0  0
 15 16  1  0  0  0  0
 17 15  2  0  0  0  0
 17 18  1  0  0  0  0
 19 17  1  0  0  0  0
  1 19  2  0  0  0  0
 19 20  1  0  0  0  0
  1 21  1  0  0  0  0
M  END
> <ChemID>
100523

> <CAS>
52663-79-3

> <Original_SMILES>
Clc1cc(Cl)c(Cl)c(Cl)c1-c1c(Cl)c(Cl)c(Cl)c(Cl)c1Cl

> <preferred_name>
2,2',3,3',4,4',5,6,6'-Nonachlorobiphenyl

> <dsstox_substance_id>
DTXSID6074172

> <dsstox_compound_id>
DTXCID7041251

> <qc_level>
Public_High

> <Canonical_QSARr>
ClC1=CC(Cl)=C(Cl)C(Cl)=C1C1C(Cl)=C(Cl)C(Cl)=C(Cl)C=1Cl

> <InChI_Code_QSARr>
InChI=1S/C12HCl9/c13-2-1-3(14)6(15)7(16)4(2)5-8(17)10(19)12(21)11(20)9(5)18/h1H

> <InChI Key_QSARr>
YGDPIDTZOQGPAX-UHFFFAOYSA-N

> <Salt_Solvent>


> <Salt_Solvent_ID>
0

> <MPID>
102121

> <LogKmHL>
2.66

> <Tr_1_Tst_0>
1

$$$$
100524
  Mrv171c012251910542D          

 19 20  0  0  0  0            999 V2000
    0.6017    1.8671    0.0000 C   0  0  0  0  0  0  0  0  0  0  0  0
   -0.1128    2.2796    0.0000 C   0  0  0  0  0  0  0  0  0  0  0  0
   -0.1128    3.1046    0.0000 Cl  0  0  0  0  0  0  0  0  0  0  0  0
   -0.8273    1.8671    0.0000 C   0  0  0  0  0  0  0  0  0  0  0  0
   -1.5418    2.2796    0.0000 Cl  0  0  0  0  0  0  0  0  0  0  0  0
   -0.8273    1.0421    0.0000 C   0  0  0  0  0  0  0  0  0  0  0  0
   -1.5418    0.6296    0.0000 Cl  0  0  0  0  0  0  0  0  0  0  0  0
   -0.1128    0.6296    0.0000 C   0  0  0  0  0  0  0  0  0  0  0  0
   -0.1128   -0.1954    0.0000 Cl  0  0  0  0  0  0  0  0  0  0  0  0
    0.6017    1.0421    0.0000 C   0  0  0  0  0  0  0  0  0  0  0  0
    1.3161    0.6296    0.0000 Cl  0  0  0  0  0  0  0  0  0  0  0  0
    1.3161    2.2796    0.0000 C   0  0  0  0  0  0  0  0  0  0  0  0
    2.0306    1.8671    0.0000 C   0  0  0  0  0  0  0  0  0  0  0  0
    2.7451    2.2796    0.0000 C   0  0  0  0  0  0  0  0  0  0  0  0
    3.4595    1.8671    0.0000 Cl  0  0  0  0  0  0  0  0  0  0  0  0
    2.7451    3.1046    0.0000 C   0  0  0  0  0  0  0  0  0  0  0  0
    2.0306    3.5171    0.0000 C   0  0  0  0  0  0  0  0  0  0  0  0
    1.3161    3.1046    0.0000 C   0  0  0  0  0  0  0  0  0  0  0  0
    0.6017    3.5171    0.0000 Cl  0  0  0  0  0  0  0  0  0  0  0  0
  2  1  1  0  0  0  0
  2  3  1  0  0  0  0
  4  2  2  0  0  0  0
  4  5  1  0  0  0  0
  6  4  1  0  0  0  0
  6  7  1  0  0  0  0
  8  6  2  0  0  0  0
  8  9  1  0  0  0  0
 10  8  1  0  0  0  0
  1 10  2  0  0  0  0
 10 11  1  0  0  0  0
  1 12  1  0  0  0  0
 13 12  1  0  0  0  0
 14 13  2  0  0  0  0
 14 15  1  0  0  0  0
 16 14  1  0  0  0  0
 17 16  2  0  0  0  0
 18 17  1  0  0  0  0
 12 18  2  0  0  0  0
 18 19  1  0  0  0  0
M  END
> <ChemID>
100524

> <CAS>
52712-05-7

> <Original_SMILES>
Clc1cc(-c2c(Cl)c(Cl)c(Cl)c(Cl)c2Cl)c(Cl)cc1

> <preferred_name>
2,2',3,4,5,5',6-Heptachlorobiphenyl

> <dsstox_substance_id>
DTXSID1074175

> <dsstox_compound_id>
DTXCID0041272

> <qc_level>
Public_High

> <Canonical_QSARr>
ClC1=CC(C2C(Cl)=C(Cl)C(Cl)=C(Cl)C=2Cl)=C(Cl)C=C1

> <InChI_Code_QSARr>
InChI=1S/C12H3Cl7/c13-4-1-2-6(14)5(3-4)7-8(15)10(17)12(19)11(18)9(7)16/h1-3H

> <InChI Key_QSARr>
PYZHTHZEHQHHEN-UHFFFAOYSA-N

> <Salt_Solvent>


> <Salt_Solvent_ID>
0

> <MPID>
102122

> <LogKmHL>
2.48

> <Tr_1_Tst_0>
0

$$$$
100525
  Mrv171c012251910542D          

 18 19  0  0  0  0            999 V2000
    0.4366    1.9021    0.0000 C   0  0  0  0  0  0  0  0  0  0  0  0
    0.4366    2.7271    0.0000 C   0  0  0  0  0  0  0  0  0  0  0  0
   -0.2779    3.1396    0.0000 C   0  0  0  0  0  0  0  0  0  0  0  0
   -0.2779    3.9646    0.0000 Cl  0  0  0  0  0  0  0  0  0  0  0  0
   -0.9923    2.7271    0.0000 C   0  0  0  0  0  0  0  0  0  0  0  0
   -0.9923    1.9021    0.0000 C   0  0  0  0  0  0  0  0  0  0  0  0
   -1.7068    1.4896    0.0000 Cl  0  0  0  0  0  0  0  0  0  0  0  0
   -0.2779    1.4896    0.0000 C   0  0  0  0  0  0  0  0  0  0  0  0
   -0.2779    0.6646    0.0000 Cl  0  0  0  0  0  0  0  0  0  0  0  0
    1.1511    1.4896    0.0000 C   0  0  0  0  0  0  0  0  0  0  0  0
    1.1511    0.6646    0.0000 C   0  0  0  0  0  0  0  0  0  0  0  0
    0.4366    0.2521    0.0000 Cl  0  0  0  0  0  0  0  0  0  0  0  0
    1.8656    0.2521    0.0000 C   0  0  0  0  0  0  0  0  0  0  0  0
    2.5800    0.6646    0.0000 C   0  0  0  0  0  0  0  0  0  0  0  0
    2.5800    1.4896    0.0000 C   0  0  0  0  0  0  0  0  0  0  0  0
    3.2945    1.9021    0.0000 Cl  0  0  0  0  0  0  0  0  0  0  0  0
    1.8656    1.9021    0.0000 C   0  0  0  0  0  0  0  0  0  0  0  0
    1.8656    2.7271    0.0000 Cl  0  0  0  0  0  0  0  0  0  0  0  0
  2  1  1  0  0  0  0
  3  2  2  0  0  0  0
  3  4  1  0  0  0  0
  5  3  1  0  0  0  0
  6  5  2  0  0  0  0
  6  7  1  0  0  0  0
  8  6  1  0  0  0  0
  1  8  2  0  0  0  0
  8  9  1  0  0  0  0
  1 10  1  0  0  0  0
 11 10  1  0  0  0  0
 11 12  1  0  0  0  0
 13 11  2  0  0  0  0
 14 13  1  0  0  0  0
 15 14  2  0  0  0  0
 15 16  1  0  0  0  0
 17 15  1  0  0  0  0
 10 17  2  0  0  0  0
 17 18  1  0  0  0  0
M  END
> <ChemID>
100525

> <CAS>
52744-13-5

> <Original_SMILES>
Clc1cc(-c2c(Cl)c(Cl)ccc2Cl)c(Cl)c(Cl)c1

> <preferred_name>
2,2',3,3',5,6'-Hexachlorobiphenyl

> <dsstox_substance_id>
DTXSID9073541

> <dsstox_compound_id>
DTXCID4041286

> <qc_level>
Public_High

> <Canonical_QSARr>
ClC1C=C(Cl)C(Cl)=C(C=1)C1=C(Cl)C(Cl)=CC=C1Cl

> <InChI_Code_QSARr>
InChI=1S/C12H4Cl6/c13-5-3-6(11(17)9(16)4-5)10-7(14)1-2-8(15)12(10)18/h1-4H

> <InChI Key_QSARr>
UUTNFLRSJBQQJM-UHFFFAOYSA-N

> <Salt_Solvent>


> <Salt_Solvent_ID>
0

> <MPID>
102123

> <LogKmHL>
2.32

> <Tr_1_Tst_0>
1

$$$$
100526
  Mrv171c012251910542D          

 13 13  0  0  0  0            999 V2000
    2.6943   -0.2380    0.0000 C   0  0  0  0  0  0  0  0  0  0  0  0
    3.4087    0.1745    0.0000 C   0  0  0  0  0  0  0  0  0  0  0  0
    4.1232   -0.2380    0.0000 C   0  0  0  0  0  0  0  0  0  0  0  0
    4.8377    0.1745    0.0000 C   0  0  0  0  0  0  0  0  0  0  0  0
    5.5521   -0.2380    0.0000 C   0  0  0  0  0  0  0  0  0  0  0  0
    6.2666    0.1745    0.0000 C   0  0  0  0  0  0  0  0  0  0  0  0
    6.9811   -0.2380    0.0000 C   0  0  0  0  0  0  0  0  0  0  0  0
    1.9798    0.1745    0.0000 C   0  0  0  0  0  0  0  0  0  0  0  0
    1.2653   -0.2380    0.0000 C   0  0  0  0  0  0  0  0  0  0  0  0
    1.2653   -1.0630    0.0000 C   0  0  0  0  0  0  0  0  0  0  0  0
    1.9798   -1.4755    0.0000 C   0  0  0  0  0  0  0  0  0  0  0  0
    1.9798   -2.3005    0.0000 C   0  0  0  0  0  0  0  0  0  0  0  0
    2.6943   -1.0630    0.0000 C   0  0  0  0  0  0  0  0  0  0  0  0
  1  2  1  0  0  0  0
  2  3  1  0  0  0  0
  3  4  1  0  0  0  0
  4  5  1  0  0  0  0
  5  6  1  0  0  0  0
  6  7  1  0  0  0  0
  8  1  1  0  0  0  0
  9  8  1  0  0  0  0
 10  9  1  0  0  0  0
 11 10  1  0  0  0  0
 11 12  1  0  0  0  0
 13 11  1  0  0  0  0
  1 13  1  0  0  0  0
M  END
> <ChemID>
100526

> <CAS>
52886-35-8

> <Original_SMILES>
CC1CCCC(C1)CCCCCC

> <preferred_name>
PUBCHEM_53425803

> <dsstox_substance_id>
DTXSID60698987

> <dsstox_compound_id>
DTXCID00649736

> <qc_level>
Public_Low

> <Canonical_QSARr>
CC1CCCC(C1)CCCCCC

> <InChI_Code_QSARr>
InChI=1S/C13H26/c1-3-4-5-6-9-13-10-7-8-12(2)11-13/h12-13H,3-11H2,1-2H3

> <InChI Key_QSARr>
JDRSBYDVSKONQG-UHFFFAOYSA-N

> <Salt_Solvent>


> <Salt_Solvent_ID>
0

> <MPID>
102124

> <LogKmHL>
0.97

> <Tr_1_Tst_0>
1

$$$$
100527
  Mrv171c012251910542D          

 28 30  0  0  0  0            999 V2000
    3.3616    0.7377    0.0000 C   0  0  0  0  0  0  0  0  0  0  0  0
    3.2183   -0.0747    0.0000 C   0  0  0  0  0  0  0  0  0  0  0  0
    2.5864    1.0199    0.0000 C   0  0  0  0  0  0  0  0  0  0  0  0
    4.1866    0.7377    0.0000 C   0  0  0  0  0  0  0  0  0  0  0  0
    4.9011    0.3252    0.0000 C   0  0  0  0  0  0  0  0  0  0  0  0
    5.6155    0.7377    0.0000 O   0  0  0  0  0  0  0  0  0  0  0  0
    4.9011   -0.4998    0.0000 O   0  0  0  0  0  0  0  0  0  0  0  0
    5.6155   -0.9123    0.0000 C   0  0  0  0  0  0  0  0  0  0  0  0
    5.6155   -1.7373    0.0000 C   0  0  0  0  0  0  0  0  0  0  0  0
    4.9011   -2.1498    0.0000 C   0  0  0  0  0  0  0  0  0  0  0  0
    4.9011   -2.9748    0.0000 C   0  0  0  0  0  0  0  0  0  0  0  0
    5.6155   -3.3873    0.0000 C   0  0  0  0  0  0  0  0  0  0  0  0
    6.3300   -2.9748    0.0000 C   0  0  0  0  0  0  0  0  0  0  0  0
    7.0445   -3.3873    0.0000 O   0  0  0  0  0  0  0  0  0  0  0  0
    7.0445   -4.2123    0.0000 C   0  0  0  0  0  0  0  0  0  0  0  0
    6.3300   -4.6248    0.0000 C   0  0  0  0  0  0  0  0  0  0  0  0
    6.3300   -5.4498    0.0000 C   0  0  0  0  0  0  0  0  0  0  0  0
    7.0445   -5.8623    0.0000 C   0  0  0  0  0  0  0  0  0  0  0  0
    7.7590   -5.4498    0.0000 C   0  0  0  0  0  0  0  0  0  0  0  0
    7.7590   -4.6248    0.0000 C   0  0  0  0  0  0  0  0  0  0  0  0
    6.3300   -2.1498    0.0000 C   0  0  0  0  0  0  0  0  0  0  0  0
    6.3300   -0.4998    0.0000 C   0  0  0  0  0  0  0  0  0  0  0  0
    7.0445   -0.0873    0.0000 N   0  0  0  0  0  0  0  0  0  0  0  0
    3.7741    1.4522    0.0000 C   0  0  0  0  0  0  0  0  0  0  0  0
    3.7741    2.2772    0.0000 C   0  0  0  0  0  0  0  0  0  0  0  0
    3.0596    2.6897    0.0000 C   0  0  0  0  0  0  0  0  0  0  0  0
    2.3452    2.2772    0.0000 Br  0  0  0  0  0  0  0  0  0  0  0  0
    3.0596    3.5147    0.0000 Br  0  0  0  0  0  0  0  0  0  0  0  0
  1  2  1  0  0  0  0
  1  3  1  0  0  0  0
  4  1  1  0  0  0  0
  4  5  1  0  0  0  0
  5  6  2  0  0  0  0
  5  7  1  0  0  0  0
  7  8  1  0  0  0  0
  8  9  1  0  0  0  0
 10  9  2  0  0  0  0
 11 10  1  0  0  0  0
 12 11  2  0  0  0  0
 13 12  1  0  0  0  0
 13 14  1  0  0  0  0
 14 15  1  0  0  0  0
 16 15  2  0  0  0  0
 17 16  1  0  0  0  0
 18 17  2  0  0  0  0
 19 18  1  0  0  0  0
 20 19  2  0  0  0  0
 15 20  1  0  0  0  0
 21 13  2  0  0  0  0
  9 21  1  0  0  0  0
  8 22  1  0  0  0  0
 22 23  3  0  0  0  0
 24  4  1  0  0  0  0
  1 24  1  0  0  0  0
 24 25  1  0  0  0  0
 25 26  2  0  0  0  0
 26 27  1  0  0  0  0
 26 28  1  0  0  0  0
M  END
> <ChemID>
100527

> <CAS>
52918-63-5

> <Original_SMILES>
CC1(C)[C@@H]([C@@H]1C=C(Br)Br)C(=O)O[C@H](C#N)c1cccc(c1)Oc1ccccc1

> <preferred_name>
Deltamethrin

> <dsstox_substance_id>
DTXSID8020381

> <dsstox_compound_id>
DTXCID20381

> <qc_level>
DSSTox_High

> <Canonical_QSARr>
CC1(C)C(C1C=C(Br)Br)C(=O)OC(C#N)C1C=C(C=CC=1)OC1C=CC=CC=1

> <InChI_Code_QSARr>
InChI=1S/C22H19Br2NO3/c1-22(2)17(12-19(23)24)20(22)21(26)28-18(13-25)14-7-6-10-16(11-14)27-15-8-4-3-5-9-15/h3-12,17-18,20H,1-2H3

> <InChI Key_QSARr>
OWZREIFADZCYQD-UHFFFAOYSA-N

> <Salt_Solvent>


> <Salt_Solvent_ID>
0

> <MPID>
102125

> <LogKmHL>
0.51

> <Tr_1_Tst_0>
1

$$$$
100528
  Mrv171c012251910542D          

 11 11  0  0  0  0            999 V2000
    4.2481    0.4875    0.0000 Cl  0  0  0  0  0  0  0  0  0  0  0  0
    3.5336    0.0750    0.0000 C   0  0  0  0  0  0  0  0  0  0  0  0
    2.8191    0.4875    0.0000 C   0  0  0  0  0  0  0  0  0  0  0  0
    2.8191    1.3125    0.0000 Cl  0  0  0  0  0  0  0  0  0  0  0  0
    2.1047    0.0750    0.0000 C   0  0  0  0  0  0  0  0  0  0  0  0
    1.3902    0.4875    0.0000 Cl  0  0  0  0  0  0  0  0  0  0  0  0
    2.1047   -0.7500    0.0000 C   0  0  0  0  0  0  0  0  0  0  0  0
    2.8191   -1.1625    0.0000 C   0  0  0  0  0  0  0  0  0  0  0  0
    3.5336   -0.7500    0.0000 C   0  0  0  0  0  0  0  0  0  0  0  0
    4.2481   -1.1625    0.0000 O   0  0  0  0  0  0  0  0  0  0  0  0
    4.9626   -0.7500    0.0000 C   0  0  0  0  0  0  0  0  0  0  0  0
  1  2  1  0  0  0  0
  3  2  1  0  0  0  0
  3  4  1  0  0  0  0
  5  3  2  0  0  0  0
  5  6  1  0  0  0  0
  7  5  1  0  0  0  0
  8  7  2  0  0  0  0
  9  8  1  0  0  0  0
  2  9  2  0  0  0  0
  9 10  1  0  0  0  0
 10 11  1  0  0  0  0
M  END
> <ChemID>
100528

> <CAS>
54135-80-7

> <Original_SMILES>
COc1ccc(Cl)c(Cl)c1Cl

> <preferred_name>
2,3,4-Trichloroanisole

> <dsstox_substance_id>
DTXSID10202477

> <dsstox_compound_id>
DTXCID10124968

> <qc_level>
Public_Medium

> <Canonical_QSARr>
COC1C=CC(Cl)=C(Cl)C=1Cl

> <InChI_Code_QSARr>
InChI=1S/C7H5Cl3O/c1-11-5-3-2-4(8)6(9)7(5)10/h2-3H,1H3

> <InChI Key_QSARr>
FRQUNVLMWIYOLV-UHFFFAOYSA-N

> <Salt_Solvent>


> <Salt_Solvent_ID>
0

> <MPID>
102126

> <LogKmHL>
1.4

> <Tr_1_Tst_0>
0

$$$$
100529
  Mrv171c012251910542D          

 16 16  0  0  0  0            999 V2000
    2.9424   -2.3512    0.0000 P   0  0  0  0  0  0  0  0  0  0  0  0
    3.6568   -2.7637    0.0000 O   0  0  0  0  0  0  0  0  0  0  0  0
    4.3713   -2.3512    0.0000 C   0  0  0  0  0  0  0  0  0  0  0  0
    3.3549   -1.6368    0.0000 O   0  0  0  0  0  0  0  0  0  0  0  0
    2.9424   -0.9223    0.0000 C   0  0  0  0  0  0  0  0  0  0  0  0
    2.2279   -1.9387    0.0000 O   0  0  0  0  0  0  0  0  0  0  0  0
    1.5134   -2.3512    0.0000 C   0  0  0  0  0  0  0  0  0  0  0  0
    0.7990   -1.9387    0.0000 C   0  0  0  0  0  0  0  0  0  0  0  0
    0.7990   -1.1137    0.0000 Cl  0  0  0  0  0  0  0  0  0  0  0  0
    0.0845   -2.3512    0.0000 C   0  0  0  0  0  0  0  0  0  0  0  0
    0.0845   -3.1762    0.0000 C   0  0  0  0  0  0  0  0  0  0  0  0
   -0.6300   -3.5887    0.0000 C   0  0  0  0  0  0  0  0  0  0  0  0
    0.7990   -3.5887    0.0000 C   0  0  0  0  0  0  0  0  0  0  0  0
    1.5134   -3.1762    0.0000 C   0  0  0  0  0  0  0  0  0  0  0  0
    2.2279   -3.5887    0.0000 Cl  0  0  0  0  0  0  0  0  0  0  0  0
    2.5299   -3.0657    0.0000 S   0  0  0  0  0  0  0  0  0  0  0  0
  1  2  1  0  0  0  0
  2  3  1  0  0  0  0
  1  4  1  0  0  0  0
  4  5  1  0  0  0  0
  1  6  1  0  0  0  0
  6  7  1  0  0  0  0
  8  7  1  0  0  0  0
  8  9  1  0  0  0  0
 10  8  2  0  0  0  0
 11 10  1  0  0  0  0
 11 12  1  0  0  0  0
 13 11  2  0  0  0  0
 14 13  1  0  0  0  0
  7 14  2  0  0  0  0
 14 15  1  0  0  0  0
  1 16  2  0  0  0  0
M  END
> <ChemID>
100529

> <CAS>
57018-04-9

> <Original_SMILES>
Cc1cc(Cl)c(OP(=S)(OC)OC)c(Cl)c1

> <preferred_name>
Tolclofos-methyl

> <dsstox_substance_id>
DTXSID0034776

> <dsstox_compound_id>
DTXCID8014776

> <qc_level>
DSSTox_Low

> <Canonical_QSARr>
CC1C=C(Cl)C(OP(=S)(OC)OC)=C(Cl)C=1

> <InChI_Code_QSARr>
InChI=1S/C9H11Cl2O3PS/c1-6-4-7(10)9(8(11)5-6)14-15(16,12-2)13-3/h4-5H,1-3H3

> <InChI Key_QSARr>
OBZIQQJJIKNWNO-UHFFFAOYSA-N

> <Salt_Solvent>


> <Salt_Solvent_ID>
0

> <MPID>
102127

> <LogKmHL>
-0.11

> <Tr_1_Tst_0>
1

$$$$
100530
  Mrv171c012251910542D          

 12 12  0  0  0  0            999 V2000
    2.5029   -1.8651    0.0000 C   0  0  0  0  0  0  0  0  0  0  0  0
    2.5029   -1.0401    0.0000 C   0  0  0  0  0  0  0  0  0  0  0  0
    1.7884   -0.6276    0.0000 C   0  0  0  0  0  0  0  0  0  0  0  0
    1.7884    0.1974    0.0000 Cl  0  0  0  0  0  0  0  0  0  0  0  0
    1.0739   -1.0401    0.0000 C   0  0  0  0  0  0  0  0  0  0  0  0
    0.3595   -0.6276    0.0000 Cl  0  0  0  0  0  0  0  0  0  0  0  0
    1.0739   -1.8651    0.0000 C   0  0  0  0  0  0  0  0  0  0  0  0
    0.3595   -2.2776    0.0000 Cl  0  0  0  0  0  0  0  0  0  0  0  0
    1.7884   -2.2776    0.0000 C   0  0  0  0  0  0  0  0  0  0  0  0
    1.7884   -3.1026    0.0000 O   0  0  0  0  0  0  0  0  0  0  0  0
    2.5029   -3.5151    0.0000 C   0  0  0  0  0  0  0  0  0  0  0  0
    3.2174   -2.2776    0.0000 O   0  0  0  0  0  0  0  0  0  0  0  0
  2  1  2  0  0  0  0
  3  2  1  0  0  0  0
  3  4  1  0  0  0  0
  5  3  2  0  0  0  0
  5  6  1  0  0  0  0
  7  5  1  0  0  0  0
  7  8  1  0  0  0  0
  9  7  2  0  0  0  0
  1  9  1  0  0  0  0
  9 10  1  0  0  0  0
 10 11  1  0  0  0  0
  1 12  1  0  0  0  0
M  END
> <ChemID>
100530

> <CAS>
57057-83-7

> <Original_SMILES>
COc1c(O)cc(Cl)c(Cl)c1Cl

> <preferred_name>
3,4,5-Trichloro-2-methoxyphenol

> <dsstox_substance_id>
DTXSID7052232

> <dsstox_compound_id>
DTXCID2030803

> <qc_level>
DSSTox_High

> <Canonical_QSARr>
COC1C(O)=CC(Cl)=C(Cl)C=1Cl

> <InChI_Code_QSARr>
InChI=1S/C7H5Cl3O2/c1-12-7-4(11)2-3(8)5(9)6(7)10/h2,11H,1H3

> <InChI Key_QSARr>
RKEHLKXRUVUBJN-UHFFFAOYSA-N

> <Salt_Solvent>


> <Salt_Solvent_ID>
0

> <MPID>
102128

> <LogKmHL>
0.11

> <Tr_1_Tst_0>
1

$$$$
100531
  Mrv171c012251910542D          

 18 20  0  0  0  0            999 V2000
    3.0261   -0.2650    0.0000 O   0  0  0  0  0  0  0  0  0  0  0  0
    3.6935   -0.7500    0.0000 C   0  0  0  0  0  0  0  0  0  0  0  0
    4.5005   -0.5784    0.0000 C   0  0  0  0  0  0  0  0  0  0  0  0
    5.0525   -1.1915    0.0000 C   0  0  0  0  0  0  0  0  0  0  0  0
    5.8595   -1.0200    0.0000 Cl  0  0  0  0  0  0  0  0  0  0  0  0
    4.7976   -1.9762    0.0000 C   0  0  0  0  0  0  0  0  0  0  0  0
    5.3496   -2.5893    0.0000 Cl  0  0  0  0  0  0  0  0  0  0  0  0
    3.9906   -2.1477    0.0000 C   0  0  0  0  0  0  0  0  0  0  0  0
    3.4386   -1.5346    0.0000 C   0  0  0  0  0  0  0  0  0  0  0  0
    2.6136   -1.5346    0.0000 C   0  0  0  0  0  0  0  0  0  0  0  0
    2.0615   -2.1477    0.0000 C   0  0  0  0  0  0  0  0  0  0  0  0
    1.2546   -1.9762    0.0000 C   0  0  0  0  0  0  0  0  0  0  0  0
    0.7025   -2.5893    0.0000 Cl  0  0  0  0  0  0  0  0  0  0  0  0
    0.9996   -1.1915    0.0000 C   0  0  0  0  0  0  0  0  0  0  0  0
    0.1927   -1.0200    0.0000 Cl  0  0  0  0  0  0  0  0  0  0  0  0
    1.5517   -0.5784    0.0000 C   0  0  0  0  0  0  0  0  0  0  0  0
    1.2967    0.2062    0.0000 Cl  0  0  0  0  0  0  0  0  0  0  0  0
    2.3586   -0.7500    0.0000 C   0  0  0  0  0  0  0  0  0  0  0  0
  2  1  1  0  0  0  0
  2  3  1  0  0  0  0
  3  4  2  0  0  0  0
  4  5  1  0  0  0  0
  4  6  1  0  0  0  0
  6  7  1  0  0  0  0
  6  8  2  0  0  0  0
  8  9  1  0  0  0  0
  9  2  2  0  0  0  0
 10  9  1  0  0  0  0
 10 11  1  0  0  0  0
 11 12  2  0  0  0  0
 12 13  1  0  0  0  0
 12 14  1  0  0  0  0
 14 15  1  0  0  0  0
 14 16  2  0  0  0  0
 16 17  1  0  0  0  0
 16 18  1  0  0  0  0
  1 18  1  0  0  0  0
 18 10  2  0  0  0  0
M  END
> <ChemID>
100531

> <CAS>
57117-31-4

> <Original_SMILES>
Clc1c(Cl)c2oc3cc(Cl)c(Cl)cc3c2cc1Cl

> <preferred_name>
2,3,4,7,8-Pentachlorodibenzofuran

> <dsstox_substance_id>
DTXSID7030066

> <dsstox_compound_id>
DTXCID5010066

> <qc_level>
DSSTox_High

> <Canonical_QSARr>
ClC1=C(Cl)C2OC3C=C(Cl)C(Cl)=CC=3C=2C=C1Cl

> <InChI_Code_QSARr>
InChI=1S/C12H3Cl5O/c13-6-1-4-5-2-8(15)10(16)11(17)12(5)18-9(4)3-7(6)14/h1-3H

> <InChI Key_QSARr>
OGBQILNBLMPPDP-UHFFFAOYSA-N

> <Salt_Solvent>


> <Salt_Solvent_ID>
0

> <MPID>
102129

> <LogKmHL>
1.36

> <Tr_1_Tst_0>
1

$$$$
100532
  Mrv171c012251910542D          

 18 20  0  0  0  0            999 V2000
    2.6727   -0.9225    0.0000 O   0  0  0  0  0  0  0  0  0  0  0  0
    3.3401   -1.4074    0.0000 C   0  0  0  0  0  0  0  0  0  0  0  0
    4.1471   -1.2359    0.0000 C   0  0  0  0  0  0  0  0  0  0  0  0
    4.4020   -0.4513    0.0000 Cl  0  0  0  0  0  0  0  0  0  0  0  0
    4.6991   -1.8490    0.0000 C   0  0  0  0  0  0  0  0  0  0  0  0
    5.5061   -1.6774    0.0000 Cl  0  0  0  0  0  0  0  0  0  0  0  0
    4.4442   -2.6336    0.0000 C   0  0  0  0  0  0  0  0  0  0  0  0
    3.6372   -2.8051    0.0000 C   0  0  0  0  0  0  0  0  0  0  0  0
    3.0852   -2.1920    0.0000 C   0  0  0  0  0  0  0  0  0  0  0  0
    2.2602   -2.1920    0.0000 C   0  0  0  0  0  0  0  0  0  0  0  0
    1.7082   -2.8051    0.0000 C   0  0  0  0  0  0  0  0  0  0  0  0
    0.9012   -2.6336    0.0000 C   0  0  0  0  0  0  0  0  0  0  0  0
    0.3492   -3.2467    0.0000 Cl  0  0  0  0  0  0  0  0  0  0  0  0
    0.6463   -1.8490    0.0000 C   0  0  0  0  0  0  0  0  0  0  0  0
   -0.1607   -1.6774    0.0000 Cl  0  0  0  0  0  0  0  0  0  0  0  0
    1.1983   -1.2359    0.0000 C   0  0  0  0  0  0  0  0  0  0  0  0
    0.9433   -0.4513    0.0000 Cl  0  0  0  0  0  0  0  0  0  0  0  0
    2.0053   -1.4074    0.0000 C   0  0  0  0  0  0  0  0  0  0  0  0
  2  1  1  0  0  0  0
  2  3  1  0  0  0  0
  3  4  1  0  0  0  0
  3  5  2  0  0  0  0
  5  6  1  0  0  0  0
  5  7  1  0  0  0  0
  7  8  2  0  0  0  0
  8  9  1  0  0  0  0
  9  2  2  0  0  0  0
 10  9  1  0  0  0  0
 10 11  1  0  0  0  0
 11 12  2  0  0  0  0
 12 13  1  0  0  0  0
 12 14  1  0  0  0  0
 14 15  1  0  0  0  0
 14 16  2  0  0  0  0
 16 17  1  0  0  0  0
 16 18  1  0  0  0  0
  1 18  1  0  0  0  0
 18 10  2  0  0  0  0
M  END
> <ChemID>
100532

> <CAS>
57117-43-8

> <Original_SMILES>
Clc1c2oc3c(ccc(Cl)c3Cl)c2cc(Cl)c1Cl

> <preferred_name>


> <dsstox_substance_id>


> <dsstox_compound_id>


> <qc_level>


> <Canonical_QSARr>
ClC1C=CC2=C(OC3=C2C=C(Cl)C(Cl)=C3Cl)C=1Cl

> <InChI_Code_QSARr>
InChI=1S/C12H3Cl5O/c13-6-2-1-4-5-3-7(14)8(15)10(17)12(5)18-11(4)9(6)16/h1-3H

> <InChI Key_QSARr>
SJFBZRQKGOGHEV-UHFFFAOYSA-N

> <Salt_Solvent>


> <Salt_Solvent_ID>
0

> <MPID>
102130

> <LogKmHL>
0.9

> <Tr_1_Tst_0>
0

$$$$
100533
  Mrv171c012251910542D          

 19 21  0  0  0  0            999 V2000
    2.2840   -1.2589    0.0000 C   0  0  0  0  0  0  0  0  0  0  0  0
    3.0910   -1.4304    0.0000 C   0  0  0  0  0  0  0  0  0  0  0  0
    3.6430   -0.8173    0.0000 Cl  0  0  0  0  0  0  0  0  0  0  0  0
    3.3459   -2.2150    0.0000 C   0  0  0  0  0  0  0  0  0  0  0  0
    4.1529   -2.3865    0.0000 Cl  0  0  0  0  0  0  0  0  0  0  0  0
    2.7939   -2.8281    0.0000 C   0  0  0  0  0  0  0  0  0  0  0  0
    3.0488   -3.6127    0.0000 Cl  0  0  0  0  0  0  0  0  0  0  0  0
    1.9869   -2.6566    0.0000 C   0  0  0  0  0  0  0  0  0  0  0  0
    1.7320   -1.8719    0.0000 C   0  0  0  0  0  0  0  0  0  0  0  0
    0.9070   -1.8719    0.0000 C   0  0  0  0  0  0  0  0  0  0  0  0
    0.3550   -1.2589    0.0000 C   0  0  0  0  0  0  0  0  0  0  0  0
    0.6099   -0.4742    0.0000 Cl  0  0  0  0  0  0  0  0  0  0  0  0
   -0.4520   -1.4304    0.0000 C   0  0  0  0  0  0  0  0  0  0  0  0
   -1.0040   -0.8173    0.0000 Cl  0  0  0  0  0  0  0  0  0  0  0  0
   -0.7070   -2.2150    0.0000 C   0  0  0  0  0  0  0  0  0  0  0  0
   -1.5139   -2.3865    0.0000 Cl  0  0  0  0  0  0  0  0  0  0  0  0
   -0.1549   -2.8281    0.0000 C   0  0  0  0  0  0  0  0  0  0  0  0
    0.6521   -2.6566    0.0000 C   0  0  0  0  0  0  0  0  0  0  0  0
    1.3195   -3.1415    0.0000 O   0  0  0  0  0  0  0  0  0  0  0  0
  2  1  2  0  0  0  0
  2  3  1  0  0  0  0
  4  2  1  0  0  0  0
  4  5  1  0  0  0  0
  6  4  2  0  0  0  0
  6  7  1  0  0  0  0
  8  6  1  0  0  0  0
  8  9  2  0  0  0  0
  1  9  1  0  0  0  0
  9 10  1  0  0  0  0
 11 10  1  0  0  0  0
 11 12  1  0  0  0  0
 13 11  2  0  0  0  0
 13 14  1  0  0  0  0
 15 13  1  0  0  0  0
 15 16  1  0  0  0  0
 17 15  2  0  0  0  0
 18 17  1  0  0  0  0
 10 18  2  0  0  0  0
 18 19  1  0  0  0  0
 19  8  1  0  0  0  0
M  END
> <ChemID>
100533

> <CAS>
57117-44-9

> <Original_SMILES>
Clc1cc2c(oc3cc(Cl)c(Cl)c(Cl)c23)c(Cl)c1Cl

> <preferred_name>
1,2,3,6,7,8-Hexachlorodibenzofuran

> <dsstox_substance_id>
DTXSID2069155

> <dsstox_compound_id>
DTXCID0042169

> <qc_level>
Public_High

> <Canonical_QSARr>
ClC1=CC2=C(OC3C=C(Cl)C(Cl)=C(Cl)C2=3)C(Cl)=C1Cl

> <InChI_Code_QSARr>
InChI=1S/C12H2Cl6O/c13-4-1-3-7-6(2-5(14)8(15)10(7)17)19-12(3)11(18)9(4)16/h1-2H

> <InChI Key_QSARr>
JEYJJJXOFWNEHN-UHFFFAOYSA-N

> <Salt_Solvent>


> <Salt_Solvent_ID>
0

> <MPID>
102131

> <LogKmHL>
1.0

> <Tr_1_Tst_0>
1

$$$$
100534
  Mrv171c012251910542D          

 17 18  0  0  0  0            999 V2000
    2.4687   -1.2714    0.0000 C   0  0  0  0  0  0  0  0  0  0  0  0
    2.4687   -0.4464    0.0000 C   0  0  0  0  0  0  0  0  0  0  0  0
    1.7542   -0.0339    0.0000 C   0  0  0  0  0  0  0  0  0  0  0  0
    1.7542    0.7911    0.0000 Cl  0  0  0  0  0  0  0  0  0  0  0  0
    1.0397   -0.4464    0.0000 C   0  0  0  0  0  0  0  0  0  0  0  0
    0.3252   -0.0339    0.0000 Cl  0  0  0  0  0  0  0  0  0  0  0  0
    1.0397   -1.2714    0.0000 C   0  0  0  0  0  0  0  0  0  0  0  0
    0.3252   -1.6839    0.0000 Cl  0  0  0  0  0  0  0  0  0  0  0  0
    1.7542   -1.6839    0.0000 C   0  0  0  0  0  0  0  0  0  0  0  0
    3.1831   -1.6839    0.0000 C   0  0  0  0  0  0  0  0  0  0  0  0
    3.1831   -2.5089    0.0000 C   0  0  0  0  0  0  0  0  0  0  0  0
    3.8976   -2.9214    0.0000 C   0  0  0  0  0  0  0  0  0  0  0  0
    4.6121   -2.5089    0.0000 C   0  0  0  0  0  0  0  0  0  0  0  0
    5.3265   -2.9214    0.0000 Cl  0  0  0  0  0  0  0  0  0  0  0  0
    4.6121   -1.6839    0.0000 C   0  0  0  0  0  0  0  0  0  0  0  0
    5.3265   -1.2714    0.0000 Cl  0  0  0  0  0  0  0  0  0  0  0  0
    3.8976   -1.2714    0.0000 C   0  0  0  0  0  0  0  0  0  0  0  0
  2  1  1  0  0  0  0
  3  2  2  0  0  0  0
  3  4  1  0  0  0  0
  5  3  1  0  0  0  0
  5  6  1  0  0  0  0
  7  5  2  0  0  0  0
  7  8  1  0  0  0  0
  9  7  1  0  0  0  0
  1  9  2  0  0  0  0
  1 10  1  0  0  0  0
 11 10  1  0  0  0  0
 12 11  2  0  0  0  0
 13 12  1  0  0  0  0
 13 14  1  0  0  0  0
 15 13  2  0  0  0  0
 15 16  1  0  0  0  0
 17 15  1  0  0  0  0
 10 17  2  0  0  0  0
M  END
> <ChemID>
100534

> <CAS>
57465-28-8

> <Original_SMILES>
Clc1ccc(cc1Cl)-c1cc(Cl)c(Cl)c(Cl)c1

> <preferred_name>
3,3',4,4',5-Pentachlorobiphenyl

> <dsstox_substance_id>
DTXSID3032179

> <dsstox_compound_id>
DTXCID9012143

> <qc_level>
DSSTox_Low

> <Canonical_QSARr>
ClC1C=CC(=CC=1Cl)C1=CC(Cl)=C(Cl)C(Cl)=C1

> <InChI_Code_QSARr>
InChI=1S/C12H5Cl5/c13-8-2-1-6(3-9(8)14)7-4-10(15)12(17)11(16)5-7/h1-5H

> <InChI Key_QSARr>
REHONNLQRWTIFF-UHFFFAOYSA-N

> <Salt_Solvent>


> <Salt_Solvent_ID>
0

> <MPID>
102132

> <LogKmHL>
2.4

> <Tr_1_Tst_0>
1

$$$$
100535
  Mrv171c012251910542D          

 20 22  0  0  0  0            999 V2000
    2.1452   -2.0614    0.0000 C   0  0  0  0  0  0  0  0  0  0  0  0
    2.8597   -2.4739    0.0000 O   0  0  0  0  0  0  0  0  0  0  0  0
    3.5741   -2.0614    0.0000 C   0  0  0  0  0  0  0  0  0  0  0  0
    3.5741   -1.2364    0.0000 C   0  0  0  0  0  0  0  0  0  0  0  0
    4.2886   -0.8239    0.0000 C   0  0  0  0  0  0  0  0  0  0  0  0
    4.2886    0.0011    0.0000 Cl  0  0  0  0  0  0  0  0  0  0  0  0
    5.0031   -1.2364    0.0000 C   0  0  0  0  0  0  0  0  0  0  0  0
    5.7176   -0.8239    0.0000 Cl  0  0  0  0  0  0  0  0  0  0  0  0
    5.0031   -2.0614    0.0000 C   0  0  0  0  0  0  0  0  0  0  0  0
    5.7176   -2.4739    0.0000 Cl  0  0  0  0  0  0  0  0  0  0  0  0
    4.2886   -2.4739    0.0000 C   0  0  0  0  0  0  0  0  0  0  0  0
    2.8597   -0.8239    0.0000 O   0  0  0  0  0  0  0  0  0  0  0  0
    2.1452   -1.2364    0.0000 C   0  0  0  0  0  0  0  0  0  0  0  0
    1.4307   -0.8239    0.0000 C   0  0  0  0  0  0  0  0  0  0  0  0
    0.7163   -1.2364    0.0000 C   0  0  0  0  0  0  0  0  0  0  0  0
    0.0018   -0.8239    0.0000 Cl  0  0  0  0  0  0  0  0  0  0  0  0
    0.7163   -2.0614    0.0000 C   0  0  0  0  0  0  0  0  0  0  0  0
    0.0018   -2.4739    0.0000 Cl  0  0  0  0  0  0  0  0  0  0  0  0
    1.4307   -2.4739    0.0000 C   0  0  0  0  0  0  0  0  0  0  0  0
    1.4307   -3.2989    0.0000 Cl  0  0  0  0  0  0  0  0  0  0  0  0
  2  1  1  0  0  0  0
  3  2  1  0  0  0  0
  3  4  2  0  0  0  0
  4  5  1  0  0  0  0
  5  6  1  0  0  0  0
  5  7  2  0  0  0  0
  7  8  1  0  0  0  0
  7  9  1  0  0  0  0
  9 10  1  0  0  0  0
  9 11  2  0  0  0  0
 11  3  1  0  0  0  0
 12  4  1  0  0  0  0
 13 12  1  0  0  0  0
 13  1  1  0  0  0  0
 14 13  2  0  0  0  0
 15 14  1  0  0  0  0
 15 16  1  0  0  0  0
 17 15  2  0  0  0  0
 17 18  1  0  0  0  0
 19 17  1  0  0  0  0
  1 19  2  0  0  0  0
 19 20  1  0  0  0  0
M  END
> <ChemID>
100535

> <CAS>
57653-85-7

> <Original_SMILES>
Clc1cc2Oc3c(cc(Cl)c(Cl)c3Cl)Oc2c(Cl)c1Cl

> <preferred_name>
1,2,3,6,7,8-Hexachlorodibenzo-p-dioxin

> <dsstox_substance_id>
DTXSID0023824

> <dsstox_compound_id>
DTXCID103824

> <qc_level>
DSSTox_Low

> <Canonical_QSARr>
ClC1C=C2OC3=C(C=C(Cl)C(Cl)=C3Cl)OC2=C(Cl)C=1Cl

> <InChI_Code_QSARr>
InChI=1S/C12H2Cl6O2/c13-3-1-5-11(9(17)7(3)15)20-6-2-4(14)8(16)10(18)12(6)19-5/h1-2H

> <InChI Key_QSARr>
YCLUIPQDHHPDJJ-UHFFFAOYSA-N

> <Salt_Solvent>


> <Salt_Solvent_ID>
0

> <MPID>
102133

> <LogKmHL>
1.21

> <Tr_1_Tst_0>
1

$$$$
100536
  Mrv171c012251910542D          

 16 17  0  0  0  0            999 V2000
    2.2490   -1.9061    0.0000 O   0  0  0  0  0  0  0  0  0  0  0  0
    2.2490   -1.0811    0.0000 C   0  0  0  0  0  0  0  0  0  0  0  0
    2.9635   -0.6686    0.0000 C   0  0  0  0  0  0  0  0  0  0  0  0
    2.9635    0.1564    0.0000 C   0  0  0  0  0  0  0  0  0  0  0  0
    2.2490    0.5689    0.0000 C   0  0  0  0  0  0  0  0  0  0  0  0
    2.2490    1.3939    0.0000 Cl  0  0  0  0  0  0  0  0  0  0  0  0
    1.5345    0.1564    0.0000 C   0  0  0  0  0  0  0  0  0  0  0  0
    1.5345   -0.6686    0.0000 C   0  0  0  0  0  0  0  0  0  0  0  0
    2.9635   -2.3186    0.0000 C   0  0  0  0  0  0  0  0  0  0  0  0
    2.9635   -3.1436    0.0000 C   0  0  0  0  0  0  0  0  0  0  0  0
    2.2490   -3.5561    0.0000 Cl  0  0  0  0  0  0  0  0  0  0  0  0
    3.6779   -3.5561    0.0000 C   0  0  0  0  0  0  0  0  0  0  0  0
    4.3924   -3.1436    0.0000 C   0  0  0  0  0  0  0  0  0  0  0  0
    5.1069   -3.5561    0.0000 Cl  0  0  0  0  0  0  0  0  0  0  0  0
    4.3924   -2.3186    0.0000 C   0  0  0  0  0  0  0  0  0  0  0  0
    3.6779   -1.9061    0.0000 C   0  0  0  0  0  0  0  0  0  0  0  0
  1  2  1  0  0  0  0
  3  2  2  0  0  0  0
  4  3  1  0  0  0  0
  5  4  2  0  0  0  0
  5  6  1  0  0  0  0
  7  5  1  0  0  0  0
  8  7  2  0  0  0  0
  2  8  1  0  0  0  0
  1  9  1  0  0  0  0
 10  9  2  0  0  0  0
 10 11  1  0  0  0  0
 12 10  1  0  0  0  0
 13 12  2  0  0  0  0
 13 14  1  0  0  0  0
 15 13  1  0  0  0  0
 16 15  2  0  0  0  0
  9 16  1  0  0  0  0
M  END
> <ChemID>
100536

> <CAS>
59039-21-3

> <Original_SMILES>
Clc1cc(Cl)ccc1Oc1ccc(Cl)cc1

> <preferred_name>


> <dsstox_substance_id>
DTXSID00872042

> <dsstox_compound_id>
DTXCID10819645

> <qc_level>


> <Canonical_QSARr>
ClC1=CC(Cl)=C(C=C1)OC1C=CC(Cl)=CC=1

> <InChI_Code_QSARr>
InChI=1S/C12H7Cl3O/c13-8-1-4-10(5-2-8)16-12-6-3-9(14)7-11(12)15/h1-7H

> <InChI Key_QSARr>
PIORTDHJOLELKR-UHFFFAOYSA-N

> <Salt_Solvent>


> <Salt_Solvent_ID>
0

> <MPID>
102134

> <LogKmHL>
1.72

> <Tr_1_Tst_0>
0

$$$$
100537
  Mrv171c012251910542D          

 15 16  0  0  0  0            999 V2000
    0.7145   -0.9075    0.0000 C   0  0  0  0  0  0  0  0  0  0  0  0
    0.7145   -1.7325    0.0000 C   0  0  0  0  0  0  0  0  0  0  0  0
   -0.0000   -2.1450    0.0000 C   0  0  0  0  0  0  0  0  0  0  0  0
   -0.0000   -2.9700    0.0000 C   0  0  0  0  0  0  0  0  0  0  0  0
    0.7145   -3.3825    0.0000 C   0  0  0  0  0  0  0  0  0  0  0  0
    1.4289   -2.9700    0.0000 C   0  0  0  0  0  0  0  0  0  0  0  0
    1.4289   -2.1450    0.0000 C   0  0  0  0  0  0  0  0  0  0  0  0
    1.4289   -0.4950    0.0000 C   0  0  0  0  0  0  0  0  0  0  0  0
    2.1434   -0.9075    0.0000 Br  0  0  0  0  0  0  0  0  0  0  0  0
    1.4289    0.3300    0.0000 C   0  0  0  0  0  0  0  0  0  0  0  0
    0.7145    0.7425    0.0000 C   0  0  0  0  0  0  0  0  0  0  0  0
    0.7145    1.5675    0.0000 Br  0  0  0  0  0  0  0  0  0  0  0  0
   -0.0000    0.3300    0.0000 C   0  0  0  0  0  0  0  0  0  0  0  0
   -0.0000   -0.4950    0.0000 C   0  0  0  0  0  0  0  0  0  0  0  0
   -0.7145   -0.9075    0.0000 Br  0  0  0  0  0  0  0  0  0  0  0  0
  1  2  1  0  0  0  0
  3  2  1  0  0  0  0
  4  3  2  0  0  0  0
  5  4  1  0  0  0  0
  6  5  2  0  0  0  0
  7  6  1  0  0  0  0
  2  7  2  0  0  0  0
  8  1  1  0  0  0  0
  8  9  1  0  0  0  0
 10  8  2  0  0  0  0
 11 10  1  0  0  0  0
 11 12  1  0  0  0  0
 13 11  2  0  0  0  0
 14 13  1  0  0  0  0
  1 14  2  0  0  0  0
 14 15  1  0  0  0  0
M  END
> <ChemID>
100537

> <CAS>
59080-33-0

> <Original_SMILES>
Brc1cc(Br)c(-c2ccccc2)c(Br)c1

> <preferred_name>
PBB 030

> <dsstox_substance_id>
DTXSID5074767

> <dsstox_compound_id>
DTXCID5042532

> <qc_level>
Public_High

> <Canonical_QSARr>
BrC1C=C(Br)C=C(Br)C=1C1C=CC=CC=1

> <InChI_Code_QSARr>
InChI=1S/C12H7Br3/c13-9-6-10(14)12(11(15)7-9)8-4-2-1-3-5-8/h1-7H

> <InChI Key_QSARr>
YCLZBYQDXVJFII-UHFFFAOYSA-N

> <Salt_Solvent>


> <Salt_Solvent_ID>
0

> <MPID>
102135

> <LogKmHL>
1.25

> <Tr_1_Tst_0>
1

$$$$
100539
  Mrv171c012251910542D          

 18 19  0  0  0  0            999 V2000
    0.3573    1.4438    0.0000 C   0  0  0  0  0  0  0  0  0  0  0  0
   -0.3572    1.8563    0.0000 C   0  0  0  0  0  0  0  0  0  0  0  0
   -0.3572    2.6813    0.0000 Br  0  0  0  0  0  0  0  0  0  0  0  0
   -1.0717    1.4438    0.0000 C   0  0  0  0  0  0  0  0  0  0  0  0
   -1.0717    0.6188    0.0000 C   0  0  0  0  0  0  0  0  0  0  0  0
   -1.7862    0.2063    0.0000 Br  0  0  0  0  0  0  0  0  0  0  0  0
   -0.3572    0.2063    0.0000 C   0  0  0  0  0  0  0  0  0  0  0  0
    0.3573    0.6188    0.0000 C   0  0  0  0  0  0  0  0  0  0  0  0
    1.0717    0.2063    0.0000 Br  0  0  0  0  0  0  0  0  0  0  0  0
    1.0717    1.8563    0.0000 C   0  0  0  0  0  0  0  0  0  0  0  0
    1.7862    1.4438    0.0000 C   0  0  0  0  0  0  0  0  0  0  0  0
    1.7862    0.6188    0.0000 Br  0  0  0  0  0  0  0  0  0  0  0  0
    2.5007    1.8563    0.0000 C   0  0  0  0  0  0  0  0  0  0  0  0
    2.5007    2.6813    0.0000 C   0  0  0  0  0  0  0  0  0  0  0  0
    3.2151    3.0938    0.0000 Br  0  0  0  0  0  0  0  0  0  0  0  0
    1.7862    3.0938    0.0000 C   0  0  0  0  0  0  0  0  0  0  0  0
    1.0717    2.6813    0.0000 C   0  0  0  0  0  0  0  0  0  0  0  0
    0.3573    3.0938    0.0000 Br  0  0  0  0  0  0  0  0  0  0  0  0
  2  1  1  0  0  0  0
  2  3  1  0  0  0  0
  4  2  2  0  0  0  0
  5  4  1  0  0  0  0
  5  6  1  0  0  0  0
  7  5  2  0  0  0  0
  8  7  1  0  0  0  0
  1  8  2  0  0  0  0
  8  9  1  0  0  0  0
  1 10  1  0  0  0  0
 11 10  1  0  0  0  0
 11 12  1  0  0  0  0
 13 11  2  0  0  0  0
 14 13  1  0  0  0  0
 14 15  1  0  0  0  0
 16 14  2  0  0  0  0
 17 16  1  0  0  0  0
 10 17  2  0  0  0  0
 17 18  1  0  0  0  0
M  END
> <ChemID>
100539

> <CAS>
59261-08-4

> <Original_SMILES>
Brc1cc(Br)c(-c2c(Br)cc(Br)cc2Br)c(Br)c1

> <preferred_name>
PBB 155

> <dsstox_substance_id>
DTXSID4074772

> <dsstox_compound_id>
DTXCID5042586

> <qc_level>
Public_High

> <Canonical_QSARr>
BrC1=CC(Br)=C(C2C(Br)=CC(Br)=CC=2Br)C(Br)=C1

> <InChI_Code_QSARr>
InChI=1S/C12H4Br6/c13-5-1-7(15)11(8(16)2-5)12-9(17)3-6(14)4-10(12)18/h1-4H

> <InChI Key_QSARr>
LNFYSRMCCKKDEH-UHFFFAOYSA-N

> <Salt_Solvent>


> <Salt_Solvent_ID>
0

> <MPID>
102136

> <LogKmHL>
2.66

> <Tr_1_Tst_0>
1

$$$$
100541
  Mrv171c012251910542D          

 18 19  0  0  0  0            999 V2000
    3.7414   -2.3473    0.0000 O   0  0  0  0  0  0  0  0  0  0  0  0
    3.0270   -2.7598    0.0000 C   0  0  0  0  0  0  0  0  0  0  0  0
    2.3125   -2.3473    0.0000 C   0  0  0  0  0  0  0  0  0  0  0  0
    2.3125   -1.5223    0.0000 Cl  0  0  0  0  0  0  0  0  0  0  0  0
    1.5980   -2.7598    0.0000 C   0  0  0  0  0  0  0  0  0  0  0  0
    1.5980   -3.5848    0.0000 C   0  0  0  0  0  0  0  0  0  0  0  0
    0.8835   -3.9973    0.0000 Cl  0  0  0  0  0  0  0  0  0  0  0  0
    2.3125   -3.9973    0.0000 C   0  0  0  0  0  0  0  0  0  0  0  0
    3.0270   -3.5848    0.0000 C   0  0  0  0  0  0  0  0  0  0  0  0
    3.7414   -1.5223    0.0000 C   0  0  0  0  0  0  0  0  0  0  0  0
    4.4559   -1.1098    0.0000 C   0  0  0  0  0  0  0  0  0  0  0  0
    5.1704   -1.5223    0.0000 Cl  0  0  0  0  0  0  0  0  0  0  0  0
    4.4559   -0.2848    0.0000 C   0  0  0  0  0  0  0  0  0  0  0  0
    3.7414    0.1277    0.0000 C   0  0  0  0  0  0  0  0  0  0  0  0
    3.7414    0.9527    0.0000 Cl  0  0  0  0  0  0  0  0  0  0  0  0
    3.0270   -0.2848    0.0000 C   0  0  0  0  0  0  0  0  0  0  0  0
    2.3125    0.1277    0.0000 Cl  0  0  0  0  0  0  0  0  0  0  0  0
    3.0270   -1.1098    0.0000 C   0  0  0  0  0  0  0  0  0  0  0  0
  1  2  1  0  0  0  0
  3  2  2  0  0  0  0
  3  4  1  0  0  0  0
  5  3  1  0  0  0  0
  6  5  2  0  0  0  0
  6  7  1  0  0  0  0
  8  6  1  0  0  0  0
  9  8  2  0  0  0  0
  2  9  1  0  0  0  0
  1 10  1  0  0  0  0
 11 10  2  0  0  0  0
 11 12  1  0  0  0  0
 13 11  1  0  0  0  0
 14 13  2  0  0  0  0
 14 15  1  0  0  0  0
 16 14  1  0  0  0  0
 16 17  1  0  0  0  0
 18 16  2  0  0  0  0
 10 18  1  0  0  0  0
M  END
> <ChemID>
100541

> <CAS>
60123-64-0

> <Original_SMILES>
Clc1cc(Cl)c(cc1)Oc1cc(Cl)c(Cl)cc1Cl

> <preferred_name>


> <dsstox_substance_id>


> <dsstox_compound_id>


> <qc_level>


> <Canonical_QSARr>
ClC1=CC(Cl)=C(C=C1)OC1C=C(Cl)C(Cl)=CC=1Cl

> <InChI_Code_QSARr>
InChI=1S/C12H5Cl5O/c13-6-1-2-11(9(16)3-6)18-12-5-8(15)7(14)4-10(12)17/h1-5H

> <InChI Key_QSARr>
AVURWLKSFZBANQ-UHFFFAOYSA-N

> <Salt_Solvent>


> <Salt_Solvent_ID>
0

> <MPID>
102137

> <LogKmHL>
2.02

> <Tr_1_Tst_0>
1

$$$$
100542
  Mrv171c012251910542D          

 17 18  0  0  0  0            999 V2000
    1.4290   -1.6500    0.0000 C   0  0  0  0  0  0  0  0  0  0  0  0
    0.7145   -1.2375    0.0000 C   0  0  0  0  0  0  0  0  0  0  0  0
    0.7145   -0.4125    0.0000 Cl  0  0  0  0  0  0  0  0  0  0  0  0
    0.0000   -1.6500    0.0000 C   0  0  0  0  0  0  0  0  0  0  0  0
    0.0000   -2.4750    0.0000 C   0  0  0  0  0  0  0  0  0  0  0  0
   -0.7145   -2.8875    0.0000 C   0  0  0  0  0  0  0  0  0  0  0  0
   -1.4289   -2.4750    0.0000 C   0  0  0  0  0  0  0  0  0  0  0  0
   -2.1434   -2.8875    0.0000 C   0  0  0  0  0  0  0  0  0  0  0  0
   -2.1434   -3.7125    0.0000 C   0  0  0  0  0  0  0  0  0  0  0  0
   -1.4289   -4.1250    0.0000 C   0  0  0  0  0  0  0  0  0  0  0  0
   -1.4289   -4.9500    0.0000 Cl  0  0  0  0  0  0  0  0  0  0  0  0
   -0.7145   -3.7125    0.0000 C   0  0  0  0  0  0  0  0  0  0  0  0
    0.0000   -4.1250    0.0000 Cl  0  0  0  0  0  0  0  0  0  0  0  0
    0.7145   -2.8875    0.0000 C   0  0  0  0  0  0  0  0  0  0  0  0
    0.7145   -3.7125    0.0000 Cl  0  0  0  0  0  0  0  0  0  0  0  0
    1.4290   -2.4750    0.0000 C   0  0  0  0  0  0  0  0  0  0  0  0
    2.1434   -2.8875    0.0000 Cl  0  0  0  0  0  0  0  0  0  0  0  0
  2  1  1  0  0  0  0
  2  3  1  0  0  0  0
  4  2  2  0  0  0  0
  5  4  1  0  0  0  0
  5  6  1  0  0  0  0
  7  6  1  0  0  0  0
  8  7  2  0  0  0  0
  9  8  1  0  0  0  0
 10  9  2  0  0  0  0
 10 11  1  0  0  0  0
 12 10  1  0  0  0  0
  6 12  2  0  0  0  0
 12 13  1  0  0  0  0
 14  5  2  0  0  0  0
 14 15  1  0  0  0  0
 16 14  1  0  0  0  0
  1 16  2  0  0  0  0
 16 17  1  0  0  0  0
M  END
> <ChemID>
100542

> <CAS>
60145-20-2

> <Original_SMILES>
Clc1cc(-c2cccc(Cl)c2Cl)c(Cl)c(Cl)c1

> <preferred_name>
2,2',3,3',5-Pentachlorobiphenyl

> <dsstox_substance_id>
DTXSID0074188

> <dsstox_compound_id>
DTXCID3042764

> <qc_level>
Public_High

> <Canonical_QSARr>
ClC1=CC(Cl)=CC(C2C=CC=C(Cl)C=2Cl)=C1Cl

> <InChI_Code_QSARr>
InChI=1S/C12H5Cl5/c13-6-4-8(12(17)10(15)5-6)7-2-1-3-9(14)11(7)16/h1-5H

> <InChI Key_QSARr>
SUBRHHYLRGOTHL-UHFFFAOYSA-N

> <Salt_Solvent>


> <Salt_Solvent_ID>
0

> <MPID>
102138

> <LogKmHL>
2.44

> <Tr_1_Tst_0>
0

$$$$
100543
  Mrv171c012251910542D          

 19 20  0  0  0  0            999 V2000
    2.7827   -4.5594    0.0000 C   0  0  0  0  0  0  0  0  0  0  0  0
    3.4972   -4.9719    0.0000 Cl  0  0  0  0  0  0  0  0  0  0  0  0
    2.7827   -3.7344    0.0000 C   0  0  0  0  0  0  0  0  0  0  0  0
    2.0682   -3.3219    0.0000 C   0  0  0  0  0  0  0  0  0  0  0  0
    2.0682   -2.4969    0.0000 Cl  0  0  0  0  0  0  0  0  0  0  0  0
    1.3538   -3.7344    0.0000 C   0  0  0  0  0  0  0  0  0  0  0  0
    0.6393   -3.3219    0.0000 C   0  0  0  0  0  0  0  0  0  0  0  0
    0.6393   -2.4969    0.0000 C   0  0  0  0  0  0  0  0  0  0  0  0
   -0.0752   -2.0844    0.0000 C   0  0  0  0  0  0  0  0  0  0  0  0
   -0.0752   -1.2594    0.0000 Cl  0  0  0  0  0  0  0  0  0  0  0  0
   -0.7897   -2.4969    0.0000 C   0  0  0  0  0  0  0  0  0  0  0  0
   -1.5041   -2.0844    0.0000 Cl  0  0  0  0  0  0  0  0  0  0  0  0
   -0.7897   -3.3219    0.0000 C   0  0  0  0  0  0  0  0  0  0  0  0
   -1.5041   -3.7344    0.0000 Cl  0  0  0  0  0  0  0  0  0  0  0  0
   -0.0752   -3.7344    0.0000 C   0  0  0  0  0  0  0  0  0  0  0  0
   -0.0752   -4.5594    0.0000 Cl  0  0  0  0  0  0  0  0  0  0  0  0
    1.3538   -4.5594    0.0000 C   0  0  0  0  0  0  0  0  0  0  0  0
    0.6393   -4.9719    0.0000 Cl  0  0  0  0  0  0  0  0  0  0  0  0
    2.0682   -4.9719    0.0000 C   0  0  0  0  0  0  0  0  0  0  0  0
  1  2  1  0  0  0  0
  3  1  1  0  0  0  0
  4  3  2  0  0  0  0
  4  5  1  0  0  0  0
  6  4  1  0  0  0  0
  6  7  1  0  0  0  0
  8  7  1  0  0  0  0
  9  8  2  0  0  0  0
  9 10  1  0  0  0  0
 11  9  1  0  0  0  0
 11 12  1  0  0  0  0
 13 11  2  0  0  0  0
 13 14  1  0  0  0  0
 15 13  1  0  0  0  0
  7 15  2  0  0  0  0
 15 16  1  0  0  0  0
 17  6  2  0  0  0  0
 17 18  1  0  0  0  0
 19 17  1  0  0  0  0
  1 19  2  0  0  0  0
M  END
> <ChemID>
100543

> <CAS>
60145-23-5

> <Original_SMILES>
Clc1cc(Cl)c(-c2cc(Cl)c(Cl)c(Cl)c2Cl)c(Cl)c1

> <preferred_name>
2,2',3,4,4',5,6'-Heptachlorobiphenyl

> <dsstox_substance_id>
DTXSID9074191

> <dsstox_compound_id>
DTXCID8042767

> <qc_level>
Public_High

> <Canonical_QSARr>
ClC1C=C(Cl)C=C(Cl)C=1C1C=C(Cl)C(Cl)=C(Cl)C=1Cl

> <InChI_Code_QSARr>
InChI=1S/C12H3Cl7/c13-4-1-6(14)9(7(15)2-4)5-3-8(16)11(18)12(19)10(5)17/h1-3H

> <InChI Key_QSARr>
RXRLRYZUMSYVLS-UHFFFAOYSA-N

> <Salt_Solvent>


> <Salt_Solvent_ID>
0

> <MPID>
102139

> <LogKmHL>
2.51

> <Tr_1_Tst_0>
1

$$$$
100544
  Mrv171c012251910542D          

 22 24  0  0  0  0            999 V2000
    2.9398   -1.8952    0.0000 C   0  0  0  0  0  0  0  0  0  0  0  0
    3.7648   -1.8952    0.0000 O   0  0  0  0  0  0  0  0  0  0  0  0
    2.9398   -1.0702    0.0000 C   0  0  0  0  0  0  0  0  0  0  0  0
    3.6543   -0.6577    0.0000 C   0  0  0  0  0  0  0  0  0  0  0  0
    3.6543    0.1673    0.0000 C   0  0  0  0  0  0  0  0  0  0  0  0
    2.9398    0.5798    0.0000 C   0  0  0  0  0  0  0  0  0  0  0  0
    2.9398    1.4048    0.0000 Cl  0  0  0  0  0  0  0  0  0  0  0  0
    2.2254    0.1673    0.0000 C   0  0  0  0  0  0  0  0  0  0  0  0
    2.2254   -0.6577    0.0000 C   0  0  0  0  0  0  0  0  0  0  0  0
    2.1148   -1.8952    0.0000 C   0  0  0  0  0  0  0  0  0  0  0  0
    1.7023   -1.1807    0.0000 C   0  0  0  0  0  0  0  0  0  0  0  0
    0.8773   -1.1807    0.0000 N   0  0  0  0  0  0  0  0  0  0  0  0
    0.4648   -1.8952    0.0000 C   0  0  0  0  0  0  0  0  0  0  0  0
    0.8773   -2.6097    0.0000 N   0  0  0  0  0  0  0  0  0  0  0  0
    1.7023   -2.6097    0.0000 C   0  0  0  0  0  0  0  0  0  0  0  0
    2.9398   -2.7202    0.0000 C   0  0  0  0  0  0  0  0  0  0  0  0
    2.2254   -3.1327    0.0000 C   0  0  0  0  0  0  0  0  0  0  0  0
    2.2254   -3.9577    0.0000 C   0  0  0  0  0  0  0  0  0  0  0  0
    2.9398   -4.3702    0.0000 C   0  0  0  0  0  0  0  0  0  0  0  0
    3.6543   -3.9577    0.0000 C   0  0  0  0  0  0  0  0  0  0  0  0
    3.6543   -3.1327    0.0000 C   0  0  0  0  0  0  0  0  0  0  0  0
    4.3688   -2.7202    0.0000 Cl  0  0  0  0  0  0  0  0  0  0  0  0
  1  2  1  0  0  0  0
  1  3  1  0  0  0  0
  4  3  1  0  0  0  0
  5  4  2  0  0  0  0
  6  5  1  0  0  0  0
  6  7  1  0  0  0  0
  8  6  2  0  0  0  0
  9  8  1  0  0  0  0
  3  9  2  0  0  0  0
  1 10  1  0  0  0  0
 11 10  1  0  0  0  0
 12 11  2  0  0  0  0
 13 12  1  0  0  0  0
 14 13  2  0  0  0  0
 15 14  1  0  0  0  0
 10 15  2  0  0  0  0
  1 16  1  0  0  0  0
 17 16  2  0  0  0  0
 18 17  1  0  0  0  0
 19 18  2  0  0  0  0
 20 19  1  0  0  0  0
 21 20  2  0  0  0  0
 16 21  1  0  0  0  0
 21 22  1  0  0  0  0
M  END
> <ChemID>
100544

> <CAS>
60168-88-9

> <Original_SMILES>
OC(c1ccccc1Cl)(c1ccc(Cl)cc1)c1c[n]c[n]c1

> <preferred_name>
Fenarimol

> <dsstox_substance_id>
DTXSID2032390

> <dsstox_compound_id>
DTXCID0012390

> <qc_level>
DSSTox_Low

> <Canonical_QSARr>
OC(C1=CC=CC=C1Cl)(C1C=CC(Cl)=CC=1)C1C=NC=NC=1

> <InChI_Code_QSARr>
InChI=1S/C17H12Cl2N2O/c18-14-7-5-12(6-8-14)17(22,13-9-20-11-21-10-13)15-3-1-2-4-16(15)19/h1-11,22H

> <InChI Key_QSARr>
NHOWDZOIZKMVAI-UHFFFAOYSA-N

> <Salt_Solvent>


> <Salt_Solvent_ID>
0

> <MPID>
102140

> <LogKmHL>
0.57

> <Tr_1_Tst_0>
1

$$$$
100545
  Mrv171c012251910542D          

 22 24  0  0  0  0            999 V2000
    3.2343   -2.9170    0.0000 C   0  0  0  0  0  0  0  0  0  0  0  0
    2.5668   -3.4019    0.0000 O   0  0  0  0  0  0  0  0  0  0  0  0
    2.8218   -4.1865    0.0000 C   0  0  0  0  0  0  0  0  0  0  0  0
    3.6468   -4.1865    0.0000 C   0  0  0  0  0  0  0  0  0  0  0  0
    4.1317   -4.8539    0.0000 C   0  0  0  0  0  0  0  0  0  0  0  0
    3.7961   -5.6076    0.0000 C   0  0  0  0  0  0  0  0  0  0  0  0
    4.2811   -6.2751    0.0000 C   0  0  0  0  0  0  0  0  0  0  0  0
    3.9017   -3.4019    0.0000 O   0  0  0  0  0  0  0  0  0  0  0  0
    2.8293   -2.1982    0.0000 C   0  0  0  0  0  0  0  0  0  0  0  0
    2.0043   -2.1896    0.0000 N   0  0  0  0  0  0  0  0  0  0  0  0
    1.5264   -1.5171    0.0000 N   0  0  0  0  0  0  0  0  0  0  0  0
    0.7392   -1.7638    0.0000 C   0  0  0  0  0  0  0  0  0  0  0  0
    0.7305   -2.5888    0.0000 N   0  0  0  0  0  0  0  0  0  0  0  0
    1.5124   -2.8519    0.0000 C   0  0  0  0  0  0  0  0  0  0  0  0
    3.6393   -2.1982    0.0000 C   0  0  0  0  0  0  0  0  0  0  0  0
    4.4642   -2.1896    0.0000 C   0  0  0  0  0  0  0  0  0  0  0  0
    4.8692   -1.4708    0.0000 C   0  0  0  0  0  0  0  0  0  0  0  0
    4.4493   -0.7607    0.0000 C   0  0  0  0  0  0  0  0  0  0  0  0
    4.8543   -0.0420    0.0000 Cl  0  0  0  0  0  0  0  0  0  0  0  0
    3.6243   -0.7693    0.0000 C   0  0  0  0  0  0  0  0  0  0  0  0
    3.2193   -1.4881    0.0000 C   0  0  0  0  0  0  0  0  0  0  0  0
    2.3944   -1.4967    0.0000 Cl  0  0  0  0  0  0  0  0  0  0  0  0
  2  1  1  0  0  0  0
  3  2  1  0  0  0  0
  4  3  1  0  0  0  0
  4  5  1  0  0  0  0
  5  6  1  0  0  0  0
  6  7  1  0  0  0  0
  8  4  1  0  0  0  0
  1  8  1  0  0  0  0
  1  9  1  0  0  0  0
  9 10  1  0  0  0  0
 11 10  1  0  0  0  0
 12 11  2  0  0  0  0
 13 12  1  0  0  0  0
 14 13  2  0  0  0  0
 10 14  1  0  0  0  0
  1 15  1  0  0  0  0
 16 15  1  0  0  0  0
 17 16  2  0  0  0  0
 18 17  1  0  0  0  0
 18 19  1  0  0  0  0
 20 18  2  0  0  0  0
 21 20  1  0  0  0  0
 15 21  2  0  0  0  0
 21 22  1  0  0  0  0
M  END
> <ChemID>
100545

> <CAS>
60207-90-1

> <Original_SMILES>
CCCC1COC(C[n]2c[n]c[n]2)(O1)c1ccc(Cl)cc1Cl

> <preferred_name>
Propiconazole

> <dsstox_substance_id>
DTXSID8024280

> <dsstox_compound_id>
DTXCID204280

> <qc_level>
DSSTox_Low

> <Canonical_QSARr>
CCCC1COC(CN2C=NC=N2)(O1)C1C=CC(Cl)=CC=1Cl

> <InChI_Code_QSARr>
InChI=1S/C15H17Cl2N3O2/c1-2-3-12-7-21-15(22-12,8-20-10-18-9-19-20)13-5-4-11(16)6-14(13)17/h4-6,9-10,12H,2-3,7-8H2,1H3

> <InChI Key_QSARr>
STJLVHWMYQXCPB-UHFFFAOYSA-N

> <Salt_Solvent>


> <Salt_Solvent_ID>
0

> <MPID>
102141

> <LogKmHL>
0.7

> <Tr_1_Tst_0>
1

$$$$
100546
  Mrv171c012251910542D          

 18 19  0  0  0  0            999 V2000
    5.6442   -2.6228    0.0000 Br  0  0  0  0  0  0  0  0  0  0  0  0
    4.9298   -2.2103    0.0000 C   0  0  0  0  0  0  0  0  0  0  0  0
    4.9298   -1.3853    0.0000 C   0  0  0  0  0  0  0  0  0  0  0  0
    4.2153   -0.9728    0.0000 C   0  0  0  0  0  0  0  0  0  0  0  0
    4.2153   -0.1478    0.0000 Br  0  0  0  0  0  0  0  0  0  0  0  0
    3.5008   -1.3853    0.0000 C   0  0  0  0  0  0  0  0  0  0  0  0
    2.7864   -0.9728    0.0000 O   0  0  0  0  0  0  0  0  0  0  0  0
    2.0719   -1.3853    0.0000 C   0  0  0  0  0  0  0  0  0  0  0  0
    1.3574   -0.9728    0.0000 C   0  0  0  0  0  0  0  0  0  0  0  0
    1.3574   -0.1478    0.0000 Br  0  0  0  0  0  0  0  0  0  0  0  0
    0.6429   -1.3853    0.0000 C   0  0  0  0  0  0  0  0  0  0  0  0
    0.6429   -2.2103    0.0000 C   0  0  0  0  0  0  0  0  0  0  0  0
   -0.0715   -2.6228    0.0000 Br  0  0  0  0  0  0  0  0  0  0  0  0
    1.3574   -2.6228    0.0000 C   0  0  0  0  0  0  0  0  0  0  0  0
    1.3574   -3.4478    0.0000 Br  0  0  0  0  0  0  0  0  0  0  0  0
    2.0719   -2.2103    0.0000 C   0  0  0  0  0  0  0  0  0  0  0  0
    3.5008   -2.2103    0.0000 C   0  0  0  0  0  0  0  0  0  0  0  0
    4.2153   -2.6228    0.0000 C   0  0  0  0  0  0  0  0  0  0  0  0
  1  2  1  0  0  0  0
  3  2  2  0  0  0  0
  4  3  1  0  0  0  0
  4  5  1  0  0  0  0
  6  4  2  0  0  0  0
  6  7  1  0  0  0  0
  7  8  1  0  0  0  0
  9  8  2  0  0  0  0
  9 10  1  0  0  0  0
 11  9  1  0  0  0  0
 12 11  2  0  0  0  0
 12 13  1  0  0  0  0
 14 12  1  0  0  0  0
 14 15  1  0  0  0  0
 16 14  2  0  0  0  0
  8 16  1  0  0  0  0
 17  6  1  0  0  0  0
 18 17  2  0  0  0  0
  2 18  1  0  0  0  0
M  END
> <ChemID>
100546

> <CAS>
60348-60-9

> <Original_SMILES>
Brc1cc(Br)c(cc1)Oc1cc(Br)c(Br)cc1Br

> <preferred_name>
2,2',4,4',5-Pentabromodiphenyl ether

> <dsstox_substance_id>
DTXSID9030048

> <dsstox_compound_id>
DTXCID404246

> <qc_level>
DSSTox_High

> <Canonical_QSARr>
BrC1=CC(Br)=C(C=C1)OC1C=C(Br)C(Br)=CC=1Br

> <InChI_Code_QSARr>
InChI=1S/C12H5Br5O/c13-6-1-2-11(9(16)3-6)18-12-5-8(15)7(14)4-10(12)17/h1-5H

> <InChI Key_QSARr>
WHPVYXDFIXRKLN-UHFFFAOYSA-N

> <Salt_Solvent>


> <Salt_Solvent_ID>
0

> <MPID>
102142

> <LogKmHL>
1.95

> <Tr_1_Tst_0>
0

$$$$
100547
  Mrv171c012251910542D          

 20 19  0  0  0  0            999 V2000
    0.9004   -4.2537    0.0000 Si  0  0  0  0  0  0  0  0  0  0  0  0
    1.3129   -4.9682    0.0000 C   0  0  0  0  0  0  0  0  0  0  0  0
    2.1379   -4.9682    0.0000 C   0  0  0  0  0  0  0  0  0  0  0  0
    2.5504   -5.6826    0.0000 C   0  0  0  0  0  0  0  0  0  0  0  0
    3.3754   -5.6826    0.0000 C   0  0  0  0  0  0  0  0  0  0  0  0
    3.7879   -6.3971    0.0000 C   0  0  0  0  0  0  0  0  0  0  0  0
    4.6129   -6.3971    0.0000 C   0  0  0  0  0  0  0  0  0  0  0  0
    0.4879   -3.5392    0.0000 C   0  0  0  0  0  0  0  0  0  0  0  0
   -0.3371   -3.5392    0.0000 C   0  0  0  0  0  0  0  0  0  0  0  0
   -0.7496   -2.8247    0.0000 C   0  0  0  0  0  0  0  0  0  0  0  0
   -1.5746   -2.8247    0.0000 C   0  0  0  0  0  0  0  0  0  0  0  0
   -1.9871   -2.1103    0.0000 C   0  0  0  0  0  0  0  0  0  0  0  0
   -2.8121   -2.1103    0.0000 C   0  0  0  0  0  0  0  0  0  0  0  0
    1.6149   -3.8412    0.0000 C   0  0  0  0  0  0  0  0  0  0  0  0
    1.6149   -3.0162    0.0000 C   0  0  0  0  0  0  0  0  0  0  0  0
    2.3293   -2.6037    0.0000 C   0  0  0  0  0  0  0  0  0  0  0  0
    3.0438   -3.0162    0.0000 C   0  0  0  0  0  0  0  0  0  0  0  0
    3.7583   -2.6037    0.0000 C   0  0  0  0  0  0  0  0  0  0  0  0
    4.4728   -3.0162    0.0000 C   0  0  0  0  0  0  0  0  0  0  0  0
    0.1859   -4.6662    0.0000 O   0  0  0  0  0  0  0  0  0  0  0  0
  1  2  1  0  0  0  0
  2  3  1  0  0  0  0
  3  4  1  0  0  0  0
  4  5  1  0  0  0  0
  5  6  1  0  0  0  0
  6  7  1  0  0  0  0
  1  8  1  0  0  0  0
  8  9  1  0  0  0  0
  9 10  1  0  0  0  0
 10 11  1  0  0  0  0
 11 12  1  0  0  0  0
 12 13  1  0  0  0  0
  1 14  1  0  0  0  0
 14 15  1  0  0  0  0
 15 16  1  0  0  0  0
 16 17  1  0  0  0  0
 17 18  1  0  0  0  0
 18 19  1  0  0  0  0
  1 20  1  0  0  0  0
M  END
> <ChemID>
100547

> <CAS>
60782-58-3

> <Original_SMILES>
CCCCCC[Si](O)(CCCCCC)CCCCCC

> <preferred_name>


> <dsstox_substance_id>
DTXSID30878375

> <dsstox_compound_id>
DTXCID801016424

> <qc_level>


> <Canonical_QSARr>
CCCCCC[Si](O)(CCCCCC)CCCCCC

> <InChI_Code_QSARr>
InChI=1S/C18H40OSi/c1-4-7-10-13-16-20(19,17-14-11-8-5-2)18-15-12-9-6-3/h19H,4-18H2,1-3H3

> <InChI Key_QSARr>
NOVLNRUYLAGEMC-UHFFFAOYSA-N

> <Salt_Solvent>


> <Salt_Solvent_ID>
0

> <MPID>
102143

> <LogKmHL>
0.04

> <Tr_1_Tst_0>
1

$$$$
100548
  Mrv171c012251910542D          

 19 21  0  0  0  0            999 V2000
    2.1638   -1.9221    0.0000 C   0  0  0  0  0  0  0  0  0  0  0  0
    2.8313   -2.4070    0.0000 O   0  0  0  0  0  0  0  0  0  0  0  0
    3.4987   -1.9221    0.0000 C   0  0  0  0  0  0  0  0  0  0  0  0
    4.3057   -2.0936    0.0000 C   0  0  0  0  0  0  0  0  0  0  0  0
    4.8577   -1.4805    0.0000 C   0  0  0  0  0  0  0  0  0  0  0  0
    4.6028   -0.6959    0.0000 C   0  0  0  0  0  0  0  0  0  0  0  0
    3.7958   -0.5244    0.0000 C   0  0  0  0  0  0  0  0  0  0  0  0
    3.2438   -1.1375    0.0000 C   0  0  0  0  0  0  0  0  0  0  0  0
    2.4188   -1.1375    0.0000 C   0  0  0  0  0  0  0  0  0  0  0  0
    1.8667   -0.5244    0.0000 C   0  0  0  0  0  0  0  0  0  0  0  0
    1.0598   -0.6959    0.0000 C   0  0  0  0  0  0  0  0  0  0  0  0
    0.5077   -0.0828    0.0000 Cl  0  0  0  0  0  0  0  0  0  0  0  0
    0.8048   -1.4805    0.0000 C   0  0  0  0  0  0  0  0  0  0  0  0
   -0.0021   -1.6521    0.0000 Cl  0  0  0  0  0  0  0  0  0  0  0  0
    1.3569   -2.0936    0.0000 C   0  0  0  0  0  0  0  0  0  0  0  0
    1.1019   -2.8782    0.0000 Cl  0  0  0  0  0  0  0  0  0  0  0  0
    5.1548   -0.0828    0.0000 Cl  0  0  0  0  0  0  0  0  0  0  0  0
    5.6647   -1.6521    0.0000 Cl  0  0  0  0  0  0  0  0  0  0  0  0
    4.5606   -2.8782    0.0000 Cl  0  0  0  0  0  0  0  0  0  0  0  0
  2  1  1  0  0  0  0
  3  2  1  0  0  0  0
  3  4  1  0  0  0  0
  4  5  2  0  0  0  0
  5  6  1  0  0  0  0
  6  7  2  0  0  0  0
  7  8  1  0  0  0  0
  8  3  2  0  0  0  0
  9  8  1  0  0  0  0
  9  1  1  0  0  0  0
 10  9  2  0  0  0  0
 11 10  1  0  0  0  0
 11 12  1  0  0  0  0
 13 11  2  0  0  0  0
 13 14  1  0  0  0  0
 15 13  1  0  0  0  0
  1 15  2  0  0  0  0
 15 16  1  0  0  0  0
  6 17  1  0  0  0  0
  5 18  1  0  0  0  0
  4 19  1  0  0  0  0
M  END
> <ChemID>
100548

> <CAS>
60851-34-5

> <Original_SMILES>
Clc1cc2c(oc3c2cc(Cl)c(Cl)c3Cl)c(Cl)c1Cl

> <preferred_name>
2,3,4,6,7,8-Hexachlorodibenzo[b,d]furan

> <dsstox_substance_id>
DTXSID3052276

> <dsstox_compound_id>
DTXCID3030848

> <qc_level>
DSSTox_High

> <Canonical_QSARr>
ClC1C=C2C(OC3=C2C=C(Cl)C(Cl)=C3Cl)=C(Cl)C=1Cl

> <InChI_Code_QSARr>
InChI=1S/C12H2Cl6O/c13-5-1-3-4-2-6(14)8(16)10(18)12(4)19-11(3)9(17)7(5)15/h1-2H

> <InChI Key_QSARr>
XTAHLACQOVXINQ-UHFFFAOYSA-N

> <Salt_Solvent>


> <Salt_Solvent_ID>
0

> <MPID>
102144

> <LogKmHL>
1.12

> <Tr_1_Tst_0>
1

$$$$
100549
  Mrv171c012251910542D          

 17 18  0  0  0  0            999 V2000
    4.5080    0.4853    0.0000 Cl  0  0  0  0  0  0  0  0  0  0  0  0
    3.7935    0.8978    0.0000 C   0  0  0  0  0  0  0  0  0  0  0  0
    3.7935    1.7228    0.0000 C   0  0  0  0  0  0  0  0  0  0  0  0
    3.0790    2.1353    0.0000 C   0  0  0  0  0  0  0  0  0  0  0  0
    3.0790    2.9603    0.0000 Cl  0  0  0  0  0  0  0  0  0  0  0  0
    2.3646    1.7228    0.0000 C   0  0  0  0  0  0  0  0  0  0  0  0
    1.6501    2.1353    0.0000 Cl  0  0  0  0  0  0  0  0  0  0  0  0
    2.3646    0.8978    0.0000 C   0  0  0  0  0  0  0  0  0  0  0  0
    3.0790    0.4853    0.0000 C   0  0  0  0  0  0  0  0  0  0  0  0
    3.0790   -0.3397    0.0000 O   0  0  0  0  0  0  0  0  0  0  0  0
    3.7935   -0.7522    0.0000 C   0  0  0  0  0  0  0  0  0  0  0  0
    3.7935   -1.5772    0.0000 C   0  0  0  0  0  0  0  0  0  0  0  0
    4.5080   -1.9897    0.0000 C   0  0  0  0  0  0  0  0  0  0  0  0
    5.2224   -1.5772    0.0000 C   0  0  0  0  0  0  0  0  0  0  0  0
    5.9369   -1.9897    0.0000 Cl  0  0  0  0  0  0  0  0  0  0  0  0
    5.2224   -0.7522    0.0000 C   0  0  0  0  0  0  0  0  0  0  0  0
    4.5080   -0.3397    0.0000 C   0  0  0  0  0  0  0  0  0  0  0  0
  1  2  1  0  0  0  0
  3  2  2  0  0  0  0
  4  3  1  0  0  0  0
  4  5  1  0  0  0  0
  6  4  2  0  0  0  0
  6  7  1  0  0  0  0
  8  6  1  0  0  0  0
  9  8  2  0  0  0  0
  2  9  1  0  0  0  0
  9 10  1  0  0  0  0
 10 11  1  0  0  0  0
 12 11  1  0  0  0  0
 13 12  2  0  0  0  0
 14 13  1  0  0  0  0
 14 15  1  0  0  0  0
 16 14  2  0  0  0  0
 17 16  1  0  0  0  0
 11 17  2  0  0  0  0
M  END
> <ChemID>
100549

> <CAS>
61328-45-8

> <Original_SMILES>
Clc1ccc(cc1)Oc1cc(Cl)c(Cl)cc1Cl

> <preferred_name>
2,4,4',5-Tetrachlorodiphenyl ether

> <dsstox_substance_id>
DTXSID40210242

> <dsstox_compound_id>
DTXCID40132733

> <qc_level>
Public_Medium

> <Canonical_QSARr>
ClC1C=CC(=CC=1)OC1=CC(Cl)=C(Cl)C=C1Cl

> <InChI_Code_QSARr>
InChI=1S/C12H6Cl4O/c13-7-1-3-8(4-2-7)17-12-6-10(15)9(14)5-11(12)16/h1-6H

> <InChI Key_QSARr>
KXOJXWNARBQHNX-UHFFFAOYSA-N

> <Salt_Solvent>


> <Salt_Solvent_ID>
0

> <MPID>
102145

> <LogKmHL>
1.93

> <Tr_1_Tst_0>
1

$$$$
100550
  Mrv171c012251910542D          

 26 28  0  0  0  0            999 V2000
    2.8410    0.6505    0.0000 C   0  0  0  0  0  0  0  0  0  0  0  0
    2.2090    1.1808    0.0000 C   0  0  0  0  0  0  0  0  0  0  0  0
    3.4730    1.1808    0.0000 C   0  0  0  0  0  0  0  0  0  0  0  0
    2.4285   -0.0640    0.0000 C   0  0  0  0  0  0  0  0  0  0  0  0
    1.7140   -0.4765    0.0000 C   0  0  0  0  0  0  0  0  0  0  0  0
    1.7140   -1.3015    0.0000 O   0  0  0  0  0  0  0  0  0  0  0  0
    0.9996   -0.0640    0.0000 O   0  0  0  0  0  0  0  0  0  0  0  0
    0.2851   -0.4765    0.0000 C   0  0  0  0  0  0  0  0  0  0  0  0
   -0.4294   -0.0640    0.0000 C   0  0  0  0  0  0  0  0  0  0  0  0
   -0.4294    0.7610    0.0000 C   0  0  0  0  0  0  0  0  0  0  0  0
   -1.1438    1.1735    0.0000 C   0  0  0  0  0  0  0  0  0  0  0  0
   -1.8583    0.7610    0.0000 C   0  0  0  0  0  0  0  0  0  0  0  0
   -1.8583   -0.0640    0.0000 C   0  0  0  0  0  0  0  0  0  0  0  0
   -2.5728   -0.4765    0.0000 O   0  0  0  0  0  0  0  0  0  0  0  0
   -3.2873   -0.0640    0.0000 C   0  0  0  0  0  0  0  0  0  0  0  0
   -3.2873    0.7610    0.0000 C   0  0  0  0  0  0  0  0  0  0  0  0
   -4.0017    1.1735    0.0000 C   0  0  0  0  0  0  0  0  0  0  0  0
   -4.7162    0.7610    0.0000 C   0  0  0  0  0  0  0  0  0  0  0  0
   -4.7162   -0.0640    0.0000 C   0  0  0  0  0  0  0  0  0  0  0  0
   -4.0017   -0.4765    0.0000 C   0  0  0  0  0  0  0  0  0  0  0  0
   -1.1438   -0.4765    0.0000 C   0  0  0  0  0  0  0  0  0  0  0  0
    3.2535   -0.0640    0.0000 C   0  0  0  0  0  0  0  0  0  0  0  0
    3.9680   -0.4765    0.0000 C   0  0  0  0  0  0  0  0  0  0  0  0
    4.6825   -0.0640    0.0000 C   0  0  0  0  0  0  0  0  0  0  0  0
    4.6825    0.7610    0.0000 Cl  0  0  0  0  0  0  0  0  0  0  0  0
    5.3969   -0.4765    0.0000 Cl  0  0  0  0  0  0  0  0  0  0  0  0
  1  2  1  0  0  0  0
  1  3  1  0  0  0  0
  4  1  1  0  0  0  0
  4  5  1  0  0  0  0
  5  6  2  0  0  0  0
  5  7  1  0  0  0  0
  7  8  1  0  0  0  0
  8  9  1  0  0  0  0
 10  9  2  0  0  0  0
 11 10  1  0  0  0  0
 12 11  2  0  0  0  0
 13 12  1  0  0  0  0
 13 14  1  0  0  0  0
 14 15  1  0  0  0  0
 16 15  1  0  0  0  0
 17 16  2  0  0  0  0
 18 17  1  0  0  0  0
 19 18  2  0  0  0  0
 20 19  1  0  0  0  0
 15 20  2  0  0  0  0
 21 13  2  0  0  0  0
  9 21  1  0  0  0  0
 22  4  1  0  0  0  0
  1 22  1  0  0  0  0
 22 23  1  0  0  0  0
 23 24  2  0  0  0  0
 24 25  1  0  0  0  0
 24 26  1  0  0  0  0
M  END
> <ChemID>
100550

> <CAS>
61949-76-6

> <Original_SMILES>
CC1(C)[C@@H]([C@@H]1C=C(Cl)Cl)C(=O)OCc1cccc(c1)Oc1ccccc1

> <preferred_name>
(+/-)-cis-Permethrin

> <dsstox_substance_id>
DTXSID0038338

> <dsstox_compound_id>
DTXCID50196588

> <qc_level>
DSSTox_High

> <Canonical_QSARr>
CC1(C)C(C1C=C(Cl)Cl)C(=O)OCC1C=C(C=CC=1)OC1C=CC=CC=1

> <InChI_Code_QSARr>
InChI=1S/C21H20Cl2O3/c1-21(2)17(12-18(22)23)19(21)20(24)25-13-14-7-6-10-16(11-14)26-15-8-4-3-5-9-15/h3-12,17,19H,13H2,1-2H3

> <InChI Key_QSARr>
RLLPVAHGXHCWKJ-UHFFFAOYSA-N

> <Salt_Solvent>


> <Salt_Solvent_ID>
0

> <MPID>
102146

> <LogKmHL>
0.37

> <Tr_1_Tst_0>
0

$$$$
100553
  Mrv171c012251910542D          

 18 19  0  0  0  0            999 V2000
    2.0539   -3.6412    0.0000 N   0  0  0  0  0  0  0  0  0  0  0  0
    2.0539   -2.8162    0.0000 C   0  0  0  0  0  0  0  0  0  0  0  0
    2.7683   -2.4037    0.0000 C   0  0  0  0  0  0  0  0  0  0  0  0
    2.7683   -1.5787    0.0000 C   0  0  0  0  0  0  0  0  0  0  0  0
    3.4828   -1.1662    0.0000 C   0  0  0  0  0  0  0  0  0  0  0  0
    3.4828   -0.3412    0.0000 C   0  0  0  0  0  0  0  0  0  0  0  0
    2.7683    0.0713    0.0000 C   0  0  0  0  0  0  0  0  0  0  0  0
    2.7683    0.8963    0.0000 Cl  0  0  0  0  0  0  0  0  0  0  0  0
    2.0539   -0.3412    0.0000 C   0  0  0  0  0  0  0  0  0  0  0  0
    2.0539   -1.1662    0.0000 C   0  0  0  0  0  0  0  0  0  0  0  0
    1.3394   -1.5787    0.0000 Cl  0  0  0  0  0  0  0  0  0  0  0  0
    3.4828   -2.8162    0.0000 C   0  0  0  0  0  0  0  0  0  0  0  0
    4.1973   -2.4037    0.0000 C   0  0  0  0  0  0  0  0  0  0  0  0
    4.9118   -2.8162    0.0000 C   0  0  0  0  0  0  0  0  0  0  0  0
    1.3864   -4.1262    0.0000 C   0  0  0  0  0  0  0  0  0  0  0  0
    1.6414   -4.9108    0.0000 N   0  0  0  0  0  0  0  0  0  0  0  0
    2.4664   -4.9108    0.0000 C   0  0  0  0  0  0  0  0  0  0  0  0
    2.7213   -4.1262    0.0000 N   0  0  0  0  0  0  0  0  0  0  0  0
  1  2  1  0  0  0  0
  2  3  1  0  0  0  0
  3  4  1  0  0  0  0
  5  4  1  0  0  0  0
  6  5  2  0  0  0  0
  7  6  1  0  0  0  0
  7  8  1  0  0  0  0
  9  7  2  0  0  0  0
 10  9  1  0  0  0  0
  4 10  2  0  0  0  0
 10 11  1  0  0  0  0
  3 12  1  0  0  0  0
 12 13  1  0  0  0  0
 13 14  1  0  0  0  0
 15  1  1  0  0  0  0
 16 15  2  0  0  0  0
 17 16  1  0  0  0  0
 18 17  2  0  0  0  0
  1 18  1  0  0  0  0
M  END
> <ChemID>
100553

> <CAS>
66246-88-6

> <Original_SMILES>
CCCC(C[n]1c[n]c[n]1)c1ccc(Cl)cc1Cl

> <preferred_name>
Penconazole

> <dsstox_substance_id>
DTXSID8042260

> <dsstox_compound_id>
DTXCID6022260

> <qc_level>
DSSTox_Low

> <Canonical_QSARr>
CCCC(CN1C=NC=N1)C1C=CC(Cl)=CC=1Cl

> <InChI_Code_QSARr>
InChI=1S/C13H15Cl2N3/c1-2-3-10(7-18-9-16-8-17-18)12-5-4-11(14)6-13(12)15/h4-6,8-10H,2-3,7H2,1H3

> <InChI Key_QSARr>
WKBPZYKAUNRMKP-UHFFFAOYSA-N

> <Salt_Solvent>


> <Salt_Solvent_ID>
0

> <MPID>
102147

> <LogKmHL>
1.19

> <Tr_1_Tst_0>
1

$$$$
100554
  Mrv171c012251910542D          

 23 24  0  0  0  0            999 V2000
    4.3303   -3.7700    0.0000 C   0  0  0  0  0  0  0  0  0  0  0  0
    4.3303   -4.5950    0.0000 C   0  0  0  0  0  0  0  0  0  0  0  0
    5.0448   -5.0075    0.0000 C   0  0  0  0  0  0  0  0  0  0  0  0
    5.7593   -4.5950    0.0000 C   0  0  0  0  0  0  0  0  0  0  0  0
    5.7593   -3.7700    0.0000 C   0  0  0  0  0  0  0  0  0  0  0  0
    5.0448   -3.3575    0.0000 C   0  0  0  0  0  0  0  0  0  0  0  0
    5.0448   -2.5325    0.0000 C   0  0  0  0  0  0  0  0  0  0  0  0
    5.0448   -1.7075    0.0000 F   0  0  0  0  0  0  0  0  0  0  0  0
    4.2198   -2.5325    0.0000 F   0  0  0  0  0  0  0  0  0  0  0  0
    5.8698   -2.5325    0.0000 F   0  0  0  0  0  0  0  0  0  0  0  0
    3.6159   -3.3575    0.0000 C   0  0  0  0  0  0  0  0  0  0  0  0
    3.6159   -2.5325    0.0000 O   0  0  0  0  0  0  0  0  0  0  0  0
    2.9014   -3.7700    0.0000 N   0  0  0  0  0  0  0  0  0  0  0  0
    2.1869   -3.3575    0.0000 C   0  0  0  0  0  0  0  0  0  0  0  0
    2.1869   -2.5325    0.0000 C   0  0  0  0  0  0  0  0  0  0  0  0
    1.4724   -2.1200    0.0000 C   0  0  0  0  0  0  0  0  0  0  0  0
    0.7580   -2.5325    0.0000 C   0  0  0  0  0  0  0  0  0  0  0  0
    0.7580   -3.3575    0.0000 C   0  0  0  0  0  0  0  0  0  0  0  0
    0.0435   -3.7700    0.0000 O   0  0  0  0  0  0  0  0  0  0  0  0
   -0.6710   -3.3575    0.0000 C   0  0  0  0  0  0  0  0  0  0  0  0
   -1.3854   -3.7700    0.0000 C   0  0  0  0  0  0  0  0  0  0  0  0
   -0.6710   -2.5325    0.0000 C   0  0  0  0  0  0  0  0  0  0  0  0
    1.4724   -3.7700    0.0000 C   0  0  0  0  0  0  0  0  0  0  0  0
  2  1  1  0  0  0  0
  3  2  2  0  0  0  0
  4  3  1  0  0  0  0
  5  4  2  0  0  0  0
  6  5  1  0  0  0  0
  1  6  2  0  0  0  0
  6  7  1  0  0  0  0
  7  8  1  0  0  0  0
  7  9  1  0  0  0  0
  7 10  1  0  0  0  0
  1 11  1  0  0  0  0
 11 12  2  0  0  0  0
 11 13  1  0  0  0  0
 13 14  1  0  0  0  0
 15 14  2  0  0  0  0
 16 15  1  0  0  0  0
 17 16  2  0  0  0  0
 18 17  1  0  0  0  0
 18 19  1  0  0  0  0
 19 20  1  0  0  0  0
 20 21  1  0  0  0  0
 20 22  1  0  0  0  0
 23 18  2  0  0  0  0
 14 23  1  0  0  0  0
M  END
> <ChemID>
100554

> <CAS>
66332-96-5

> <Original_SMILES>
CC(C)Oc1cc(ccc1)NC(=O)c1ccccc1C(F)(F)F

> <preferred_name>
Flutolanil

> <dsstox_substance_id>
DTXSID8024109

> <dsstox_compound_id>
DTXCID204109

> <qc_level>
DSSTox_Low

> <Canonical_QSARr>
CC(C)OC1=CC(=CC=C1)NC(=O)C1C=CC=CC=1C(F)(F)F

> <InChI_Code_QSARr>
InChI=1S/C17H16F3NO2/c1-11(2)23-13-7-5-6-12(10-13)21-16(22)14-8-3-4-9-15(14)17(18,19)20/h3-11H,1-2H3,(H,21,22)

> <InChI Key_QSARr>
PTCGDEVVHUXTMP-UHFFFAOYSA-N

> <Salt_Solvent>


> <Salt_Solvent_ID>
0

> <MPID>
102148

> <LogKmHL>
-0.61

> <Tr_1_Tst_0>
1

$$$$
100555
  Mrv171c012251910542D          

 28 30  0  0  0  0            999 V2000
    6.6482   -0.3846    0.0000 C   0  0  0  0  0  0  0  0  0  0  0  0
    6.5049   -1.1971    0.0000 C   0  0  0  0  0  0  0  0  0  0  0  0
    5.8729   -0.1024    0.0000 C   0  0  0  0  0  0  0  0  0  0  0  0
    7.4732   -0.3846    0.0000 C   0  0  0  0  0  0  0  0  0  0  0  0
    8.1877   -0.7971    0.0000 C   0  0  0  0  0  0  0  0  0  0  0  0
    8.9021   -0.3846    0.0000 O   0  0  0  0  0  0  0  0  0  0  0  0
    8.1877   -1.6221    0.0000 O   0  0  0  0  0  0  0  0  0  0  0  0
    8.9021   -2.0346    0.0000 C   0  0  0  0  0  0  0  0  0  0  0  0
    9.6166   -1.6221    0.0000 C   0  0  0  0  0  0  0  0  0  0  0  0
   10.3311   -1.2096    0.0000 N   0  0  0  0  0  0  0  0  0  0  0  0
    8.9021   -2.8596    0.0000 C   0  0  0  0  0  0  0  0  0  0  0  0
    8.1877   -3.2721    0.0000 C   0  0  0  0  0  0  0  0  0  0  0  0
    8.1877   -4.0971    0.0000 C   0  0  0  0  0  0  0  0  0  0  0  0
    8.9021   -4.5096    0.0000 C   0  0  0  0  0  0  0  0  0  0  0  0
    9.6166   -4.0971    0.0000 C   0  0  0  0  0  0  0  0  0  0  0  0
   10.3311   -4.5096    0.0000 O   0  0  0  0  0  0  0  0  0  0  0  0
   10.3311   -5.3346    0.0000 C   0  0  0  0  0  0  0  0  0  0  0  0
    9.6166   -5.7471    0.0000 C   0  0  0  0  0  0  0  0  0  0  0  0
    9.6166   -6.5721    0.0000 C   0  0  0  0  0  0  0  0  0  0  0  0
   10.3311   -6.9846    0.0000 C   0  0  0  0  0  0  0  0  0  0  0  0
   11.0455   -6.5721    0.0000 C   0  0  0  0  0  0  0  0  0  0  0  0
   11.0455   -5.7471    0.0000 C   0  0  0  0  0  0  0  0  0  0  0  0
    9.6166   -3.2721    0.0000 C   0  0  0  0  0  0  0  0  0  0  0  0
    7.0607    0.3299    0.0000 C   0  0  0  0  0  0  0  0  0  0  0  0
    7.0607    1.1549    0.0000 C   0  0  0  0  0  0  0  0  0  0  0  0
    6.3462    1.5674    0.0000 C   0  0  0  0  0  0  0  0  0  0  0  0
    5.6317    1.1549    0.0000 Cl  0  0  0  0  0  0  0  0  0  0  0  0
    6.3462    2.3924    0.0000 Cl  0  0  0  0  0  0  0  0  0  0  0  0
  1  2  1  0  0  0  0
  1  3  1  0  0  0  0
  4  1  1  0  0  0  0
  4  5  1  0  0  0  0
  5  6  2  0  0  0  0
  5  7  1  0  0  0  0
  7  8  1  0  0  0  0
  8  9  1  0  0  0  0
  9 10  3  0  0  0  0
  8 11  1  0  0  0  0
 12 11  2  0  0  0  0
 13 12  1  0  0  0  0
 14 13  2  0  0  0  0
 15 14  1  0  0  0  0
 15 16  1  0  0  0  0
 16 17  1  0  0  0  0
 18 17  1  0  0  0  0
 19 18  2  0  0  0  0
 20 19  1  0  0  0  0
 21 20  2  0  0  0  0
 22 21  1  0  0  0  0
 17 22  2  0  0  0  0
 23 15  2  0  0  0  0
 11 23  1  0  0  0  0
 24  4  1  0  0  0  0
  1 24  1  0  0  0  0
 24 25  1  0  0  0  0
 25 26  2  0  0  0  0
 26 27  1  0  0  0  0
 26 28  1  0  0  0  0
M  END
> <ChemID>
100555

> <CAS>
67375-30-8

> <Original_SMILES>
CC1(C)[C@@H]([C@@H]1C=C(Cl)Cl)C(=O)O[C@@H](C#N)c1cccc(c1)Oc1ccccc1

> <preferred_name>
alpha-Cypermethrin

> <dsstox_substance_id>
DTXSID7041201

> <dsstox_compound_id>
DTXCID3065297

> <qc_level>
DSSTox_High

> <Canonical_QSARr>
CC1(C)C(C1C=C(Cl)Cl)C(=O)OC(C#N)C1C=C(C=CC=1)OC1C=CC=CC=1

> <InChI_Code_QSARr>
InChI=1S/C22H19Cl2NO3/c1-22(2)17(12-19(23)24)20(22)21(26)28-18(13-25)14-7-6-10-16(11-14)27-15-8-4-3-5-9-15/h3-12,17-18,20H,1-2H3

> <InChI Key_QSARr>
KAATUXNTWXVJKI-UHFFFAOYSA-N

> <Salt_Solvent>


> <Salt_Solvent_ID>
0

> <MPID>
102149

> <LogKmHL>
0.7

> <Tr_1_Tst_0>
1

$$$$
100556
  Mrv171c012251910542D          

 20 22  0  0  0  0            999 V2000
    2.1631   -2.0898    0.0000 C   0  0  0  0  0  0  0  0  0  0  0  0
    2.8306   -2.5747    0.0000 O   0  0  0  0  0  0  0  0  0  0  0  0
    3.4980   -2.0898    0.0000 C   0  0  0  0  0  0  0  0  0  0  0  0
    4.3050   -2.2613    0.0000 C   0  0  0  0  0  0  0  0  0  0  0  0
    4.8570   -1.6482    0.0000 C   0  0  0  0  0  0  0  0  0  0  0  0
    4.6021   -0.8636    0.0000 C   0  0  0  0  0  0  0  0  0  0  0  0
    3.7951   -0.6921    0.0000 C   0  0  0  0  0  0  0  0  0  0  0  0
    3.2431   -1.3051    0.0000 C   0  0  0  0  0  0  0  0  0  0  0  0
    2.4181   -1.3051    0.0000 C   0  0  0  0  0  0  0  0  0  0  0  0
    1.8660   -0.6921    0.0000 C   0  0  0  0  0  0  0  0  0  0  0  0
    2.1210    0.0926    0.0000 Cl  0  0  0  0  0  0  0  0  0  0  0  0
    1.0591   -0.8636    0.0000 C   0  0  0  0  0  0  0  0  0  0  0  0
    0.5070   -0.2505    0.0000 Cl  0  0  0  0  0  0  0  0  0  0  0  0
    0.8041   -1.6482    0.0000 C   0  0  0  0  0  0  0  0  0  0  0  0
   -0.0028   -1.8197    0.0000 Cl  0  0  0  0  0  0  0  0  0  0  0  0
    1.3562   -2.2613    0.0000 C   0  0  0  0  0  0  0  0  0  0  0  0
    1.1012   -3.0459    0.0000 Cl  0  0  0  0  0  0  0  0  0  0  0  0
    5.1541   -0.2505    0.0000 Cl  0  0  0  0  0  0  0  0  0  0  0  0
    5.6640   -1.8197    0.0000 Cl  0  0  0  0  0  0  0  0  0  0  0  0
    4.5599   -3.0459    0.0000 Cl  0  0  0  0  0  0  0  0  0  0  0  0
  2  1  1  0  0  0  0
  3  2  1  0  0  0  0
  3  4  1  0  0  0  0
  4  5  2  0  0  0  0
  5  6  1  0  0  0  0
  6  7  2  0  0  0  0
  7  8  1  0  0  0  0
  8  3  2  0  0  0  0
  9  8  1  0  0  0  0
  9  1  1  0  0  0  0
 10  9  2  0  0  0  0
 10 11  1  0  0  0  0
 12 10  1  0  0  0  0
 12 13  1  0  0  0  0
 14 12  2  0  0  0  0
 14 15  1  0  0  0  0
 16 14  1  0  0  0  0
  1 16  2  0  0  0  0
 16 17  1  0  0  0  0
  6 18  1  0  0  0  0
  5 19  1  0  0  0  0
  4 20  1  0  0  0  0
M  END
> <ChemID>
100556

> <CAS>
67562-39-4

> <Original_SMILES>
Clc1cc2c(oc3c2c(Cl)c(Cl)c(Cl)c3Cl)c(Cl)c1Cl

> <preferred_name>
1,2,3,4,6,7,8-Heptachlorodibenzo[b,d]furan

> <dsstox_substance_id>
DTXSID8052350

> <dsstox_compound_id>
DTXCID8030922

> <qc_level>
DSSTox_Low

> <Canonical_QSARr>
ClC1=CC2=C(OC3C2=C(Cl)C(Cl)=C(Cl)C=3Cl)C(Cl)=C1Cl

> <InChI_Code_QSARr>
InChI=1S/C12HCl7O/c13-3-1-2-4-6(15)7(16)8(17)10(19)12(4)20-11(2)9(18)5(3)14/h1H

> <InChI Key_QSARr>
WDMKCPIVJOGHBF-UHFFFAOYSA-N

> <Salt_Solvent>


> <Salt_Solvent_ID>
0

> <MPID>
102150

> <LogKmHL>
0.9

> <Tr_1_Tst_0>
0

$$$$
100557
  Mrv171c012251910542D          

 16 17  0  0  0  0            999 V2000
    1.4290   -2.4750    0.0000 C   0  0  0  0  0  0  0  0  0  0  0  0
    1.4290   -1.6500    0.0000 C   0  0  0  0  0  0  0  0  0  0  0  0
    0.7145   -1.2375    0.0000 C   0  0  0  0  0  0  0  0  0  0  0  0
    0.7145   -0.4125    0.0000 Cl  0  0  0  0  0  0  0  0  0  0  0  0
    0.0000   -1.6500    0.0000 C   0  0  0  0  0  0  0  0  0  0  0  0
   -0.7145   -1.2375    0.0000 C   0  0  0  0  0  0  0  0  0  0  0  0
   -0.7145   -0.4125    0.0000 C   0  0  0  0  0  0  0  0  0  0  0  0
    0.0000    0.0000    0.0000 Cl  0  0  0  0  0  0  0  0  0  0  0  0
   -1.4289    0.0000    0.0000 C   0  0  0  0  0  0  0  0  0  0  0  0
   -2.1434   -0.4125    0.0000 C   0  0  0  0  0  0  0  0  0  0  0  0
   -2.8579   -0.0000    0.0000 Cl  0  0  0  0  0  0  0  0  0  0  0  0
   -2.1434   -1.2375    0.0000 C   0  0  0  0  0  0  0  0  0  0  0  0
   -1.4289   -1.6500    0.0000 C   0  0  0  0  0  0  0  0  0  0  0  0
    0.0000   -2.4750    0.0000 C   0  0  0  0  0  0  0  0  0  0  0  0
   -0.7145   -2.8875    0.0000 Cl  0  0  0  0  0  0  0  0  0  0  0  0
    0.7145   -2.8875    0.0000 C   0  0  0  0  0  0  0  0  0  0  0  0
  2  1  1  0  0  0  0
  3  2  2  0  0  0  0
  3  4  1  0  0  0  0
  5  3  1  0  0  0  0
  5  6  1  0  0  0  0
  7  6  1  0  0  0  0
  7  8  1  0  0  0  0
  9  7  2  0  0  0  0
 10  9  1  0  0  0  0
 10 11  1  0  0  0  0
 12 10  2  0  0  0  0
 13 12  1  0  0  0  0
  6 13  2  0  0  0  0
 14  5  2  0  0  0  0
 14 15  1  0  0  0  0
 16 14  1  0  0  0  0
  1 16  2  0  0  0  0
M  END
> <ChemID>
100557

> <CAS>
68194-04-7

> <Original_SMILES>
Clc1cc(Cl)c(cc1)-c1c(Cl)cccc1Cl

> <preferred_name>
2,2',4,6'-Tetrachlorobiphenyl

> <dsstox_substance_id>
DTXSID9074195

> <dsstox_compound_id>
DTXCID1045669

> <qc_level>
Public_High

> <Canonical_QSARr>
ClC1C=CC=C(Cl)C=1C1=CC=C(Cl)C=C1Cl

> <InChI_Code_QSARr>
InChI=1S/C12H6Cl4/c13-7-4-5-8(11(16)6-7)12-9(14)2-1-3-10(12)15/h1-6H

> <InChI Key_QSARr>
WVHNUGRFECMVLQ-UHFFFAOYSA-N

> <Salt_Solvent>


> <Salt_Solvent_ID>
0

> <MPID>
102151

> <LogKmHL>
2.47

> <Tr_1_Tst_0>
1

$$$$
100558
  Mrv171c012251910542D          

 17 18  0  0  0  0            999 V2000
    0.3362    1.4074    0.0000 C   0  0  0  0  0  0  0  0  0  0  0  0
   -0.3783    1.8199    0.0000 C   0  0  0  0  0  0  0  0  0  0  0  0
   -0.3783    2.6449    0.0000 Cl  0  0  0  0  0  0  0  0  0  0  0  0
   -1.0927    1.4074    0.0000 C   0  0  0  0  0  0  0  0  0  0  0  0
   -1.0927    0.5824    0.0000 C   0  0  0  0  0  0  0  0  0  0  0  0
   -0.3783    0.1699    0.0000 C   0  0  0  0  0  0  0  0  0  0  0  0
   -0.3783   -0.6551    0.0000 Cl  0  0  0  0  0  0  0  0  0  0  0  0
    0.3362    0.5824    0.0000 C   0  0  0  0  0  0  0  0  0  0  0  0
    1.0507    0.1699    0.0000 Cl  0  0  0  0  0  0  0  0  0  0  0  0
    1.0507    1.8199    0.0000 C   0  0  0  0  0  0  0  0  0  0  0  0
    1.7652    1.4074    0.0000 C   0  0  0  0  0  0  0  0  0  0  0  0
    2.4796    1.8199    0.0000 C   0  0  0  0  0  0  0  0  0  0  0  0
    2.4796    2.6449    0.0000 C   0  0  0  0  0  0  0  0  0  0  0  0
    3.1941    3.0574    0.0000 Cl  0  0  0  0  0  0  0  0  0  0  0  0
    1.7652    3.0574    0.0000 C   0  0  0  0  0  0  0  0  0  0  0  0
    1.0507    2.6449    0.0000 C   0  0  0  0  0  0  0  0  0  0  0  0
    0.3362    3.0574    0.0000 Cl  0  0  0  0  0  0  0  0  0  0  0  0
  2  1  1  0  0  0  0
  2  3  1  0  0  0  0
  4  2  2  0  0  0  0
  5  4  1  0  0  0  0
  6  5  2  0  0  0  0
  6  7  1  0  0  0  0
  8  6  1  0  0  0  0
  1  8  2  0  0  0  0
  8  9  1  0  0  0  0
  1 10  1  0  0  0  0
 11 10  1  0  0  0  0
 12 11  2  0  0  0  0
 13 12  1  0  0  0  0
 13 14  1  0  0  0  0
 15 13  2  0  0  0  0
 16 15  1  0  0  0  0
 10 16  2  0  0  0  0
 16 17  1  0  0  0  0
M  END
> <ChemID>
100558

> <CAS>
68194-05-8

> <Original_SMILES>
Clc1cc(Cl)c(cc1)-c1c(Cl)c(Cl)ccc1Cl

> <preferred_name>
2,2',3,4',6-Pentachlorobiphenyl

> <dsstox_substance_id>
DTXSID1073608

> <dsstox_compound_id>
DTXCID0045670

> <qc_level>
Public_High

> <Canonical_QSARr>
ClC1C=C(Cl)C=CC=1C1=C(Cl)C(Cl)=CC=C1Cl

> <InChI_Code_QSARr>
InChI=1S/C12H5Cl5/c13-6-1-2-7(10(16)5-6)11-8(14)3-4-9(15)12(11)17/h1-5H

> <InChI Key_QSARr>
CXKIGWXPPVZSQK-UHFFFAOYSA-N

> <Salt_Solvent>


> <Salt_Solvent_ID>
0

> <MPID>
102152

> <LogKmHL>
2.61

> <Tr_1_Tst_0>
1

$$$$
100559
  Mrv171c012251910542D          

 18 19  0  0  0  0            999 V2000
    1.4290   -1.6500    0.0000 C   0  0  0  0  0  0  0  0  0  0  0  0
    0.7145   -1.2375    0.0000 C   0  0  0  0  0  0  0  0  0  0  0  0
    0.7145   -0.4125    0.0000 Cl  0  0  0  0  0  0  0  0  0  0  0  0
    0.0000   -1.6500    0.0000 C   0  0  0  0  0  0  0  0  0  0  0  0
    0.0000   -2.4750    0.0000 C   0  0  0  0  0  0  0  0  0  0  0  0
   -0.7144   -2.8875    0.0000 C   0  0  0  0  0  0  0  0  0  0  0  0
   -1.4289   -2.4750    0.0000 C   0  0  0  0  0  0  0  0  0  0  0  0
   -1.4289   -1.6500    0.0000 Cl  0  0  0  0  0  0  0  0  0  0  0  0
   -2.1434   -2.8875    0.0000 C   0  0  0  0  0  0  0  0  0  0  0  0
   -2.1434   -3.7125    0.0000 C   0  0  0  0  0  0  0  0  0  0  0  0
   -2.8579   -4.1250    0.0000 Cl  0  0  0  0  0  0  0  0  0  0  0  0
   -1.4289   -4.1250    0.0000 C   0  0  0  0  0  0  0  0  0  0  0  0
   -1.4289   -4.9500    0.0000 Cl  0  0  0  0  0  0  0  0  0  0  0  0
   -0.7144   -3.7125    0.0000 C   0  0  0  0  0  0  0  0  0  0  0  0
    0.0000   -4.1250    0.0000 Cl  0  0  0  0  0  0  0  0  0  0  0  0
    0.7145   -2.8875    0.0000 C   0  0  0  0  0  0  0  0  0  0  0  0
    0.7145   -3.7125    0.0000 Cl  0  0  0  0  0  0  0  0  0  0  0  0
    1.4290   -2.4750    0.0000 C   0  0  0  0  0  0  0  0  0  0  0  0
  2  1  1  0  0  0  0
  2  3  1  0  0  0  0
  4  2  2  0  0  0  0
  5  4  1  0  0  0  0
  5  6  1  0  0  0  0
  7  6  1  0  0  0  0
  7  8  1  0  0  0  0
  9  7  2  0  0  0  0
 10  9  1  0  0  0  0
 10 11  1  0  0  0  0
 12 10  2  0  0  0  0
 12 13  1  0  0  0  0
 14 12  1  0  0  0  0
  6 14  2  0  0  0  0
 14 15  1  0  0  0  0
 16  5  2  0  0  0  0
 16 17  1  0  0  0  0
 18 16  1  0  0  0  0
  1 18  2  0  0  0  0
M  END
> <ChemID>
100559

> <CAS>
68194-14-9

> <Original_SMILES>
Clc1cc(-c2c(Cl)c(Cl)c(Cl)cc2Cl)c(Cl)cc1

> <preferred_name>
2,2',3,4,5',6-Hexachlorobiphenyl

> <dsstox_substance_id>
DTXSID6074201

> <dsstox_compound_id>
DTXCID5045677

> <qc_level>
Public_High

> <Canonical_QSARr>
ClC1=CC(C2=C(Cl)C(Cl)=C(Cl)C=C2Cl)=C(Cl)C=C1

> <InChI_Code_QSARr>
InChI=1S/C12H4Cl6/c13-5-1-2-7(14)6(3-5)10-8(15)4-9(16)11(17)12(10)18/h1-4H

> <InChI Key_QSARr>
CXXRQFOKRZJAJA-UHFFFAOYSA-N

> <Salt_Solvent>


> <Salt_Solvent_ID>
0

> <MPID>
102153

> <LogKmHL>
2.23

> <Tr_1_Tst_0>
1

$$$$
100565
  Mrv171c012251910542D          

 25 26  0  0  0  0            999 V2000
    0.5406   -3.5019    0.0000 C   0  0  0  0  0  0  0  0  0  0  0  0
    0.5406   -4.3269    0.0000 O   0  0  0  0  0  0  0  0  0  0  0  0
   -0.1738   -3.0894    0.0000 O   0  0  0  0  0  0  0  0  0  0  0  0
   -0.8883   -3.5019    0.0000 C   0  0  0  0  0  0  0  0  0  0  0  0
    1.2551   -3.0894    0.0000 C   0  0  0  0  0  0  0  0  0  0  0  0
    1.9696   -3.5019    0.0000 O   0  0  0  0  0  0  0  0  0  0  0  0
    2.6841   -3.0894    0.0000 C   0  0  0  0  0  0  0  0  0  0  0  0
    3.3985   -3.5019    0.0000 C   0  0  0  0  0  0  0  0  0  0  0  0
    4.1130   -3.0894    0.0000 C   0  0  0  0  0  0  0  0  0  0  0  0
    4.1130   -2.2644    0.0000 C   0  0  0  0  0  0  0  0  0  0  0  0
    4.8275   -1.8519    0.0000 O   0  0  0  0  0  0  0  0  0  0  0  0
    5.5419   -2.2644    0.0000 C   0  0  0  0  0  0  0  0  0  0  0  0
    5.5419   -3.0894    0.0000 C   0  0  0  0  0  0  0  0  0  0  0  0
    4.8275   -3.5019    0.0000 Cl  0  0  0  0  0  0  0  0  0  0  0  0
    6.2564   -3.5019    0.0000 C   0  0  0  0  0  0  0  0  0  0  0  0
    6.9709   -3.0894    0.0000 C   0  0  0  0  0  0  0  0  0  0  0  0
    7.6853   -3.5019    0.0000 C   0  0  0  0  0  0  0  0  0  0  0  0
    8.3998   -3.9144    0.0000 F   0  0  0  0  0  0  0  0  0  0  0  0
    7.2728   -4.2164    0.0000 F   0  0  0  0  0  0  0  0  0  0  0  0
    8.0978   -2.7875    0.0000 F   0  0  0  0  0  0  0  0  0  0  0  0
    6.9709   -2.2644    0.0000 C   0  0  0  0  0  0  0  0  0  0  0  0
    6.2564   -1.8519    0.0000 N   0  0  0  0  0  0  0  0  0  0  0  0
    3.3985   -1.8519    0.0000 C   0  0  0  0  0  0  0  0  0  0  0  0
    2.6841   -2.2644    0.0000 C   0  0  0  0  0  0  0  0  0  0  0  0
    1.2551   -2.2644    0.0000 C   0  0  0  0  0  0  0  0  0  0  0  0
  1  2  2  0  0  0  0
  1  3  1  0  0  0  0
  3  4  1  0  0  0  0
  1  5  1  0  0  0  0
  5  6  1  0  0  0  0
  6  7  1  0  0  0  0
  8  7  1  0  0  0  0
  9  8  2  0  0  0  0
 10  9  1  0  0  0  0
 10 11  1  0  0  0  0
 11 12  1  0  0  0  0
 13 12  1  0  0  0  0
 13 14  1  0  0  0  0
 15 13  2  0  0  0  0
 16 15  1  0  0  0  0
 16 17  1  0  0  0  0
 17 18  1  0  0  0  0
 17 19  1  0  0  0  0
 17 20  1  0  0  0  0
 21 16  2  0  0  0  0
 22 21  1  0  0  0  0
 12 22  2  0  0  0  0
 23 10  2  0  0  0  0
 24 23  1  0  0  0  0
  7 24  2  0  0  0  0
  5 25  1  0  0  0  0
M  END
> <ChemID>
100565

> <CAS>
69806-40-2

> <Original_SMILES>
COC(=O)C(C)Oc1ccc(cc1)Oc1[n]cc(cc1Cl)C(F)(F)F

> <preferred_name>
Haloxyfop-methyl

> <dsstox_substance_id>
DTXSID6024123

> <dsstox_compound_id>
DTXCID404123

> <qc_level>
DSSTox_Low

> <Canonical_QSARr>
COC(=O)C(C)OC1C=CC(=CC=1)OC1=NC=C(C=C1Cl)C(F)(F)F

> <InChI_Code_QSARr>
InChI=1S/C16H13ClF3NO4/c1-9(15(22)23-2)24-11-3-5-12(6-4-11)25-14-13(17)7-10(8-21-14)16(18,19)20/h3-9H,1-2H3

> <InChI Key_QSARr>
MFSWTRQUCLNFOM-UHFFFAOYSA-N

> <Salt_Solvent>


> <Salt_Solvent_ID>
0

> <MPID>
102154

> <LogKmHL>
-1.08

> <Tr_1_Tst_0>
0

$$$$
100566
  Mrv171c012251910542D          

 16 17  0  0  0  0            999 V2000
    2.1434   -0.1547    0.0000 Cl  0  0  0  0  0  0  0  0  0  0  0  0
    1.4289   -0.5672    0.0000 C   0  0  0  0  0  0  0  0  0  0  0  0
    0.7144   -0.1547    0.0000 C   0  0  0  0  0  0  0  0  0  0  0  0
    0.7144    0.6703    0.0000 Cl  0  0  0  0  0  0  0  0  0  0  0  0
   -0.0000   -0.5672    0.0000 C   0  0  0  0  0  0  0  0  0  0  0  0
   -0.0000   -1.3922    0.0000 C   0  0  0  0  0  0  0  0  0  0  0  0
    0.7144   -1.8047    0.0000 C   0  0  0  0  0  0  0  0  0  0  0  0
    0.7144   -2.6297    0.0000 Cl  0  0  0  0  0  0  0  0  0  0  0  0
    1.4289   -1.3922    0.0000 C   0  0  0  0  0  0  0  0  0  0  0  0
    2.1434   -1.8047    0.0000 C   0  0  0  0  0  0  0  0  0  0  0  0
    2.1434   -2.6297    0.0000 C   0  0  0  0  0  0  0  0  0  0  0  0
    1.4289   -3.0422    0.0000 Cl  0  0  0  0  0  0  0  0  0  0  0  0
    2.8579   -3.0422    0.0000 C   0  0  0  0  0  0  0  0  0  0  0  0
    3.5723   -2.6297    0.0000 C   0  0  0  0  0  0  0  0  0  0  0  0
    3.5723   -1.8047    0.0000 C   0  0  0  0  0  0  0  0  0  0  0  0
    2.8579   -1.3922    0.0000 C   0  0  0  0  0  0  0  0  0  0  0  0
  1  2  1  0  0  0  0
  3  2  1  0  0  0  0
  3  4  1  0  0  0  0
  5  3  2  0  0  0  0
  6  5  1  0  0  0  0
  7  6  2  0  0  0  0
  7  8  1  0  0  0  0
  9  7  1  0  0  0  0
  2  9  2  0  0  0  0
  9 10  1  0  0  0  0
 11 10  1  0  0  0  0
 11 12  1  0  0  0  0
 13 11  2  0  0  0  0
 14 13  1  0  0  0  0
 15 14  2  0  0  0  0
 16 15  1  0  0  0  0
 10 16  2  0  0  0  0
M  END
> <ChemID>
100566

> <CAS>
70362-45-7

> <Original_SMILES>
Clc1ccc(Cl)c(-c2ccccc2Cl)c1Cl

> <preferred_name>
PCB 045

> <dsstox_substance_id>
DTXSID9074779

> <dsstox_compound_id>
DTXCID2046672

> <qc_level>
Public_High

> <Canonical_QSARr>
ClC1=CC=C(Cl)C(C2=CC=CC=C2Cl)=C1Cl

> <InChI_Code_QSARr>
InChI=1S/C12H6Cl4/c13-8-4-2-1-3-7(8)11-9(14)5-6-10(15)12(11)16/h1-6H

> <InChI Key_QSARr>
VHGHHZZTMJLTJX-UHFFFAOYSA-N

> <Salt_Solvent>


> <Salt_Solvent_ID>
0

> <MPID>
102155

> <LogKmHL>
2.38

> <Tr_1_Tst_0>
1

$$$$
100567
  Mrv171c012251910542D          

 16 17  0  0  0  0            999 V2000
    1.6724   -1.3454    0.0000 C   0  0  0  0  0  0  0  0  0  0  0  0
    1.6724   -0.5204    0.0000 C   0  0  0  0  0  0  0  0  0  0  0  0
    0.9579   -0.1079    0.0000 C   0  0  0  0  0  0  0  0  0  0  0  0
    0.9579    0.7171    0.0000 Cl  0  0  0  0  0  0  0  0  0  0  0  0
    0.2435   -0.5204    0.0000 C   0  0  0  0  0  0  0  0  0  0  0  0
    0.2435   -1.3454    0.0000 C   0  0  0  0  0  0  0  0  0  0  0  0
   -0.4710   -1.7579    0.0000 Cl  0  0  0  0  0  0  0  0  0  0  0  0
    0.9579   -1.7579    0.0000 C   0  0  0  0  0  0  0  0  0  0  0  0
    0.9579   -2.5829    0.0000 Cl  0  0  0  0  0  0  0  0  0  0  0  0
    2.3869   -1.7579    0.0000 C   0  0  0  0  0  0  0  0  0  0  0  0
    2.3869   -2.5829    0.0000 C   0  0  0  0  0  0  0  0  0  0  0  0
    3.1013   -2.9954    0.0000 C   0  0  0  0  0  0  0  0  0  0  0  0
    3.8158   -2.5829    0.0000 C   0  0  0  0  0  0  0  0  0  0  0  0
    3.8158   -1.7579    0.0000 C   0  0  0  0  0  0  0  0  0  0  0  0
    3.1013   -1.3454    0.0000 C   0  0  0  0  0  0  0  0  0  0  0  0
    3.1013   -0.5204    0.0000 Cl  0  0  0  0  0  0  0  0  0  0  0  0
  2  1  1  0  0  0  0
  3  2  2  0  0  0  0
  3  4  1  0  0  0  0
  5  3  1  0  0  0  0
  6  5  2  0  0  0  0
  6  7  1  0  0  0  0
  8  6  1  0  0  0  0
  1  8  2  0  0  0  0
  8  9  1  0  0  0  0
  1 10  1  0  0  0  0
 11 10  1  0  0  0  0
 12 11  2  0  0  0  0
 13 12  1  0  0  0  0
 14 13  2  0  0  0  0
 15 14  1  0  0  0  0
 10 15  2  0  0  0  0
 15 16  1  0  0  0  0
M  END
> <ChemID>
100567

> <CAS>
70362-46-8

> <Original_SMILES>
Clc1cc(-c2ccccc2Cl)c(Cl)c(Cl)c1

> <preferred_name>


> <dsstox_substance_id>
DTXSID00867918

> <dsstox_compound_id>
DTXCID00816067

> <qc_level>


> <Canonical_QSARr>
ClC1C=CC=CC=1C1C=C(Cl)C=C(Cl)C=1Cl

> <InChI_Code_QSARr>
InChI=1S/C12H6Cl4/c13-7-5-9(12(16)11(15)6-7)8-3-1-2-4-10(8)14/h1-6H

> <InChI Key_QSARr>
NRBNBYFPJCCKTO-UHFFFAOYSA-N

> <Salt_Solvent>


> <Salt_Solvent_ID>
0

> <MPID>
102156

> <LogKmHL>
2.8

> <Tr_1_Tst_0>
1

$$$$
100568
  Mrv171c012251910542D          

 16 17  0  0  0  0            999 V2000
    0.5805    1.9852    0.0000 C   0  0  0  0  0  0  0  0  0  0  0  0
    0.5805    2.8102    0.0000 C   0  0  0  0  0  0  0  0  0  0  0  0
   -0.1339    3.2227    0.0000 C   0  0  0  0  0  0  0  0  0  0  0  0
   -0.1339    4.0477    0.0000 Cl  0  0  0  0  0  0  0  0  0  0  0  0
   -0.8484    2.8102    0.0000 C   0  0  0  0  0  0  0  0  0  0  0  0
   -1.5629    3.2227    0.0000 Cl  0  0  0  0  0  0  0  0  0  0  0  0
   -0.8484    1.9852    0.0000 C   0  0  0  0  0  0  0  0  0  0  0  0
   -1.5629    1.5727    0.0000 Cl  0  0  0  0  0  0  0  0  0  0  0  0
   -0.1339    1.5727    0.0000 C   0  0  0  0  0  0  0  0  0  0  0  0
    1.2950    1.5727    0.0000 C   0  0  0  0  0  0  0  0  0  0  0  0
    1.2950    0.7477    0.0000 C   0  0  0  0  0  0  0  0  0  0  0  0
    2.0095    0.3352    0.0000 C   0  0  0  0  0  0  0  0  0  0  0  0
    2.7239    0.7477    0.0000 C   0  0  0  0  0  0  0  0  0  0  0  0
    3.4384    0.3352    0.0000 Cl  0  0  0  0  0  0  0  0  0  0  0  0
    2.7239    1.5727    0.0000 C   0  0  0  0  0  0  0  0  0  0  0  0
    2.0095    1.9852    0.0000 C   0  0  0  0  0  0  0  0  0  0  0  0
  2  1  1  0  0  0  0
  3  2  2  0  0  0  0
  3  4  1  0  0  0  0
  5  3  1  0  0  0  0
  5  6  1  0  0  0  0
  7  5  2  0  0  0  0
  7  8  1  0  0  0  0
  9  7  1  0  0  0  0
  1  9  2  0  0  0  0
  1 10  1  0  0  0  0
 11 10  1  0  0  0  0
 12 11  2  0  0  0  0
 13 12  1  0  0  0  0
 13 14  1  0  0  0  0
 15 13  2  0  0  0  0
 16 15  1  0  0  0  0
 10 16  2  0  0  0  0
M  END
> <ChemID>
100568

> <CAS>
70362-50-4

> <Original_SMILES>
Clc1ccc(cc1)-c1cc(Cl)c(Cl)c(Cl)c1

> <preferred_name>
3,4,4',5-Tetrachlorobiphenyl

> <dsstox_substance_id>
DTXSID6074209

> <dsstox_compound_id>
DTXCID7046675

> <qc_level>
Public_High

> <Canonical_QSARr>
ClC1C=C(C=C(Cl)C=1Cl)C1C=CC(Cl)=CC=1

> <InChI_Code_QSARr>
InChI=1S/C12H6Cl4/c13-9-3-1-7(2-4-9)8-5-10(14)12(16)11(15)6-8/h1-6H

> <InChI Key_QSARr>
BHWVLZJTVIYLIV-UHFFFAOYSA-N

> <Salt_Solvent>


> <Salt_Solvent_ID>
0

> <MPID>
102157

> <LogKmHL>
1.69

> <Tr_1_Tst_0>
1

$$$$
100570
  Mrv171c012251910542D          

 19 20  0  0  0  0            999 V2000
    1.6503    0.3691    0.0000 Cl  0  0  0  0  0  0  0  0  0  0  0  0
    2.3648    0.7816    0.0000 C   0  0  0  0  0  0  0  0  0  0  0  0
    2.3648    1.6066    0.0000 C   0  0  0  0  0  0  0  0  0  0  0  0
    3.0792    2.0191    0.0000 C   0  0  0  0  0  0  0  0  0  0  0  0
    3.0792    2.8441    0.0000 Cl  0  0  0  0  0  0  0  0  0  0  0  0
    3.7937    1.6066    0.0000 C   0  0  0  0  0  0  0  0  0  0  0  0
    4.5082    2.0191    0.0000 Cl  0  0  0  0  0  0  0  0  0  0  0  0
    3.7937    0.7816    0.0000 C   0  0  0  0  0  0  0  0  0  0  0  0
    3.0792    0.3691    0.0000 C   0  0  0  0  0  0  0  0  0  0  0  0
    3.0792   -0.4559    0.0000 O   0  0  0  0  0  0  0  0  0  0  0  0
    3.7937   -0.8684    0.0000 C   0  0  0  0  0  0  0  0  0  0  0  0
    3.7937   -1.6934    0.0000 C   0  0  0  0  0  0  0  0  0  0  0  0
    4.5082   -2.1059    0.0000 C   0  0  0  0  0  0  0  0  0  0  0  0
    4.5082   -2.9309    0.0000 Cl  0  0  0  0  0  0  0  0  0  0  0  0
    5.2226   -1.6934    0.0000 C   0  0  0  0  0  0  0  0  0  0  0  0
    5.9371   -2.1059    0.0000 Cl  0  0  0  0  0  0  0  0  0  0  0  0
    5.2226   -0.8684    0.0000 C   0  0  0  0  0  0  0  0  0  0  0  0
    4.5082   -0.4559    0.0000 C   0  0  0  0  0  0  0  0  0  0  0  0
    4.5082    0.3691    0.0000 Cl  0  0  0  0  0  0  0  0  0  0  0  0
  1  2  1  0  0  0  0
  3  2  2  0  0  0  0
  4  3  1  0  0  0  0
  4  5  1  0  0  0  0
  6  4  2  0  0  0  0
  6  7  1  0  0  0  0
  8  6  1  0  0  0  0
  9  8  2  0  0  0  0
  2  9  1  0  0  0  0
  9 10  1  0  0  0  0
 10 11  1  0  0  0  0
 12 11  2  0  0  0  0
 13 12  1  0  0  0  0
 13 14  1  0  0  0  0
 15 13  2  0  0  0  0
 15 16  1  0  0  0  0
 17 15  1  0  0  0  0
 18 17  2  0  0  0  0
 11 18  1  0  0  0  0
 18 19  1  0  0  0  0
M  END
> <ChemID>
100570

> <CAS>
71859-30-8

> <Original_SMILES>
Clc1cc(Cl)c(Cl)cc1Oc1cc(Cl)c(Cl)cc1Cl

> <preferred_name>
2,2',4,4',5,5'-Hexachlorodiphenyl ether

> <dsstox_substance_id>
DTXSID80222127

> <dsstox_compound_id>
DTXCID80144618

> <qc_level>
Public_Medium

> <Canonical_QSARr>
ClC1C=C(Cl)C(=CC=1Cl)OC1=CC(Cl)=C(Cl)C=C1Cl

> <InChI_Code_QSARr>
InChI=1S/C12H4Cl6O/c13-5-1-9(17)11(3-7(5)15)19-12-4-8(16)6(14)2-10(12)18/h1-4H

> <InChI Key_QSARr>
PECXRRMHOQBOIE-UHFFFAOYSA-N

> <Salt_Solvent>


> <Salt_Solvent_ID>
0

> <MPID>
102158

> <LogKmHL>
1.98

> <Tr_1_Tst_0>
0

$$$$
100572
  Mrv171c012251910542D          

 16 17  0  0  0  0            999 V2000
    0.4019    1.5211    0.0000 C   0  0  0  0  0  0  0  0  0  0  0  0
   -0.3126    1.9336    0.0000 C   0  0  0  0  0  0  0  0  0  0  0  0
   -0.3126    2.7586    0.0000 Cl  0  0  0  0  0  0  0  0  0  0  0  0
   -1.0271    1.5211    0.0000 C   0  0  0  0  0  0  0  0  0  0  0  0
   -1.0271    0.6961    0.0000 C   0  0  0  0  0  0  0  0  0  0  0  0
   -0.3126    0.2836    0.0000 C   0  0  0  0  0  0  0  0  0  0  0  0
   -0.3126   -0.5414    0.0000 Cl  0  0  0  0  0  0  0  0  0  0  0  0
    0.4019    0.6961    0.0000 C   0  0  0  0  0  0  0  0  0  0  0  0
    1.1164    0.2836    0.0000 Cl  0  0  0  0  0  0  0  0  0  0  0  0
    1.1164    1.9336    0.0000 C   0  0  0  0  0  0  0  0  0  0  0  0
    1.8308    1.5211    0.0000 C   0  0  0  0  0  0  0  0  0  0  0  0
    2.5453    1.9336    0.0000 C   0  0  0  0  0  0  0  0  0  0  0  0
    2.5453    2.7586    0.0000 C   0  0  0  0  0  0  0  0  0  0  0  0
    1.8308    3.1711    0.0000 C   0  0  0  0  0  0  0  0  0  0  0  0
    1.8308    3.9961    0.0000 Cl  0  0  0  0  0  0  0  0  0  0  0  0
    1.1164    2.7586    0.0000 C   0  0  0  0  0  0  0  0  0  0  0  0
  2  1  1  0  0  0  0
  2  3  1  0  0  0  0
  4  2  2  0  0  0  0
  5  4  1  0  0  0  0
  6  5  2  0  0  0  0
  6  7  1  0  0  0  0
  8  6  1  0  0  0  0
  1  8  2  0  0  0  0
  8  9  1  0  0  0  0
  1 10  1  0  0  0  0
 11 10  1  0  0  0  0
 12 11  2  0  0  0  0
 13 12  1  0  0  0  0
 14 13  2  0  0  0  0
 14 15  1  0  0  0  0
 16 14  1  0  0  0  0
 10 16  2  0  0  0  0
M  END
> <ChemID>
100572

> <CAS>
74472-33-6

> <Original_SMILES>
Clc1cc(ccc1)-c1c(Cl)c(Cl)ccc1Cl

> <preferred_name>
2,3,3',6-Tetrachlorobiphenyl

> <dsstox_substance_id>
DTXSID9074222

> <dsstox_compound_id>
DTXCID4047672

> <qc_level>
Public_High

> <Canonical_QSARr>
ClC1C=C(C=CC=1)C1=C(Cl)C(Cl)=CC=C1Cl

> <InChI_Code_QSARr>
InChI=1S/C12H6Cl4/c13-8-3-1-2-7(6-8)11-9(14)4-5-10(15)12(11)16/h1-6H

> <InChI Key_QSARr>
WZNAMGYIQPAXDH-UHFFFAOYSA-N

> <Salt_Solvent>


> <Salt_Solvent_ID>
0

> <MPID>
102159

> <LogKmHL>
2.47

> <Tr_1_Tst_0>
1

$$$$
100573
  Mrv171c012251910542D          

 16 17  0  0  0  0            999 V2000
    0.4019    1.9852    0.0000 C   0  0  0  0  0  0  0  0  0  0  0  0
    0.4019    2.8102    0.0000 C   0  0  0  0  0  0  0  0  0  0  0  0
   -0.3126    3.2227    0.0000 C   0  0  0  0  0  0  0  0  0  0  0  0
   -0.3126    4.0477    0.0000 Cl  0  0  0  0  0  0  0  0  0  0  0  0
   -1.0271    2.8102    0.0000 C   0  0  0  0  0  0  0  0  0  0  0  0
   -1.0271    1.9852    0.0000 C   0  0  0  0  0  0  0  0  0  0  0  0
   -1.7415    1.5727    0.0000 Cl  0  0  0  0  0  0  0  0  0  0  0  0
   -0.3126    1.5727    0.0000 C   0  0  0  0  0  0  0  0  0  0  0  0
   -0.3126    0.7477    0.0000 Cl  0  0  0  0  0  0  0  0  0  0  0  0
    1.1164    1.5727    0.0000 C   0  0  0  0  0  0  0  0  0  0  0  0
    1.1164    0.7477    0.0000 C   0  0  0  0  0  0  0  0  0  0  0  0
    1.8308    0.3352    0.0000 C   0  0  0  0  0  0  0  0  0  0  0  0
    2.5453    0.7477    0.0000 C   0  0  0  0  0  0  0  0  0  0  0  0
    3.2598    0.3352    0.0000 Cl  0  0  0  0  0  0  0  0  0  0  0  0
    2.5453    1.5727    0.0000 C   0  0  0  0  0  0  0  0  0  0  0  0
    1.8308    1.9852    0.0000 C   0  0  0  0  0  0  0  0  0  0  0  0
  2  1  1  0  0  0  0
  3  2  2  0  0  0  0
  3  4  1  0  0  0  0
  5  3  1  0  0  0  0
  6  5  2  0  0  0  0
  6  7  1  0  0  0  0
  8  6  1  0  0  0  0
  1  8  2  0  0  0  0
  8  9  1  0  0  0  0
  1 10  1  0  0  0  0
 11 10  1  0  0  0  0
 12 11  2  0  0  0  0
 13 12  1  0  0  0  0
 13 14  1  0  0  0  0
 15 13  2  0  0  0  0
 16 15  1  0  0  0  0
 10 16  2  0  0  0  0
M  END
> <ChemID>
100573

> <CAS>
74472-34-7

> <Original_SMILES>
Clc1cc(Cl)cc(-c2ccc(Cl)cc2)c1Cl

> <preferred_name>
2,3,4',5-Tetrachlorobiphenyl

> <dsstox_substance_id>
DTXSID4074223

> <dsstox_compound_id>
DTXCID9047673

> <qc_level>
Public_High

> <Canonical_QSARr>
ClC1=CC(Cl)=CC(C2C=CC(Cl)=CC=2)=C1Cl

> <InChI_Code_QSARr>
InChI=1S/C12H6Cl4/c13-8-3-1-7(2-4-8)10-5-9(14)6-11(15)12(10)16/h1-6H

> <InChI Key_QSARr>
CITMYAMXIZQCJD-UHFFFAOYSA-N

> <Salt_Solvent>


> <Salt_Solvent_ID>
0

> <MPID>
102160

> <LogKmHL>
2.43

> <Tr_1_Tst_0>
1

$$$$
100574
  Mrv171c012251910542D          

 17 18  0  0  0  0            999 V2000
    0.5464    2.0626    0.0000 C   0  0  0  0  0  0  0  0  0  0  0  0
    0.5464    2.8876    0.0000 C   0  0  0  0  0  0  0  0  0  0  0  0
   -0.1681    3.3001    0.0000 C   0  0  0  0  0  0  0  0  0  0  0  0
   -0.1681    4.1251    0.0000 Cl  0  0  0  0  0  0  0  0  0  0  0  0
   -0.8826    2.8876    0.0000 C   0  0  0  0  0  0  0  0  0  0  0  0
   -1.5970    3.3001    0.0000 Cl  0  0  0  0  0  0  0  0  0  0  0  0
   -0.8826    2.0626    0.0000 C   0  0  0  0  0  0  0  0  0  0  0  0
   -1.5970    1.6501    0.0000 Cl  0  0  0  0  0  0  0  0  0  0  0  0
   -0.1681    1.6501    0.0000 C   0  0  0  0  0  0  0  0  0  0  0  0
   -0.1681    0.8251    0.0000 Cl  0  0  0  0  0  0  0  0  0  0  0  0
    1.2609    1.6501    0.0000 C   0  0  0  0  0  0  0  0  0  0  0  0
    1.2609    0.8251    0.0000 C   0  0  0  0  0  0  0  0  0  0  0  0
    1.9753    0.4126    0.0000 C   0  0  0  0  0  0  0  0  0  0  0  0
    2.6898    0.8251    0.0000 C   0  0  0  0  0  0  0  0  0  0  0  0
    3.4043    0.4126    0.0000 Cl  0  0  0  0  0  0  0  0  0  0  0  0
    2.6898    1.6501    0.0000 C   0  0  0  0  0  0  0  0  0  0  0  0
    1.9753    2.0626    0.0000 C   0  0  0  0  0  0  0  0  0  0  0  0
  2  1  1  0  0  0  0
  3  2  2  0  0  0  0
  3  4  1  0  0  0  0
  5  3  1  0  0  0  0
  5  6  1  0  0  0  0
  7  5  2  0  0  0  0
  7  8  1  0  0  0  0
  9  7  1  0  0  0  0
  1  9  2  0  0  0  0
  9 10  1  0  0  0  0
  1 11  1  0  0  0  0
 12 11  1  0  0  0  0
 13 12  2  0  0  0  0
 14 13  1  0  0  0  0
 14 15  1  0  0  0  0
 16 14  2  0  0  0  0
 17 16  1  0  0  0  0
 11 17  2  0  0  0  0
M  END
> <ChemID>
100574

> <CAS>
74472-37-0

> <Original_SMILES>
Clc1ccc(cc1)-c1cc(Cl)c(Cl)c(Cl)c1Cl

> <preferred_name>
2,3,4,4',5-Pentachlorobiphenyl

> <dsstox_substance_id>
DTXSID9074226

> <dsstox_compound_id>
DTXCID4047676

> <qc_level>
Public_High

> <Canonical_QSARr>
ClC1C=CC(=CC=1)C1C=C(Cl)C(Cl)=C(Cl)C=1Cl

> <InChI_Code_QSARr>
InChI=1S/C12H5Cl5/c13-7-3-1-6(2-4-7)8-5-9(14)11(16)12(17)10(8)15/h1-5H

> <InChI Key_QSARr>
SXZSFWHOSHAKMN-UHFFFAOYSA-N

> <Salt_Solvent>


> <Salt_Solvent_ID>
0

> <MPID>
102161

> <LogKmHL>
2.36

> <Tr_1_Tst_0>
1

$$$$
100575
  Mrv171c012251910542D          

 17 18  0  0  0  0            999 V2000
    2.0593   -0.1698    0.0000 Cl  0  0  0  0  0  0  0  0  0  0  0  0
    1.3449   -0.5823    0.0000 C   0  0  0  0  0  0  0  0  0  0  0  0
    0.6304   -0.1698    0.0000 C   0  0  0  0  0  0  0  0  0  0  0  0
    0.6304    0.6552    0.0000 Cl  0  0  0  0  0  0  0  0  0  0  0  0
   -0.0841   -0.5823    0.0000 C   0  0  0  0  0  0  0  0  0  0  0  0
   -0.7985   -0.1698    0.0000 Cl  0  0  0  0  0  0  0  0  0  0  0  0
   -0.0841   -1.4073    0.0000 C   0  0  0  0  0  0  0  0  0  0  0  0
    0.6304   -1.8198    0.0000 C   0  0  0  0  0  0  0  0  0  0  0  0
    0.6304   -2.6448    0.0000 Cl  0  0  0  0  0  0  0  0  0  0  0  0
    1.3449   -1.4073    0.0000 C   0  0  0  0  0  0  0  0  0  0  0  0
    2.0593   -1.8198    0.0000 C   0  0  0  0  0  0  0  0  0  0  0  0
    2.0593   -2.6448    0.0000 C   0  0  0  0  0  0  0  0  0  0  0  0
    2.7738   -3.0573    0.0000 C   0  0  0  0  0  0  0  0  0  0  0  0
    3.4883   -2.6448    0.0000 C   0  0  0  0  0  0  0  0  0  0  0  0
    4.2027   -3.0573    0.0000 Cl  0  0  0  0  0  0  0  0  0  0  0  0
    3.4883   -1.8198    0.0000 C   0  0  0  0  0  0  0  0  0  0  0  0
    2.7738   -1.4073    0.0000 C   0  0  0  0  0  0  0  0  0  0  0  0
  1  2  1  0  0  0  0
  3  2  1  0  0  0  0
  3  4  1  0  0  0  0
  5  3  2  0  0  0  0
  5  6  1  0  0  0  0
  7  5  1  0  0  0  0
  8  7  2  0  0  0  0
  8  9  1  0  0  0  0
 10  8  1  0  0  0  0
  2 10  2  0  0  0  0
 10 11  1  0  0  0  0
 12 11  1  0  0  0  0
 13 12  2  0  0  0  0
 14 13  1  0  0  0  0
 14 15  1  0  0  0  0
 16 14  2  0  0  0  0
 17 16  1  0  0  0  0
 11 17  2  0  0  0  0
M  END
> <ChemID>
100575

> <CAS>
74472-38-1

> <Original_SMILES>
Clc1ccc(cc1)-c1c(Cl)c(Cl)c(Cl)cc1Cl

> <preferred_name>
2,3,4,4',6-Pentachlorobiphenyl

> <dsstox_substance_id>
DTXSID4074227

> <dsstox_compound_id>
DTXCID9047677

> <qc_level>
Public_High

> <Canonical_QSARr>
ClC1C=C(Cl)C(C2C=CC(Cl)=CC=2)=C(Cl)C=1Cl

> <InChI_Code_QSARr>
InChI=1S/C12H5Cl5/c13-7-3-1-6(2-4-7)10-8(14)5-9(15)11(16)12(10)17/h1-5H

> <InChI Key_QSARr>
IOVARPVVZDOPGQ-UHFFFAOYSA-N

> <Salt_Solvent>


> <Salt_Solvent_ID>
0

> <MPID>
102162

> <LogKmHL>
1.84

> <Tr_1_Tst_0>
0

$$$$
100576
  Mrv171c012251910542D          

 18 19  0  0  0  0            999 V2000
    2.5404   -2.2918    0.0000 C   0  0  0  0  0  0  0  0  0  0  0  0
    3.2548   -1.8793    0.0000 Cl  0  0  0  0  0  0  0  0  0  0  0  0
    1.8259   -1.8793    0.0000 C   0  0  0  0  0  0  0  0  0  0  0  0
    1.8259   -1.0543    0.0000 Cl  0  0  0  0  0  0  0  0  0  0  0  0
    1.1114   -2.2918    0.0000 C   0  0  0  0  0  0  0  0  0  0  0  0
    1.1114   -3.1168    0.0000 C   0  0  0  0  0  0  0  0  0  0  0  0
    0.3970   -3.5293    0.0000 C   0  0  0  0  0  0  0  0  0  0  0  0
   -0.3175   -3.1168    0.0000 C   0  0  0  0  0  0  0  0  0  0  0  0
   -0.3175   -2.2918    0.0000 Cl  0  0  0  0  0  0  0  0  0  0  0  0
   -1.0320   -3.5293    0.0000 C   0  0  0  0  0  0  0  0  0  0  0  0
   -1.0320   -4.3543    0.0000 C   0  0  0  0  0  0  0  0  0  0  0  0
   -1.7465   -4.7668    0.0000 Cl  0  0  0  0  0  0  0  0  0  0  0  0
   -0.3175   -4.7668    0.0000 C   0  0  0  0  0  0  0  0  0  0  0  0
   -0.3175   -5.5918    0.0000 Cl  0  0  0  0  0  0  0  0  0  0  0  0
    0.3970   -4.3543    0.0000 C   0  0  0  0  0  0  0  0  0  0  0  0
    1.1114   -4.7668    0.0000 Cl  0  0  0  0  0  0  0  0  0  0  0  0
    1.8259   -3.5293    0.0000 C   0  0  0  0  0  0  0  0  0  0  0  0
    2.5404   -3.1168    0.0000 C   0  0  0  0  0  0  0  0  0  0  0  0
  1  2  1  0  0  0  0
  3  1  1  0  0  0  0
  3  4  1  0  0  0  0
  5  3  2  0  0  0  0
  6  5  1  0  0  0  0
  6  7  1  0  0  0  0
  8  7  1  0  0  0  0
  8  9  1  0  0  0  0
 10  8  2  0  0  0  0
 11 10  1  0  0  0  0
 11 12  1  0  0  0  0
 13 11  2  0  0  0  0
 13 14  1  0  0  0  0
 15 13  1  0  0  0  0
  7 15  2  0  0  0  0
 15 16  1  0  0  0  0
 17  6  2  0  0  0  0
 18 17  1  0  0  0  0
  1 18  2  0  0  0  0
M  END
> <ChemID>
100576

> <CAS>
74472-42-7

> <Original_SMILES>
Clc1c(Cl)c(-c2cc(Cl)c(Cl)cc2)c(Cl)cc1Cl

> <preferred_name>
2,3,3',4,4',6-Hexachlorobiphenyl

> <dsstox_substance_id>
DTXSID8074231

> <dsstox_compound_id>
DTXCID3047681

> <qc_level>
Public_High

> <Canonical_QSARr>
ClC1C=C(Cl)C(C2C=C(Cl)C(Cl)=CC=2)=C(Cl)C=1Cl

> <InChI_Code_QSARr>
InChI=1S/C12H4Cl6/c13-6-2-1-5(3-7(6)14)10-8(15)4-9(16)11(17)12(10)18/h1-4H

> <InChI Key_QSARr>
ZQUPQXINXTWCQR-UHFFFAOYSA-N

> <Salt_Solvent>


> <Salt_Solvent_ID>
0

> <MPID>
102163

> <LogKmHL>
2.57

> <Tr_1_Tst_0>
1

$$$$
100577
  Mrv171c012251910542D          

 18 19  0  0  0  0            999 V2000
    2.2228    0.0000    0.0000 Cl  0  0  0  0  0  0  0  0  0  0  0  0
    1.5083   -0.4125    0.0000 C   0  0  0  0  0  0  0  0  0  0  0  0
    0.7938    0.0000    0.0000 C   0  0  0  0  0  0  0  0  0  0  0  0
    0.7938    0.8250    0.0000 Cl  0  0  0  0  0  0  0  0  0  0  0  0
    0.0794   -0.4125    0.0000 C   0  0  0  0  0  0  0  0  0  0  0  0
    0.0794   -1.2375    0.0000 C   0  0  0  0  0  0  0  0  0  0  0  0
   -0.6351   -1.6500    0.0000 Cl  0  0  0  0  0  0  0  0  0  0  0  0
    0.7938   -1.6500    0.0000 C   0  0  0  0  0  0  0  0  0  0  0  0
    0.7938   -2.4750    0.0000 Cl  0  0  0  0  0  0  0  0  0  0  0  0
    1.5083   -1.2375    0.0000 C   0  0  0  0  0  0  0  0  0  0  0  0
    2.2228   -1.6500    0.0000 C   0  0  0  0  0  0  0  0  0  0  0  0
    2.2228   -2.4750    0.0000 C   0  0  0  0  0  0  0  0  0  0  0  0
    2.9372   -2.8875    0.0000 C   0  0  0  0  0  0  0  0  0  0  0  0
    2.9372   -3.7125    0.0000 Cl  0  0  0  0  0  0  0  0  0  0  0  0
    3.6517   -2.4750    0.0000 C   0  0  0  0  0  0  0  0  0  0  0  0
    4.3662   -2.8875    0.0000 Cl  0  0  0  0  0  0  0  0  0  0  0  0
    3.6517   -1.6500    0.0000 C   0  0  0  0  0  0  0  0  0  0  0  0
    2.9372   -1.2375    0.0000 C   0  0  0  0  0  0  0  0  0  0  0  0
  1  2  1  0  0  0  0
  3  2  1  0  0  0  0
  3  4  1  0  0  0  0
  5  3  2  0  0  0  0
  6  5  1  0  0  0  0
  6  7  1  0  0  0  0
  8  6  2  0  0  0  0
  8  9  1  0  0  0  0
 10  8  1  0  0  0  0
  2 10  2  0  0  0  0
 10 11  1  0  0  0  0
 12 11  1  0  0  0  0
 13 12  2  0  0  0  0
 13 14  1  0  0  0  0
 15 13  1  0  0  0  0
 15 16  1  0  0  0  0
 17 15  2  0  0  0  0
 18 17  1  0  0  0  0
 11 18  2  0  0  0  0
M  END
> <ChemID>
100577

> <CAS>
74472-44-9

> <Original_SMILES>
Clc1ccc(cc1Cl)-c1c(Cl)c(Cl)cc(Cl)c1Cl

> <preferred_name>
2,3,3',4',5,6-Hexachlorobiphenyl

> <dsstox_substance_id>
DTXSID8074233

> <dsstox_compound_id>
DTXCID3047683

> <qc_level>
Public_High

> <Canonical_QSARr>
ClC1C=C(Cl)C(Cl)=C(C2C=C(Cl)C(Cl)=CC=2)C=1Cl

> <InChI_Code_QSARr>
InChI=1S/C12H4Cl6/c13-6-2-1-5(3-7(6)14)10-11(17)8(15)4-9(16)12(10)18/h1-4H

> <InChI Key_QSARr>
ZAGRQXMWMRUYRB-UHFFFAOYSA-N

> <Salt_Solvent>


> <Salt_Solvent_ID>
0

> <MPID>
102164

> <LogKmHL>
2.61

> <Tr_1_Tst_0>
1

$$$$
100578
  Mrv171c012251910542D          

 20 21  0  0  0  0            999 V2000
    0.3930   -2.2481    0.0000 C   0  0  0  0  0  0  0  0  0  0  0  0
   -0.3215   -1.8356    0.0000 C   0  0  0  0  0  0  0  0  0  0  0  0
   -0.3215   -1.0106    0.0000 C   0  0  0  0  0  0  0  0  0  0  0  0
    0.3930   -0.5981    0.0000 C   0  0  0  0  0  0  0  0  0  0  0  0
    0.3930    0.2269    0.0000 C   0  0  0  0  0  0  0  0  0  0  0  0
    1.1074    0.6394    0.0000 Cl  0  0  0  0  0  0  0  0  0  0  0  0
   -0.3215    0.6394    0.0000 C   0  0  0  0  0  0  0  0  0  0  0  0
   -0.3215    1.4644    0.0000 Cl  0  0  0  0  0  0  0  0  0  0  0  0
   -1.0360    0.2269    0.0000 C   0  0  0  0  0  0  0  0  0  0  0  0
   -1.7505    0.6394    0.0000 Cl  0  0  0  0  0  0  0  0  0  0  0  0
   -1.0360   -0.5981    0.0000 C   0  0  0  0  0  0  0  0  0  0  0  0
   -1.0360   -2.2481    0.0000 C   0  0  0  0  0  0  0  0  0  0  0  0
   -1.7505   -1.8356    0.0000 Cl  0  0  0  0  0  0  0  0  0  0  0  0
   -1.0360   -3.0731    0.0000 C   0  0  0  0  0  0  0  0  0  0  0  0
   -1.7505   -3.4856    0.0000 Cl  0  0  0  0  0  0  0  0  0  0  0  0
   -0.3215   -3.4856    0.0000 C   0  0  0  0  0  0  0  0  0  0  0  0
   -0.3215   -4.3106    0.0000 Cl  0  0  0  0  0  0  0  0  0  0  0  0
    0.3930   -3.0731    0.0000 C   0  0  0  0  0  0  0  0  0  0  0  0
    1.1074   -3.4856    0.0000 Cl  0  0  0  0  0  0  0  0  0  0  0  0
    1.1074   -1.8356    0.0000 Cl  0  0  0  0  0  0  0  0  0  0  0  0
  2  1  1  0  0  0  0
  2  3  1  0  0  0  0
  4  3  1  0  0  0  0
  5  4  2  0  0  0  0
  5  6  1  0  0  0  0
  7  5  1  0  0  0  0
  7  8  1  0  0  0  0
  9  7  2  0  0  0  0
  9 10  1  0  0  0  0
 11  9  1  0  0  0  0
  3 11  2  0  0  0  0
 12  2  2  0  0  0  0
 12 13  1  0  0  0  0
 14 12  1  0  0  0  0
 14 15  1  0  0  0  0
 16 14  2  0  0  0  0
 16 17  1  0  0  0  0
 18 16  1  0  0  0  0
  1 18  2  0  0  0  0
 18 19  1  0  0  0  0
  1 20  1  0  0  0  0
M  END
> <ChemID>
100578

> <CAS>
74472-53-0

> <Original_SMILES>
Clc1cc(cc(Cl)c1Cl)-c1c(Cl)c(Cl)c(Cl)c(Cl)c1Cl

> <preferred_name>
2,3,3',4,4',5,5',6-Octachlorobiphenyl

> <dsstox_substance_id>
DTXSID2074241

> <dsstox_compound_id>
DTXCID2047692

> <qc_level>
Public_High

> <Canonical_QSARr>
ClC1C=C(C=C(Cl)C=1Cl)C1C(Cl)=C(Cl)C(Cl)=C(Cl)C=1Cl

> <InChI_Code_QSARr>
InChI=1S/C12H2Cl8/c13-4-1-3(2-5(14)7(4)15)6-8(16)10(18)12(20)11(19)9(6)17/h1-2H

> <InChI Key_QSARr>
VXXBCDUYUQKWCK-UHFFFAOYSA-N

> <Salt_Solvent>


> <Salt_Solvent_ID>
0

> <MPID>
102165

> <LogKmHL>
2.65

> <Tr_1_Tst_0>
1

$$$$
100579
  Mrv171c012251910542D          

 15 17  0  0  0  0            999 V2000
    6.0901    1.1854    0.0000 Cl  0  0  0  0  0  0  0  0  0  0  0  0
    5.8351    0.4008    0.0000 C   0  0  0  0  0  0  0  0  0  0  0  0
    6.3872   -0.2123    0.0000 C   0  0  0  0  0  0  0  0  0  0  0  0
    6.1322   -0.9970    0.0000 C   0  0  0  0  0  0  0  0  0  0  0  0
    5.3252   -1.1685    0.0000 C   0  0  0  0  0  0  0  0  0  0  0  0
    4.7732   -0.5554    0.0000 C   0  0  0  0  0  0  0  0  0  0  0  0
    5.0281    0.2292    0.0000 C   0  0  0  0  0  0  0  0  0  0  0  0
    4.3607    0.7142    0.0000 O   0  0  0  0  0  0  0  0  0  0  0  0
    3.6933    0.2292    0.0000 C   0  0  0  0  0  0  0  0  0  0  0  0
    2.8863    0.4008    0.0000 C   0  0  0  0  0  0  0  0  0  0  0  0
    2.3343   -0.2123    0.0000 C   0  0  0  0  0  0  0  0  0  0  0  0
    1.5273   -0.0408    0.0000 Cl  0  0  0  0  0  0  0  0  0  0  0  0
    2.5892   -0.9970    0.0000 C   0  0  0  0  0  0  0  0  0  0  0  0
    3.3962   -1.1685    0.0000 C   0  0  0  0  0  0  0  0  0  0  0  0
    3.9482   -0.5554    0.0000 C   0  0  0  0  0  0  0  0  0  0  0  0
  1  2  1  0  0  0  0
  3  2  2  0  0  0  0
  4  3  1  0  0  0  0
  5  4  2  0  0  0  0
  6  5  1  0  0  0  0
  6  7  2  0  0  0  0
  2  7  1  0  0  0  0
  7  8  1  0  0  0  0
  8  9  1  0  0  0  0
 10  9  1  0  0  0  0
 11 10  2  0  0  0  0
 11 12  1  0  0  0  0
 13 11  1  0  0  0  0
 14 13  2  0  0  0  0
 15 14  1  0  0  0  0
  9 15  2  0  0  0  0
 15  6  1  0  0  0  0
M  END
> <ChemID>
100579

> <CAS>
74918-40-4

> <Original_SMILES>
Clc1cc2oc3c(cccc3Cl)c2cc1

> <preferred_name>
3,6-Dichlorodibenzofuran

> <dsstox_substance_id>
DTXSID00225892

> <dsstox_compound_id>
DTXCID30148383

> <qc_level>
Public_Medium

> <Canonical_QSARr>
ClC1=CC=CC2=C1OC1C=C(Cl)C=CC=12

> <InChI_Code_QSARr>
InChI=1S/C12H6Cl2O/c13-7-4-5-8-9-2-1-3-10(14)12(9)15-11(8)6-7/h1-6H

> <InChI Key_QSARr>
DMOBGFAKTSXOHG-UHFFFAOYSA-N

> <Salt_Solvent>


> <Salt_Solvent_ID>
0

> <MPID>
102166

> <LogKmHL>
0.58

> <Tr_1_Tst_0>
0

$$$$
100580
  Mrv171c012251910542D          

 19 21  0  0  0  0            999 V2000
    2.0271    0.5840    0.0000 C   0  0  0  0  0  0  0  0  0  0  0  0
    2.5792    1.1971    0.0000 C   0  0  0  0  0  0  0  0  0  0  0  0
    2.3242    1.9817    0.0000 Cl  0  0  0  0  0  0  0  0  0  0  0  0
    3.3861    1.0256    0.0000 C   0  0  0  0  0  0  0  0  0  0  0  0
    3.9382    1.6387    0.0000 Cl  0  0  0  0  0  0  0  0  0  0  0  0
    3.6411    0.2410    0.0000 C   0  0  0  0  0  0  0  0  0  0  0  0
    4.4480    0.0694    0.0000 Cl  0  0  0  0  0  0  0  0  0  0  0  0
    3.0890   -0.3721    0.0000 C   0  0  0  0  0  0  0  0  0  0  0  0
    3.3440   -1.1567    0.0000 Cl  0  0  0  0  0  0  0  0  0  0  0  0
    2.2821   -0.2006    0.0000 C   0  0  0  0  0  0  0  0  0  0  0  0
    1.6146   -0.6855    0.0000 O   0  0  0  0  0  0  0  0  0  0  0  0
    0.9472   -0.2006    0.0000 C   0  0  0  0  0  0  0  0  0  0  0  0
    0.1402   -0.3721    0.0000 C   0  0  0  0  0  0  0  0  0  0  0  0
   -0.1147   -1.1567    0.0000 Cl  0  0  0  0  0  0  0  0  0  0  0  0
   -0.4118    0.2410    0.0000 C   0  0  0  0  0  0  0  0  0  0  0  0
   -0.1569    1.0256    0.0000 C   0  0  0  0  0  0  0  0  0  0  0  0
    0.6501    1.1971    0.0000 C   0  0  0  0  0  0  0  0  0  0  0  0
    1.2021    0.5840    0.0000 C   0  0  0  0  0  0  0  0  0  0  0  0
   -1.2188    0.0694    0.0000 Cl  0  0  0  0  0  0  0  0  0  0  0  0
  2  1  1  0  0  0  0
  2  3  1  0  0  0  0
  4  2  2  0  0  0  0
  4  5  1  0  0  0  0
  6  4  1  0  0  0  0
  6  7  1  0  0  0  0
  8  6  2  0  0  0  0
  8  9  1  0  0  0  0
 10  8  1  0  0  0  0
 10  1  2  0  0  0  0
 11 10  1  0  0  0  0
 12 11  1  0  0  0  0
 12 13  1  0  0  0  0
 13 14  1  0  0  0  0
 13 15  2  0  0  0  0
 15 16  1  0  0  0  0
 16 17  2  0  0  0  0
 17 18  1  0  0  0  0
  1 18  1  0  0  0  0
 18 12  2  0  0  0  0
 15 19  1  0  0  0  0
M  END
> <ChemID>
100580

> <CAS>
79060-60-9

> <Original_SMILES>
Clc1ccc2c(oc3c2c(Cl)c(Cl)c(Cl)c3Cl)c1Cl

> <preferred_name>
Dibenzofuran, 1,2,3,4,6,7-hexachloro-

> <dsstox_substance_id>
DTXSID1075270

> <dsstox_compound_id>
DTXCID4048145

> <qc_level>
Public_High

> <Canonical_QSARr>
ClC1C=CC2=C(OC3=C2C(Cl)=C(Cl)C(Cl)=C3Cl)C=1Cl

> <InChI_Code_QSARr>
InChI=1S/C12H2Cl6O/c13-4-2-1-3-5-7(15)8(16)9(17)10(18)12(5)19-11(3)6(4)14/h1-2H

> <InChI Key_QSARr>
SNWFMKXFMVHBKD-UHFFFAOYSA-N

> <Salt_Solvent>


> <Salt_Solvent_ID>
0

> <MPID>
102167

> <LogKmHL>
0.43

> <Tr_1_Tst_0>
1

$$$$
100581
  Mrv171c012251910542D          

 23 23  0  0  0  0            999 V2000
    2.1495   -1.2412    0.0000 C   0  0  0  0  0  0  0  0  0  0  0  0
    2.8639   -0.8287    0.0000 O   0  0  0  0  0  0  0  0  0  0  0  0
    3.5784   -1.2412    0.0000 C   0  0  0  0  0  0  0  0  0  0  0  0
    4.2929   -0.8287    0.0000 C   0  0  0  0  0  0  0  0  0  0  0  0
    4.2929   -0.0037    0.0000 O   0  0  0  0  0  0  0  0  0  0  0  0
    5.0073   -1.2412    0.0000 O   0  0  0  0  0  0  0  0  0  0  0  0
    5.7218   -0.8287    0.0000 C   0  0  0  0  0  0  0  0  0  0  0  0
    5.7218   -0.0037    0.0000 C   0  0  0  0  0  0  0  0  0  0  0  0
    6.4363   -1.2412    0.0000 C   0  0  0  0  0  0  0  0  0  0  0  0
    7.1507   -0.8287    0.0000 C   0  0  0  0  0  0  0  0  0  0  0  0
    7.8652   -1.2412    0.0000 C   0  0  0  0  0  0  0  0  0  0  0  0
    8.5797   -0.8287    0.0000 C   0  0  0  0  0  0  0  0  0  0  0  0
    9.2942   -1.2412    0.0000 C   0  0  0  0  0  0  0  0  0  0  0  0
   10.0086   -0.8287    0.0000 C   0  0  0  0  0  0  0  0  0  0  0  0
    1.4350   -0.8287    0.0000 N   0  0  0  0  0  0  0  0  0  0  0  0
    0.7205   -1.2412    0.0000 C   0  0  0  0  0  0  0  0  0  0  0  0
    0.0060   -0.8287    0.0000 F   0  0  0  0  0  0  0  0  0  0  0  0
    0.7205   -2.0662    0.0000 C   0  0  0  0  0  0  0  0  0  0  0  0
    0.0060   -2.4787    0.0000 Cl  0  0  0  0  0  0  0  0  0  0  0  0
    1.4350   -2.4787    0.0000 C   0  0  0  0  0  0  0  0  0  0  0  0
    1.4350   -3.3037    0.0000 N   0  0  0  0  0  0  0  0  0  0  0  0
    2.1495   -2.0662    0.0000 C   0  0  0  0  0  0  0  0  0  0  0  0
    2.8639   -2.4787    0.0000 Cl  0  0  0  0  0  0  0  0  0  0  0  0
  1  2  1  0  0  0  0
  2  3  1  0  0  0  0
  3  4  1  0  0  0  0
  4  5  2  0  0  0  0
  4  6  1  0  0  0  0
  6  7  1  0  0  0  0
  7  8  1  0  0  0  0
  7  9  1  0  0  0  0
  9 10  1  0  0  0  0
 10 11  1  0  0  0  0
 11 12  1  0  0  0  0
 12 13  1  0  0  0  0
 13 14  1  0  0  0  0
 15  1  2  0  0  0  0
 16 15  1  0  0  0  0
 16 17  1  0  0  0  0
 18 16  2  0  0  0  0
 18 19  1  0  0  0  0
 20 18  1  0  0  0  0
 20 21  1  0  0  0  0
 22 20  2  0  0  0  0
  1 22  1  0  0  0  0
 22 23  1  0  0  0  0
M  END
> <ChemID>
100581

> <CAS>
81406-37-3

> <Original_SMILES>
CCCCCCC(C)OC(=O)COc1[n]c(F)c(Cl)c(N)c1Cl

> <preferred_name>
Fluroxypyr-meptyl

> <dsstox_substance_id>
DTXSID5034303

> <dsstox_compound_id>
DTXCID3014303

> <qc_level>
DSSTox_Low

> <Canonical_QSARr>
CCCCCCC(C)OC(=O)COC1=NC(F)=C(Cl)C(N)=C1Cl

> <InChI_Code_QSARr>
InChI=1S/C15H21Cl2FN2O3/c1-3-4-5-6-7-9(2)23-10(21)8-22-15-12(17)13(19)11(16)14(18)20-15/h9H,3-8H2,1-2H3,(H2,19,20)

> <InChI Key_QSARr>
OLZQTUCTGLHFTQ-UHFFFAOYSA-N

> <Salt_Solvent>


> <Salt_Solvent_ID>
0

> <MPID>
102168

> <LogKmHL>
-0.61

> <Tr_1_Tst_0>
1

$$$$
100582
  Mrv171c012251910542D          

 20 21  0  0  0  0            999 V2000
    2.9363    1.8150    0.0000 Cl  0  0  0  0  0  0  0  0  0  0  0  0
    3.6508    1.4025    0.0000 C   0  0  0  0  0  0  0  0  0  0  0  0
    4.3653    1.8150    0.0000 C   0  0  0  0  0  0  0  0  0  0  0  0
    4.3653    2.6400    0.0000 Cl  0  0  0  0  0  0  0  0  0  0  0  0
    5.0797    1.4025    0.0000 C   0  0  0  0  0  0  0  0  0  0  0  0
    5.7942    1.8150    0.0000 Cl  0  0  0  0  0  0  0  0  0  0  0  0
    5.0797    0.5775    0.0000 C   0  0  0  0  0  0  0  0  0  0  0  0
    5.7942    0.1650    0.0000 Cl  0  0  0  0  0  0  0  0  0  0  0  0
    4.3653    0.1650    0.0000 C   0  0  0  0  0  0  0  0  0  0  0  0
    3.6508    0.5775    0.0000 C   0  0  0  0  0  0  0  0  0  0  0  0
    2.9363    0.1650    0.0000 O   0  0  0  0  0  0  0  0  0  0  0  0
    2.9363   -0.6600    0.0000 C   0  0  0  0  0  0  0  0  0  0  0  0
    2.2218   -1.0725    0.0000 C   0  0  0  0  0  0  0  0  0  0  0  0
    2.2218   -1.8975    0.0000 C   0  0  0  0  0  0  0  0  0  0  0  0
    1.5074   -2.3100    0.0000 Cl  0  0  0  0  0  0  0  0  0  0  0  0
    2.9363   -2.3100    0.0000 C   0  0  0  0  0  0  0  0  0  0  0  0
    2.9363   -3.1350    0.0000 Cl  0  0  0  0  0  0  0  0  0  0  0  0
    3.6508   -1.8975    0.0000 C   0  0  0  0  0  0  0  0  0  0  0  0
    3.6508   -1.0725    0.0000 C   0  0  0  0  0  0  0  0  0  0  0  0
    4.3653   -0.6600    0.0000 Cl  0  0  0  0  0  0  0  0  0  0  0  0
  1  2  1  0  0  0  0
  3  2  2  0  0  0  0
  3  4  1  0  0  0  0
  5  3  1  0  0  0  0
  5  6  1  0  0  0  0
  7  5  2  0  0  0  0
  7  8  1  0  0  0  0
  9  7  1  0  0  0  0
 10  9  2  0  0  0  0
  2 10  1  0  0  0  0
 10 11  1  0  0  0  0
 11 12  1  0  0  0  0
 13 12  2  0  0  0  0
 14 13  1  0  0  0  0
 14 15  1  0  0  0  0
 16 14  2  0  0  0  0
 16 17  1  0  0  0  0
 18 16  1  0  0  0  0
 19 18  2  0  0  0  0
 12 19  1  0  0  0  0
 19 20  1  0  0  0  0
M  END
> <ChemID>
100582

> <CAS>
83992-69-2

> <Original_SMILES>
Clc1cc(Cl)c(Cl)cc1Oc1cc(Cl)c(Cl)c(Cl)c1Cl

> <preferred_name>
2,2',3,4,4',5,5'-Heptachlorodiphenyl ether

> <dsstox_substance_id>
DTXSID30232872

> <dsstox_compound_id>
DTXCID60155363

> <qc_level>
Public_Medium

> <Canonical_QSARr>
ClC1C(=CC(Cl)=C(Cl)C=1Cl)OC1=CC(Cl)=C(Cl)C=C1Cl

> <InChI_Code_QSARr>
InChI=1S/C12H3Cl7O/c13-4-1-6(15)8(2-5(4)14)20-9-3-7(16)10(17)12(19)11(9)18/h1-3H

> <InChI Key_QSARr>
YBYYCWMPXZRBNJ-UHFFFAOYSA-N

> <Salt_Solvent>


> <Salt_Solvent_ID>
0

> <MPID>
102169

> <LogKmHL>
1.97

> <Tr_1_Tst_0>
1

$$$$
100586
  Mrv171c012251910542D          

 18 19  0  0  0  0            999 V2000
    5.7781    0.9167    0.0000 Cl  0  0  0  0  0  0  0  0  0  0  0  0
    5.0637    1.3292    0.0000 C   0  0  0  0  0  0  0  0  0  0  0  0
    5.0637    2.1542    0.0000 C   0  0  0  0  0  0  0  0  0  0  0  0
    4.3492    2.5667    0.0000 C   0  0  0  0  0  0  0  0  0  0  0  0
    4.3492    3.3917    0.0000 Cl  0  0  0  0  0  0  0  0  0  0  0  0
    3.6347    2.1542    0.0000 C   0  0  0  0  0  0  0  0  0  0  0  0
    3.6347    1.3292    0.0000 C   0  0  0  0  0  0  0  0  0  0  0  0
    2.9203    0.9167    0.0000 Cl  0  0  0  0  0  0  0  0  0  0  0  0
    4.3492    0.9167    0.0000 C   0  0  0  0  0  0  0  0  0  0  0  0
    4.3492    0.0917    0.0000 O   0  0  0  0  0  0  0  0  0  0  0  0
    3.6347   -0.3208    0.0000 C   0  0  0  0  0  0  0  0  0  0  0  0
    2.9203    0.0917    0.0000 C   0  0  0  0  0  0  0  0  0  0  0  0
    2.2058   -0.3208    0.0000 C   0  0  0  0  0  0  0  0  0  0  0  0
    2.2058   -1.1458    0.0000 C   0  0  0  0  0  0  0  0  0  0  0  0
    1.4913   -1.5583    0.0000 Cl  0  0  0  0  0  0  0  0  0  0  0  0
    2.9203   -1.5583    0.0000 C   0  0  0  0  0  0  0  0  0  0  0  0
    3.6347   -1.1458    0.0000 C   0  0  0  0  0  0  0  0  0  0  0  0
    4.3492   -1.5583    0.0000 Cl  0  0  0  0  0  0  0  0  0  0  0  0
  1  2  1  0  0  0  0
  3  2  1  0  0  0  0
  4  3  2  0  0  0  0
  4  5  1  0  0  0  0
  6  4  1  0  0  0  0
  7  6  2  0  0  0  0
  7  8  1  0  0  0  0
  9  7  1  0  0  0  0
  2  9  2  0  0  0  0
  9 10  1  0  0  0  0
 10 11  1  0  0  0  0
 12 11  1  0  0  0  0
 13 12  2  0  0  0  0
 14 13  1  0  0  0  0
 14 15  1  0  0  0  0
 16 14  2  0  0  0  0
 17 16  1  0  0  0  0
 11 17  2  0  0  0  0
 17 18  1  0  0  0  0
M  END
> <ChemID>
100586

> <CAS>
104294-16-8

> <Original_SMILES>
Clc1cc(Cl)c(Oc2ccc(Cl)cc2Cl)c(Cl)c1

> <preferred_name>
2,2',4,4',6-Pentachlorodiphenyl ether

> <dsstox_substance_id>
DTXSID00146376

> <dsstox_compound_id>
DTXCID5068867

> <qc_level>
Public_Medium

> <Canonical_QSARr>
ClC1C=C(Cl)C=C(Cl)C=1OC1C=CC(Cl)=CC=1Cl

> <InChI_Code_QSARr>
InChI=1S/C12H5Cl5O/c13-6-1-2-11(8(15)3-6)18-12-9(16)4-7(14)5-10(12)17/h1-5H

> <InChI Key_QSARr>
FONWDRSQXQZNBN-UHFFFAOYSA-N

> <Salt_Solvent>


> <Salt_Solvent_ID>
0

> <MPID>
102170

> <LogKmHL>
1.69

> <Tr_1_Tst_0>
0

$$$$
100587
  Mrv171c012251910542D          

 19 20  0  0  0  0            999 V2000
    1.6500    0.6948    0.0000 Cl  0  0  0  0  0  0  0  0  0  0  0  0
    2.3645    1.1073    0.0000 C   0  0  0  0  0  0  0  0  0  0  0  0
    2.3645    1.9323    0.0000 C   0  0  0  0  0  0  0  0  0  0  0  0
    3.0790    2.3448    0.0000 C   0  0  0  0  0  0  0  0  0  0  0  0
    3.0790    3.1698    0.0000 Cl  0  0  0  0  0  0  0  0  0  0  0  0
    3.7934    1.9323    0.0000 C   0  0  0  0  0  0  0  0  0  0  0  0
    4.5079    2.3448    0.0000 Cl  0  0  0  0  0  0  0  0  0  0  0  0
    3.7934    1.1073    0.0000 C   0  0  0  0  0  0  0  0  0  0  0  0
    3.0790    0.6948    0.0000 C   0  0  0  0  0  0  0  0  0  0  0  0
    3.0790   -0.1302    0.0000 O   0  0  0  0  0  0  0  0  0  0  0  0
    3.7934   -0.5427    0.0000 C   0  0  0  0  0  0  0  0  0  0  0  0
    3.7934   -1.3677    0.0000 C   0  0  0  0  0  0  0  0  0  0  0  0
    3.0790   -1.7802    0.0000 Cl  0  0  0  0  0  0  0  0  0  0  0  0
    4.5079   -1.7802    0.0000 C   0  0  0  0  0  0  0  0  0  0  0  0
    5.2224   -1.3677    0.0000 C   0  0  0  0  0  0  0  0  0  0  0  0
    5.9369   -1.7802    0.0000 Cl  0  0  0  0  0  0  0  0  0  0  0  0
    5.2224   -0.5427    0.0000 C   0  0  0  0  0  0  0  0  0  0  0  0
    4.5079   -0.1302    0.0000 C   0  0  0  0  0  0  0  0  0  0  0  0
    4.5079    0.6948    0.0000 Cl  0  0  0  0  0  0  0  0  0  0  0  0
  1  2  1  0  0  0  0
  3  2  2  0  0  0  0
  4  3  1  0  0  0  0
  4  5  1  0  0  0  0
  6  4  2  0  0  0  0
  6  7  1  0  0  0  0
  8  6  1  0  0  0  0
  9  8  2  0  0  0  0
  2  9  1  0  0  0  0
  9 10  1  0  0  0  0
 10 11  1  0  0  0  0
 12 11  1  0  0  0  0
 12 13  1  0  0  0  0
 14 12  2  0  0  0  0
 15 14  1  0  0  0  0
 15 16  1  0  0  0  0
 17 15  2  0  0  0  0
 18 17  1  0  0  0  0
 11 18  2  0  0  0  0
 18 19  1  0  0  0  0
M  END
> <ChemID>
100587

> <CAS>
106220-81-9

> <Original_SMILES>
Clc1cc(Cl)c(Oc2cc(Cl)c(Cl)cc2Cl)c(Cl)c1

> <preferred_name>
2,2',4,4',5,6'-Hexachlorodiphenyl ether

> <dsstox_substance_id>
DTXSID20147547

> <dsstox_compound_id>
DTXCID9070038

> <qc_level>
Public_Medium

> <Canonical_QSARr>
ClC1C=C(Cl)C(OC2=CC(Cl)=C(Cl)C=C2Cl)=C(Cl)C=1

> <InChI_Code_QSARr>
InChI=1S/C12H4Cl6O/c13-5-1-9(17)12(10(18)2-5)19-11-4-7(15)6(14)3-8(11)16/h1-4H

> <InChI Key_QSARr>
XKQUAQGQLZDDBV-UHFFFAOYSA-N

> <Salt_Solvent>


> <Salt_Solvent_ID>
0

> <MPID>
102171

> <LogKmHL>
2.01

> <Tr_1_Tst_0>
1

$$$$
100588
  Mrv171c012251910542D          

 19 20  0  0  0  0            999 V2000
    3.5303    1.1724    0.0000 Cl  0  0  0  0  0  0  0  0  0  0  0  0
    4.2447    0.7599    0.0000 C   0  0  0  0  0  0  0  0  0  0  0  0
    4.9592    1.1724    0.0000 C   0  0  0  0  0  0  0  0  0  0  0  0
    4.9592    1.9974    0.0000 Cl  0  0  0  0  0  0  0  0  0  0  0  0
    5.6737    0.7599    0.0000 C   0  0  0  0  0  0  0  0  0  0  0  0
    6.3882    1.1724    0.0000 Cl  0  0  0  0  0  0  0  0  0  0  0  0
    5.6737   -0.0651    0.0000 C   0  0  0  0  0  0  0  0  0  0  0  0
    4.9592   -0.4776    0.0000 C   0  0  0  0  0  0  0  0  0  0  0  0
    4.9592   -1.3026    0.0000 Cl  0  0  0  0  0  0  0  0  0  0  0  0
    4.2447   -0.0651    0.0000 C   0  0  0  0  0  0  0  0  0  0  0  0
    3.5303   -0.4776    0.0000 O   0  0  0  0  0  0  0  0  0  0  0  0
    2.8158   -0.0651    0.0000 C   0  0  0  0  0  0  0  0  0  0  0  0
    2.8158    0.7599    0.0000 C   0  0  0  0  0  0  0  0  0  0  0  0
    2.1013    1.1724    0.0000 C   0  0  0  0  0  0  0  0  0  0  0  0
    1.3869    0.7599    0.0000 C   0  0  0  0  0  0  0  0  0  0  0  0
    0.6724    1.1724    0.0000 Cl  0  0  0  0  0  0  0  0  0  0  0  0
    1.3869   -0.0651    0.0000 C   0  0  0  0  0  0  0  0  0  0  0  0
    2.1013   -0.4776    0.0000 C   0  0  0  0  0  0  0  0  0  0  0  0
    2.1013   -1.3026    0.0000 Cl  0  0  0  0  0  0  0  0  0  0  0  0
  1  2  1  0  0  0  0
  3  2  1  0  0  0  0
  3  4  1  0  0  0  0
  5  3  2  0  0  0  0
  5  6  1  0  0  0  0
  7  5  1  0  0  0  0
  8  7  2  0  0  0  0
  8  9  1  0  0  0  0
 10  8  1  0  0  0  0
  2 10  2  0  0  0  0
 10 11  1  0  0  0  0
 11 12  1  0  0  0  0
 13 12  1  0  0  0  0
 14 13  2  0  0  0  0
 15 14  1  0  0  0  0
 15 16  1  0  0  0  0
 17 15  2  0  0  0  0
 18 17  1  0  0  0  0
 12 18  2  0  0  0  0
 18 19  1  0  0  0  0
M  END
> <ChemID>
100588

> <CAS>
106220-83-1

> <Original_SMILES>
Clc1cc(Cl)c(cc1)Oc1c(Cl)c(Cl)c(Cl)cc1Cl

> <preferred_name>
2,2',4,4',5,6-Hexachlorodiphenyl ether

> <dsstox_substance_id>
DTXSID40147549

> <dsstox_compound_id>
DTXCID3070040

> <qc_level>
Public_Medium

> <Canonical_QSARr>
ClC1=CC(Cl)=C(C=C1)OC1=C(Cl)C(Cl)=C(Cl)C=C1Cl

> <InChI_Code_QSARr>
InChI=1S/C12H4Cl6O/c13-5-1-2-9(6(14)3-5)19-12-8(16)4-7(15)10(17)11(12)18/h1-4H

> <InChI Key_QSARr>
BIWCEXHDIQZFHI-UHFFFAOYSA-N

> <Salt_Solvent>


> <Salt_Solvent_ID>
0

> <MPID>
102172

> <LogKmHL>
2.76

> <Tr_1_Tst_0>
1

$$$$
100589
  Mrv171c012251910542D          

 21 22  0  0  0  0            999 V2000
    3.2789   -0.4833    0.0000 C   0  0  0  0  0  0  0  0  0  0  0  0
    3.9934   -0.0708    0.0000 C   0  0  0  0  0  0  0  0  0  0  0  0
    4.7079   -0.4833    0.0000 C   0  0  0  0  0  0  0  0  0  0  0  0
    5.4223   -0.0708    0.0000 C   0  0  0  0  0  0  0  0  0  0  0  0
    5.4223    0.7542    0.0000 C   0  0  0  0  0  0  0  0  0  0  0  0
    6.1368    1.1667    0.0000 Cl  0  0  0  0  0  0  0  0  0  0  0  0
    4.7079    1.1667    0.0000 C   0  0  0  0  0  0  0  0  0  0  0  0
    3.9934    0.7542    0.0000 C   0  0  0  0  0  0  0  0  0  0  0  0
    3.2789   -1.3083    0.0000 C   0  0  0  0  0  0  0  0  0  0  0  0
    2.5644   -1.7208    0.0000 C   0  0  0  0  0  0  0  0  0  0  0  0
    1.8500   -2.1333    0.0000 C   0  0  0  0  0  0  0  0  0  0  0  0
    1.8500   -2.9583    0.0000 N   0  0  0  0  0  0  0  0  0  0  0  0
    1.1825   -3.4432    0.0000 C   0  0  0  0  0  0  0  0  0  0  0  0
    1.4375   -4.2279    0.0000 N   0  0  0  0  0  0  0  0  0  0  0  0
    2.2625   -4.2279    0.0000 C   0  0  0  0  0  0  0  0  0  0  0  0
    2.5174   -3.4432    0.0000 N   0  0  0  0  0  0  0  0  0  0  0  0
    2.1519   -1.0063    0.0000 O   0  0  0  0  0  0  0  0  0  0  0  0
    2.9769   -2.4353    0.0000 C   0  0  0  0  0  0  0  0  0  0  0  0
    3.3894   -3.1498    0.0000 C   0  0  0  0  0  0  0  0  0  0  0  0
    2.2625   -2.8478    0.0000 C   0  0  0  0  0  0  0  0  0  0  0  0
    3.6914   -2.0228    0.0000 C   0  0  0  0  0  0  0  0  0  0  0  0
  1  2  1  0  0  0  0
  3  2  1  0  0  0  0
  4  3  2  0  0  0  0
  5  4  1  0  0  0  0
  5  6  1  0  0  0  0
  7  5  2  0  0  0  0
  8  7  1  0  0  0  0
  2  8  2  0  0  0  0
  1  9  1  0  0  0  0
  9 10  1  0  0  0  0
 10 11  1  0  0  0  0
 11 12  1  0  0  0  0
 13 12  1  0  0  0  0
 14 13  2  0  0  0  0
 15 14  1  0  0  0  0
 16 15  2  0  0  0  0
 12 16  1  0  0  0  0
 10 17  1  0  0  0  0
 10 18  1  0  0  0  0
 18 19  1  0  0  0  0
 18 20  1  0  0  0  0
 18 21  1  0  0  0  0
M  END
> <ChemID>
100589

> <CAS>
107534-96-3

> <Original_SMILES>
CC(C)(C)C(O)(C[n]1c[n]c[n]1)CCc1ccc(Cl)cc1

> <preferred_name>
Tebuconazole

> <dsstox_substance_id>
DTXSID9032113

> <dsstox_compound_id>
DTXCID7012113

> <qc_level>
DSSTox_High

> <Canonical_QSARr>
CC(C)(C)C(O)(CN1C=NC=N1)CCC1C=CC(Cl)=CC=1

> <InChI_Code_QSARr>
InChI=1S/C16H22ClN3O/c1-15(2,3)16(21,10-20-12-18-11-19-20)9-8-13-4-6-14(17)7-5-13/h4-7,11-12,21H,8-10H2,1-3H3

> <InChI Key_QSARr>
PXMNMQRDXWABCY-UHFFFAOYSA-N

> <Salt_Solvent>


> <Salt_Solvent_ID>
0

> <MPID>
102173

> <LogKmHL>
0.77

> <Tr_1_Tst_0>
1

$$$$
100590
  Mrv171c012251910542D          

 23 24  0  0  0  0            999 V2000
    3.6423   -3.3853    0.0000 N   0  0  0  0  0  0  0  0  0  0  0  0
    3.6423   -2.5603    0.0000 C   0  0  0  0  0  0  0  0  0  0  0  0
    2.9278   -2.1478    0.0000 C   0  0  0  0  0  0  0  0  0  0  0  0
    2.9278   -1.3228    0.0000 C   0  0  0  0  0  0  0  0  0  0  0  0
    3.6423   -0.9103    0.0000 C   0  0  0  0  0  0  0  0  0  0  0  0
    3.6423   -0.0853    0.0000 C   0  0  0  0  0  0  0  0  0  0  0  0
    2.9278    0.3272    0.0000 C   0  0  0  0  0  0  0  0  0  0  0  0
    2.9278    1.1522    0.0000 Cl  0  0  0  0  0  0  0  0  0  0  0  0
    2.2134   -0.0853    0.0000 C   0  0  0  0  0  0  0  0  0  0  0  0
    2.2134   -0.9103    0.0000 C   0  0  0  0  0  0  0  0  0  0  0  0
    1.4989   -1.3228    0.0000 Cl  0  0  0  0  0  0  0  0  0  0  0  0
    2.2134   -2.5603    0.0000 C   0  0  0  0  0  0  0  0  0  0  0  0
    2.2134   -3.3853    0.0000 O   0  0  0  0  0  0  0  0  0  0  0  0
    1.4989   -3.7978    0.0000 C   0  0  0  0  0  0  0  0  0  0  0  0
    1.0864   -3.0833    0.0000 F   0  0  0  0  0  0  0  0  0  0  0  0
    1.9114   -4.5122    0.0000 F   0  0  0  0  0  0  0  0  0  0  0  0
    0.7844   -4.2103    0.0000 C   0  0  0  0  0  0  0  0  0  0  0  0
    0.7844   -5.0353    0.0000 F   0  0  0  0  0  0  0  0  0  0  0  0
    0.0699   -3.7978    0.0000 F   0  0  0  0  0  0  0  0  0  0  0  0
    2.9749   -3.8702    0.0000 C   0  0  0  0  0  0  0  0  0  0  0  0
    3.2298   -4.6548    0.0000 N   0  0  0  0  0  0  0  0  0  0  0  0
    4.0548   -4.6548    0.0000 C   0  0  0  0  0  0  0  0  0  0  0  0
    4.3097   -3.8702    0.0000 N   0  0  0  0  0  0  0  0  0  0  0  0
  1  2  1  0  0  0  0
  2  3  1  0  0  0  0
  3  4  1  0  0  0  0
  5  4  1  0  0  0  0
  6  5  2  0  0  0  0
  7  6  1  0  0  0  0
  7  8  1  0  0  0  0
  9  7  2  0  0  0  0
 10  9  1  0  0  0  0
  4 10  2  0  0  0  0
 10 11  1  0  0  0  0
  3 12  1  0  0  0  0
 12 13  1  0  0  0  0
 13 14  1  0  0  0  0
 14 15  1  0  0  0  0
 14 16  1  0  0  0  0
 14 17  1  0  0  0  0
 17 18  1  0  0  0  0
 17 19  1  0  0  0  0
 20  1  1  0  0  0  0
 21 20  2  0  0  0  0
 22 21  1  0  0  0  0
 23 22  2  0  0  0  0
  1 23  1  0  0  0  0
M  END
> <ChemID>
100590

> <CAS>
112281-77-3

> <Original_SMILES>
FC(F)C(F)(F)OCC(C[n]1c[n]c[n]1)c1ccc(Cl)cc1Cl

> <preferred_name>
Tetraconazole

> <dsstox_substance_id>
DTXSID8034956

> <dsstox_compound_id>
DTXCID6014956

> <qc_level>
DSSTox_Low

> <Canonical_QSARr>
FC(F)C(F)(F)OCC(CN1C=NC=N1)C1C=CC(Cl)=CC=1Cl

> <InChI_Code_QSARr>
InChI=1S/C13H11Cl2F4N3O/c14-9-1-2-10(11(15)3-9)8(4-22-7-20-6-21-22)5-23-13(18,19)12(16)17/h1-3,6-8,12H,4-5H2

> <InChI Key_QSARr>
LQDARGUHUSPFNL-UHFFFAOYSA-N

> <Salt_Solvent>


> <Salt_Solvent_ID>
0

> <MPID>
102174

> <LogKmHL>
1.23

> <Tr_1_Tst_0>
0

$$$$
100591
  Mrv171c012251910542D          

 27 28  0  0  0  0            999 V2000
    0.4988   -1.5048    0.0000 N   0  0  0  0  0  0  0  0  0  0  0  0
    1.2834   -1.2499    0.0000 C   0  0  0  0  0  0  0  0  0  0  0  0
    1.8965   -1.8019    0.0000 C   0  0  0  0  0  0  0  0  0  0  0  0
    1.7250   -2.6089    0.0000 Cl  0  0  0  0  0  0  0  0  0  0  0  0
    2.6811   -1.5470    0.0000 C   0  0  0  0  0  0  0  0  0  0  0  0
    2.8527   -0.7400    0.0000 C   0  0  0  0  0  0  0  0  0  0  0  0
    3.6373   -0.4851    0.0000 C   0  0  0  0  0  0  0  0  0  0  0  0
    4.4219   -0.2301    0.0000 F   0  0  0  0  0  0  0  0  0  0  0  0
    3.3823    0.2996    0.0000 F   0  0  0  0  0  0  0  0  0  0  0  0
    3.8922   -1.2697    0.0000 F   0  0  0  0  0  0  0  0  0  0  0  0
    2.2396   -0.1880    0.0000 C   0  0  0  0  0  0  0  0  0  0  0  0
    1.4549   -0.4429    0.0000 C   0  0  0  0  0  0  0  0  0  0  0  0
    0.8419    0.1091    0.0000 Cl  0  0  0  0  0  0  0  0  0  0  0  0
   -0.1686   -1.0199    0.0000 C   0  0  0  0  0  0  0  0  0  0  0  0
   -0.1686   -0.1949    0.0000 N   0  0  0  0  0  0  0  0  0  0  0  0
   -0.8361   -1.5048    0.0000 C   0  0  0  0  0  0  0  0  0  0  0  0
   -1.6207   -1.2499    0.0000 S   0  0  0  0  0  0  0  0  0  0  0  0
   -2.4053   -0.9949    0.0000 C   0  0  0  0  0  0  0  0  0  0  0  0
   -3.1899   -0.7400    0.0000 F   0  0  0  0  0  0  0  0  0  0  0  0
   -2.1504   -0.2103    0.0000 F   0  0  0  0  0  0  0  0  0  0  0  0
   -2.6603   -1.7796    0.0000 F   0  0  0  0  0  0  0  0  0  0  0  0
   -1.3658   -0.4653    0.0000 O   0  0  0  0  0  0  0  0  0  0  0  0
   -1.8756   -2.0345    0.0000 O   0  0  0  0  0  0  0  0  0  0  0  0
   -0.5811   -2.2894    0.0000 C   0  0  0  0  0  0  0  0  0  0  0  0
   -1.0661   -2.9569    0.0000 C   0  0  0  0  0  0  0  0  0  0  0  0
   -1.5510   -3.6243    0.0000 N   0  0  0  0  0  0  0  0  0  0  0  0
    0.2439   -2.2894    0.0000 N   0  0  0  0  0  0  0  0  0  0  0  0
  1  2  1  0  0  0  0
  3  2  1  0  0  0  0
  3  4  1  0  0  0  0
  5  3  2  0  0  0  0
  6  5  1  0  0  0  0
  6  7  1  0  0  0  0
  7  8  1  0  0  0  0
  7  9  1  0  0  0  0
  7 10  1  0  0  0  0
 11  6  2  0  0  0  0
 12 11  1  0  0  0  0
  2 12  2  0  0  0  0
 12 13  1  0  0  0  0
 14  1  1  0  0  0  0
 14 15  1  0  0  0  0
 16 14  2  0  0  0  0
 16 17  1  0  0  0  0
 17 18  1  0  0  0  0
 18 19  1  0  0  0  0
 18 20  1  0  0  0  0
 18 21  1  0  0  0  0
 17 22  2  0  0  0  0
 17 23  2  0  0  0  0
 24 16  1  0  0  0  0
 24 25  1  0  0  0  0
 25 26  3  0  0  0  0
 27 24  2  0  0  0  0
  1 27  1  0  0  0  0
M  END
> <ChemID>
100591

> <CAS>
120068-36-2

> <Original_SMILES>
Nc1c(c(C#N)[n][n]1-c1c(Cl)cc(cc1Cl)C(F)(F)F)S(=O)(=O)C(F)(F)F

> <preferred_name>
Fipronil Sulfone

> <dsstox_substance_id>
DTXSID6074750

> <dsstox_compound_id>
DTXCID9033557

> <qc_level>
Public_High

> <Canonical_QSARr>
NC1=C(C(C#N)=NN1C1C(Cl)=CC(=CC=1Cl)C(F)(F)F)S(=O)(=O)C(F)(F)F

> <InChI_Code_QSARr>
InChI=1S/C12H4Cl2F6N4O2S/c13-5-1-4(11(15,16)17)2-6(14)8(5)24-10(22)9(7(3-21)23-24)27(25,26)12(18,19)20/h1-2H,22H2

> <InChI Key_QSARr>
LGHZJDKSVUTELU-UHFFFAOYSA-N

> <Salt_Solvent>


> <Salt_Solvent_ID>
0

> <MPID>
102175

> <LogKmHL>
1.05

> <Tr_1_Tst_0>
1

$$$$
100592
  Mrv171c012251910542D          

 26 27  0  0  0  0            999 V2000
    3.0241   -1.6018    0.0000 N   0  0  0  0  0  0  0  0  0  0  0  0
    3.2790   -0.8172    0.0000 N   0  0  0  0  0  0  0  0  0  0  0  0
    2.6116   -0.3322    0.0000 C   0  0  0  0  0  0  0  0  0  0  0  0
    2.6116    0.4928    0.0000 C   0  0  0  0  0  0  0  0  0  0  0  0
    2.6116    1.3178    0.0000 N   0  0  0  0  0  0  0  0  0  0  0  0
    1.9441   -0.8172    0.0000 C   0  0  0  0  0  0  0  0  0  0  0  0
    1.1595   -0.5622    0.0000 S   0  0  0  0  0  0  0  0  0  0  0  0
    0.5464   -1.1142    0.0000 O   0  0  0  0  0  0  0  0  0  0  0  0
    0.9880    0.2448    0.0000 C   0  0  0  0  0  0  0  0  0  0  0  0
    0.8164    1.0517    0.0000 F   0  0  0  0  0  0  0  0  0  0  0  0
    0.1810    0.0732    0.0000 F   0  0  0  0  0  0  0  0  0  0  0  0
    1.7949    0.4163    0.0000 F   0  0  0  0  0  0  0  0  0  0  0  0
    2.1991   -1.6018    0.0000 C   0  0  0  0  0  0  0  0  0  0  0  0
    1.7141   -2.2692    0.0000 N   0  0  0  0  0  0  0  0  0  0  0  0
    3.5090   -2.2692    0.0000 C   0  0  0  0  0  0  0  0  0  0  0  0
    3.1734   -3.0229    0.0000 C   0  0  0  0  0  0  0  0  0  0  0  0
    2.3529   -3.1091    0.0000 Cl  0  0  0  0  0  0  0  0  0  0  0  0
    3.6583   -3.6903    0.0000 C   0  0  0  0  0  0  0  0  0  0  0  0
    4.4788   -3.6041    0.0000 C   0  0  0  0  0  0  0  0  0  0  0  0
    4.9638   -4.2715    0.0000 C   0  0  0  0  0  0  0  0  0  0  0  0
    5.4487   -4.9390    0.0000 F   0  0  0  0  0  0  0  0  0  0  0  0
    4.2963   -4.7565    0.0000 F   0  0  0  0  0  0  0  0  0  0  0  0
    5.6312   -3.7866    0.0000 F   0  0  0  0  0  0  0  0  0  0  0  0
    4.8144   -2.8504    0.0000 C   0  0  0  0  0  0  0  0  0  0  0  0
    4.3295   -2.1830    0.0000 C   0  0  0  0  0  0  0  0  0  0  0  0
    4.6650   -1.4293    0.0000 Cl  0  0  0  0  0  0  0  0  0  0  0  0
  2  1  1  0  0  0  0
  3  2  2  0  0  0  0
  3  4  1  0  0  0  0
  4  5  3  0  0  0  0
  6  3  1  0  0  0  0
  6  7  1  0  0  0  0
  7  8  2  0  0  0  0
  7  9  1  0  0  0  0
  9 10  1  0  0  0  0
  9 11  1  0  0  0  0
  9 12  1  0  0  0  0
 13  6  2  0  0  0  0
  1 13  1  0  0  0  0
 13 14  1  0  0  0  0
  1 15  1  0  0  0  0
 16 15  1  0  0  0  0
 16 17  1  0  0  0  0
 18 16  2  0  0  0  0
 19 18  1  0  0  0  0
 19 20  1  0  0  0  0
 20 21  1  0  0  0  0
 20 22  1  0  0  0  0
 20 23  1  0  0  0  0
 24 19  2  0  0  0  0
 25 24  1  0  0  0  0
 15 25  2  0  0  0  0
 25 26  1  0  0  0  0
M  END
> <ChemID>
100592

> <CAS>
120068-37-3

> <Original_SMILES>
Nc1c(c(C#N)[n][n]1-c1c(Cl)cc(cc1Cl)C(F)(F)F)S(=O)C(F)(F)F

> <preferred_name>
Fipronil

> <dsstox_substance_id>
DTXSID4034609

> <dsstox_compound_id>
DTXCID2014609

> <qc_level>
DSSTox_Low

> <Canonical_QSARr>
NC1=C(C(C#N)=NN1C1C(Cl)=CC(=CC=1Cl)C(F)(F)F)S(=O)C(F)(F)F

> <InChI_Code_QSARr>
InChI=1S/C12H4Cl2F6N4OS/c13-5-1-4(11(15,16)17)2-6(14)8(5)24-10(22)9(7(3-21)23-24)26(25)12(18,19)20/h1-2H,22H2

> <InChI Key_QSARr>
ZOCSXAVNDGMNBV-UHFFFAOYSA-N

> <Salt_Solvent>


> <Salt_Solvent_ID>
0

> <MPID>
102176

> <LogKmHL>
-0.21

> <Tr_1_Tst_0>
1

$$$$
100593
  Mrv171c012251910542D          

 22 24  0  0  0  0            999 V2000
    2.3142   -2.5236    0.0000 C   0  0  0  0  0  0  0  0  0  0  0  0
    3.0287   -2.9361    0.0000 C   0  0  0  0  0  0  0  0  0  0  0  0
    3.0287   -3.7611    0.0000 N   0  0  0  0  0  0  0  0  0  0  0  0
    2.3613   -4.2460    0.0000 C   0  0  0  0  0  0  0  0  0  0  0  0
    2.6162   -5.0306    0.0000 N   0  0  0  0  0  0  0  0  0  0  0  0
    3.4412   -5.0306    0.0000 C   0  0  0  0  0  0  0  0  0  0  0  0
    3.6961   -4.2460    0.0000 N   0  0  0  0  0  0  0  0  0  0  0  0
    1.9787   -3.2773    0.0000 O   0  0  0  0  0  0  0  0  0  0  0  0
    2.7991   -1.8562    0.0000 C   0  0  0  0  0  0  0  0  0  0  0  0
    3.6241   -1.8562    0.0000 C   0  0  0  0  0  0  0  0  0  0  0  0
    4.0366   -1.1417    0.0000 C   0  0  0  0  0  0  0  0  0  0  0  0
    4.8616   -1.1417    0.0000 C   0  0  0  0  0  0  0  0  0  0  0  0
    5.2741   -0.4272    0.0000 C   0  0  0  0  0  0  0  0  0  0  0  0
    4.8616    0.2873    0.0000 C   0  0  0  0  0  0  0  0  0  0  0  0
    5.2741    1.0017    0.0000 Cl  0  0  0  0  0  0  0  0  0  0  0  0
    4.0366    0.2873    0.0000 C   0  0  0  0  0  0  0  0  0  0  0  0
    3.6241   -0.4272    0.0000 C   0  0  0  0  0  0  0  0  0  0  0  0
    2.3142   -1.1887    0.0000 C   0  0  0  0  0  0  0  0  0  0  0  0
    1.5296   -1.4437    0.0000 C   0  0  0  0  0  0  0  0  0  0  0  0
    1.5296   -2.2687    0.0000 C   0  0  0  0  0  0  0  0  0  0  0  0
    0.7101   -2.3635    0.0000 C   0  0  0  0  0  0  0  0  0  0  0  0
    1.1862   -3.0188    0.0000 C   0  0  0  0  0  0  0  0  0  0  0  0
  1  2  1  0  0  0  0
  2  3  1  0  0  0  0
  4  3  1  0  0  0  0
  5  4  2  0  0  0  0
  6  5  1  0  0  0  0
  7  6  2  0  0  0  0
  3  7  1  0  0  0  0
  1  8  1  0  0  0  0
  9  1  1  0  0  0  0
  9 10  1  0  0  0  0
 10 11  1  0  0  0  0
 12 11  1  0  0  0  0
 13 12  2  0  0  0  0
 14 13  1  0  0  0  0
 14 15  1  0  0  0  0
 16 14  2  0  0  0  0
 17 16  1  0  0  0  0
 11 17  2  0  0  0  0
 18  9  1  0  0  0  0
 19 18  1  0  0  0  0
 20 19  1  0  0  0  0
  1 20  1  0  0  0  0
 20 21  1  0  0  0  0
 20 22  1  0  0  0  0
M  END
> <ChemID>
100593

> <CAS>
125116-23-6

> <Original_SMILES>
CC1(C)CCC(Cc2ccc(Cl)cc2)C1(O)C[n]1c[n]c[n]1

> <preferred_name>
Metconazole

> <dsstox_substance_id>
DTXSID4034497

> <dsstox_compound_id>
DTXCID2014497

> <qc_level>
DSSTox_Low

> <Canonical_QSARr>
CC1(C)CCC(CC2C=CC(Cl)=CC=2)C1(O)CN1C=NC=N1

> <InChI_Code_QSARr>
InChI=1S/C17H22ClN3O/c1-16(2)8-7-14(9-13-3-5-15(18)6-4-13)17(16,22)10-21-12-19-11-20-21/h3-6,11-12,14,22H,7-10H2,1-2H3

> <InChI Key_QSARr>
XWPZUHJBOLQNMN-UHFFFAOYSA-N

> <Salt_Solvent>


> <Salt_Solvent_ID>
0

> <MPID>
102177

> <LogKmHL>
0.23

> <Tr_1_Tst_0>
1

$$$$
100594
  Mrv171c012251910542D          

 10  9  0  0  0  0            999 V2000
    2.0625    0.7145    0.0000 C   0  0  0  0  0  0  0  0  0  0  0  0
    1.2375    0.7145    0.0000 C   0  0  0  0  0  0  0  0  0  0  0  0
    0.8250    1.4289    0.0000 C   0  0  0  0  0  0  0  0  0  0  0  0
    0.8250    0.0000    0.0000 C   0  0  0  0  0  0  0  0  0  0  0  0
    0.0000    0.0000    0.0000 C   0  0  0  0  0  0  0  0  0  0  0  0
   -0.4125    0.7145    0.0000 C   0  0  0  0  0  0  0  0  0  0  0  0
   -0.4125   -0.7145    0.0000 C   0  0  0  0  0  0  0  0  0  0  0  0
   -1.2375   -0.7145    0.0000 C   0  0  0  0  0  0  0  0  0  0  0  0
   -1.6500   -1.4289    0.0000 C   0  0  0  0  0  0  0  0  0  0  0  0
   -1.6500    0.0000    0.0000 C   0  0  0  0  0  0  0  0  0  0  0  0
  1  2  1  0  0  0  0
  2  3  1  0  0  0  0
  4  2  1  4  0  0  0
  4  5  2  0  0  0  0
  5  6  1  0  0  0  0
  5  7  1  0  0  0  0
  7  8  1  0  0  0  0
  8  9  1  0  0  0  0
  8 10  1  0  0  0  0
M  END
> <ChemID>
100594

> <CAS>
126690-66-2

> <Original_SMILES>
CC(C)C=C(C)CC(C)C

> <preferred_name>
PUBCHEM_44135738

> <dsstox_substance_id>
DTXSID90657608

> <dsstox_compound_id>
DTXCID50608358

> <qc_level>
Public_Low

> <Canonical_QSARr>
CC(C)C=C(C)CC(C)C

> <InChI_Code_QSARr>
InChI=1S/C10H20/c1-8(2)6-10(5)7-9(3)4/h6,8-9H,7H2,1-5H3

> <InChI Key_QSARr>
DSBKYWWEBIJMOS-UHFFFAOYSA-N

> <Salt_Solvent>


> <Salt_Solvent_ID>
0

> <MPID>
102178

> <LogKmHL>
0.92

> <Tr_1_Tst_0>
0

$$$$
100595
  Mrv171c012251910542D          

 20 20  0  0  0  0            999 V2000
    3.4131   -1.2685    0.0000 C   0  0  0  0  0  0  0  0  0  0  0  0
    3.4131   -2.0935    0.0000 N   0  0  0  0  0  0  0  0  0  0  0  0
    4.1275   -2.5060    0.0000 C   0  0  0  0  0  0  0  0  0  0  0  0
    4.5400   -1.7915    0.0000 C   0  0  0  0  0  0  0  0  0  0  0  0
    3.7150   -3.2205    0.0000 C   0  0  0  0  0  0  0  0  0  0  0  0
    4.1275   -3.9349    0.0000 C   0  0  0  0  0  0  0  0  0  0  0  0
    4.8420   -2.9185    0.0000 C   0  0  0  0  0  0  0  0  0  0  0  0
    5.5565   -2.5060    0.0000 O   0  0  0  0  0  0  0  0  0  0  0  0
    4.8420   -3.7435    0.0000 C   0  0  0  0  0  0  0  0  0  0  0  0
    5.5565   -4.1560    0.0000 Cl  0  0  0  0  0  0  0  0  0  0  0  0
    2.6986   -0.8560    0.0000 C   0  0  0  0  0  0  0  0  0  0  0  0
    2.6986   -0.0310    0.0000 C   0  0  0  0  0  0  0  0  0  0  0  0
    1.9841    0.3815    0.0000 C   0  0  0  0  0  0  0  0  0  0  0  0
    1.9841    1.2065    0.0000 Cl  0  0  0  0  0  0  0  0  0  0  0  0
    1.2697   -0.0310    0.0000 C   0  0  0  0  0  0  0  0  0  0  0  0
    0.5552    0.3815    0.0000 C   0  0  0  0  0  0  0  0  0  0  0  0
    1.2697   -0.8560    0.0000 C   0  0  0  0  0  0  0  0  0  0  0  0
    0.5552   -1.2685    0.0000 Cl  0  0  0  0  0  0  0  0  0  0  0  0
    1.9841   -1.2685    0.0000 C   0  0  0  0  0  0  0  0  0  0  0  0
    4.1275   -0.8560    0.0000 O   0  0  0  0  0  0  0  0  0  0  0  0
  1  2  1  0  0  0  0
  2  3  1  0  0  0  0
  3  4  1  0  0  0  0
  3  5  1  0  0  0  0
  5  6  1  0  0  0  0
  3  7  1  0  0  0  0
  7  8  2  0  0  0  0
  7  9  1  0  0  0  0
  9 10  1  0  0  0  0
  1 11  1  0  0  0  0
 12 11  1  0  0  0  0
 13 12  2  0  0  0  0
 13 14  1  0  0  0  0
 15 13  1  0  0  0  0
 15 16  1  0  0  0  0
 17 15  2  0  0  0  0
 17 18  1  0  0  0  0
 19 17  1  0  0  0  0
 11 19  2  0  0  0  0
  1 20  2  0  0  0  0
M  END
> <ChemID>
100595

> <CAS>
156052-68-5

> <Original_SMILES>
Cc1c(Cl)cc(cc1Cl)C(=O)NC(C)(CC)C(=O)CCl

> <preferred_name>
Zoxamide

> <dsstox_substance_id>
DTXSID9032581

> <dsstox_compound_id>
DTXCID7012581

> <qc_level>
DSSTox_Low

> <Canonical_QSARr>
CC1C(Cl)=CC(=CC=1Cl)C(=O)NC(C)(CC)C(=O)CCl

> <InChI_Code_QSARr>
InChI=1S/C14H16Cl3NO2/c1-4-14(3,12(19)7-15)18-13(20)9-5-10(16)8(2)11(17)6-9/h5-6H,4,7H2,1-3H3,(H,18,20)

> <InChI Key_QSARr>
SOUGWDPPRBKJEX-UHFFFAOYSA-N

> <Salt_Solvent>


> <Salt_Solvent_ID>
0

> <MPID>
102179

> <LogKmHL>
0.16

> <Tr_1_Tst_0>
1

$$$$
100597
  Mrv171c012251910542D          

 18 19  0  0  0  0            999 V2000
    3.4854   -4.5857    0.0000 Br  0  0  0  0  0  0  0  0  0  0  0  0
    3.4854   -3.7607    0.0000 C   0  0  0  0  0  0  0  0  0  0  0  0
    4.1999   -3.3482    0.0000 C   0  0  0  0  0  0  0  0  0  0  0  0
    4.1999   -2.5232    0.0000 C   0  0  0  0  0  0  0  0  0  0  0  0
    3.4854   -2.1107    0.0000 C   0  0  0  0  0  0  0  0  0  0  0  0
    3.4854   -1.2857    0.0000 O   0  0  0  0  0  0  0  0  0  0  0  0
    2.7709   -0.8732    0.0000 C   0  0  0  0  0  0  0  0  0  0  0  0
    2.7709   -0.0482    0.0000 C   0  0  0  0  0  0  0  0  0  0  0  0
    3.4854    0.3643    0.0000 Br  0  0  0  0  0  0  0  0  0  0  0  0
    2.0564    0.3643    0.0000 C   0  0  0  0  0  0  0  0  0  0  0  0
    2.0564    1.1893    0.0000 Br  0  0  0  0  0  0  0  0  0  0  0  0
    1.3420   -0.0482    0.0000 C   0  0  0  0  0  0  0  0  0  0  0  0
    0.6275    0.3643    0.0000 Br  0  0  0  0  0  0  0  0  0  0  0  0
    1.3420   -0.8732    0.0000 C   0  0  0  0  0  0  0  0  0  0  0  0
    2.0564   -1.2857    0.0000 C   0  0  0  0  0  0  0  0  0  0  0  0
    2.7709   -2.5232    0.0000 C   0  0  0  0  0  0  0  0  0  0  0  0
    2.0564   -2.1107    0.0000 Br  0  0  0  0  0  0  0  0  0  0  0  0
    2.7709   -3.3482    0.0000 C   0  0  0  0  0  0  0  0  0  0  0  0
  1  2  1  0  0  0  0
  3  2  2  0  0  0  0
  4  3  1  0  0  0  0
  5  4  2  0  0  0  0
  5  6  1  0  0  0  0
  6  7  1  0  0  0  0
  8  7  2  0  0  0  0
  8  9  1  0  0  0  0
 10  8  1  0  0  0  0
 10 11  1  0  0  0  0
 12 10  2  0  0  0  0
 12 13  1  0  0  0  0
 14 12  1  0  0  0  0
 15 14  2  0  0  0  0
  7 15  1  0  0  0  0
 16  5  1  0  0  0  0
 16 17  1  0  0  0  0
 18 16  2  0  0  0  0
  2 18  1  0  0  0  0
M  END
> <ChemID>
100597

> <CAS>
182346-21-0

> <Original_SMILES>
Brc1cc(Br)c(cc1)Oc1ccc(Br)c(Br)c1Br

> <preferred_name>
2,2',3,4,4'-Pentabromodiphenyl ether (BDE 85)

> <dsstox_substance_id>
DTXSID4052685

> <dsstox_compound_id>
DTXCID8031283

> <qc_level>
DSSTox_High

> <Canonical_QSARr>
BrC1C=CC(OC2=CC=C(Br)C=C2Br)=C(Br)C=1Br

> <InChI_Code_QSARr>
InChI=1S/C12H5Br5O/c13-6-1-3-9(8(15)5-6)18-10-4-2-7(14)11(16)12(10)17/h1-5H

> <InChI Key_QSARr>
DMLQSUZPTTUUDP-UHFFFAOYSA-N

> <Salt_Solvent>


> <Salt_Solvent_ID>
0

> <MPID>
102180

> <LogKmHL>
1.34

> <Tr_1_Tst_0>
1

$$$$
100601
  Mrv171c012251910542D          

 18 19  0  0  0  0            999 V2000
    1.9365    0.6591    0.0000 C   0  0  0  0  0  0  0  0  0  0  0  0
    1.2220    1.0716    0.0000 C   0  0  0  0  0  0  0  0  0  0  0  0
    0.5075    0.6591    0.0000 C   0  0  0  0  0  0  0  0  0  0  0  0
    1.2220    1.8966    0.0000 C   0  0  0  0  0  0  0  0  0  0  0  0
    2.6509    1.0716    0.0000 C   0  0  0  0  0  0  0  0  0  0  0  0
    3.3654    0.6591    0.0000 C   0  0  0  0  0  0  0  0  0  0  0  0
    4.0799    1.0716    0.0000 C   0  0  0  0  0  0  0  0  0  0  0  0
    4.0799    1.8966    0.0000 C   0  0  0  0  0  0  0  0  0  0  0  0
    4.7944    2.3091    0.0000 C   0  0  0  0  0  0  0  0  0  0  0  0
    5.5088    1.8966    0.0000 C   0  0  0  0  0  0  0  0  0  0  0  0
    5.5088    1.0716    0.0000 C   0  0  0  0  0  0  0  0  0  0  0  0
    6.2233    0.6591    0.0000 C   0  0  0  0  0  0  0  0  0  0  0  0
    6.2233   -0.1659    0.0000 C   0  0  0  0  0  0  0  0  0  0  0  0
    6.9378   -0.5784    0.0000 C   0  0  0  0  0  0  0  0  0  0  0  0
    5.5088   -0.5784    0.0000 C   0  0  0  0  0  0  0  0  0  0  0  0
    5.5088   -1.4034    0.0000 C   0  0  0  0  0  0  0  0  0  0  0  0
    4.7944   -0.1659    0.0000 C   0  0  0  0  0  0  0  0  0  0  0  0
    4.7944    0.6591    0.0000 C   0  0  0  0  0  0  0  0  0  0  0  0
  1  2  1  0  0  0  0
  2  3  1  0  0  0  0
  2  4  1  0  0  0  0
  1  5  1  0  0  0  0
  5  6  1  0  0  0  0
  6  7  1  0  0  0  0
  8  7  2  0  0  0  0
  9  8  1  0  0  0  0
 10  9  2  0  0  0  0
 11 10  1  0  0  0  0
 11 12  1  0  0  0  0
 12 13  2  0  0  0  0
 13 14  1  0  0  0  0
 13 15  1  0  0  0  0
 15 16  1  0  0  0  0
 15 17  2  0  0  0  0
 17 18  1  0  0  0  0
  7 18  1  0  0  0  0
 18 11  2  0  0  0  0
M  END
> <ChemID>
100601

> <CAS>
204256-07-5

> <Original_SMILES>
CC(C)CCCc1cccc2cc(C)c(C)cc12

> <preferred_name>
PUBCHEM_53422841

> <dsstox_substance_id>
DTXSID80698161

> <dsstox_compound_id>
DTXCID90648910

> <qc_level>
Public_Low

> <Canonical_QSARr>
CC(C)CCCC1=CC=CC2C=C(C)C(C)=CC1=2

> <InChI_Code_QSARr>
InChI=1S/C18H24/c1-13(2)7-5-8-16-9-6-10-17-11-14(3)15(4)12-18(16)17/h6,9-13H,5,7-8H2,1-4H3

> <InChI Key_QSARr>
FHYUZVPVYYWKMR-UHFFFAOYSA-N

> <Salt_Solvent>


> <Salt_Solvent_ID>
0

> <MPID>
102181

> <LogKmHL>
0.06

> <Tr_1_Tst_0>
1

$$$$
100602
  Mrv171c012251910542D          

 19 20  0  0  0  0            999 V2000
    2.1765   -3.6480    0.0000 Br  0  0  0  0  0  0  0  0  0  0  0  0
    2.8910   -3.2355    0.0000 C   0  0  0  0  0  0  0  0  0  0  0  0
    2.8910   -2.4105    0.0000 C   0  0  0  0  0  0  0  0  0  0  0  0
    3.6055   -1.9980    0.0000 C   0  0  0  0  0  0  0  0  0  0  0  0
    3.6055   -1.1730    0.0000 O   0  0  0  0  0  0  0  0  0  0  0  0
    2.8910   -0.7605    0.0000 C   0  0  0  0  0  0  0  0  0  0  0  0
    2.8910    0.0645    0.0000 C   0  0  0  0  0  0  0  0  0  0  0  0
    3.6055    0.4770    0.0000 Br  0  0  0  0  0  0  0  0  0  0  0  0
    2.1765    0.4770    0.0000 C   0  0  0  0  0  0  0  0  0  0  0  0
    1.4621    0.0645    0.0000 C   0  0  0  0  0  0  0  0  0  0  0  0
    0.7476    0.4770    0.0000 Br  0  0  0  0  0  0  0  0  0  0  0  0
    1.4621   -0.7605    0.0000 C   0  0  0  0  0  0  0  0  0  0  0  0
    2.1765   -1.1730    0.0000 C   0  0  0  0  0  0  0  0  0  0  0  0
    2.1765   -1.9980    0.0000 Br  0  0  0  0  0  0  0  0  0  0  0  0
    4.3199   -2.4105    0.0000 C   0  0  0  0  0  0  0  0  0  0  0  0
    5.0344   -1.9980    0.0000 Br  0  0  0  0  0  0  0  0  0  0  0  0
    4.3199   -3.2355    0.0000 C   0  0  0  0  0  0  0  0  0  0  0  0
    3.6055   -3.6480    0.0000 C   0  0  0  0  0  0  0  0  0  0  0  0
    3.6055   -4.4730    0.0000 Br  0  0  0  0  0  0  0  0  0  0  0  0
  1  2  1  0  0  0  0
  3  2  1  0  0  0  0
  4  3  2  0  0  0  0
  4  5  1  0  0  0  0
  5  6  1  0  0  0  0
  7  6  2  0  0  0  0
  7  8  1  0  0  0  0
  9  7  1  0  0  0  0
 10  9  2  0  0  0  0
 10 11  1  0  0  0  0
 12 10  1  0  0  0  0
 13 12  2  0  0  0  0
  6 13  1  0  0  0  0
 13 14  1  0  0  0  0
 15  4  1  0  0  0  0
 15 16  1  0  0  0  0
 17 15  2  0  0  0  0
 18 17  1  0  0  0  0
  2 18  2  0  0  0  0
 18 19  1  0  0  0  0
M  END
> <ChemID>
100602

> <CAS>
207122-15-4

> <Original_SMILES>
Brc1cc(Br)c(Oc2cc(Br)c(Br)cc2Br)c(Br)c1

> <preferred_name>
2,2',4,4',5,6'-Hexabromodiphenyl ether (BDE 154)

> <dsstox_substance_id>
DTXSID3052692

> <dsstox_compound_id>
DTXCID7031290

> <qc_level>
DSSTox_Low

> <Canonical_QSARr>
BrC1C=C(Br)C(OC2=CC(Br)=C(Br)C=C2Br)=C(Br)C=1

> <InChI_Code_QSARr>
InChI=1S/C12H4Br6O/c13-5-1-9(17)12(10(18)2-5)19-11-4-7(15)6(14)3-8(11)16/h1-4H

> <InChI Key_QSARr>
VHNPZYZQKWIWOD-UHFFFAOYSA-N

> <Salt_Solvent>


> <Salt_Solvent_ID>
0

> <MPID>
102182

> <LogKmHL>
2.03

> <Tr_1_Tst_0>
0

$$$$
100603
  Mrv171c012251910542D          

 20 21  0  0  0  0            999 V2000
    0.0748   -0.8693    0.0000 Br  0  0  0  0  0  0  0  0  0  0  0  0
    0.7893   -1.2818    0.0000 C   0  0  0  0  0  0  0  0  0  0  0  0
    1.5038   -0.8693    0.0000 C   0  0  0  0  0  0  0  0  0  0  0  0
    1.5038   -0.0443    0.0000 Br  0  0  0  0  0  0  0  0  0  0  0  0
    2.2183   -1.2818    0.0000 C   0  0  0  0  0  0  0  0  0  0  0  0
    2.2183   -2.1068    0.0000 C   0  0  0  0  0  0  0  0  0  0  0  0
    2.9327   -2.5193    0.0000 O   0  0  0  0  0  0  0  0  0  0  0  0
    3.6472   -2.1068    0.0000 C   0  0  0  0  0  0  0  0  0  0  0  0
    4.3617   -2.5193    0.0000 C   0  0  0  0  0  0  0  0  0  0  0  0
    4.3617   -3.3443    0.0000 Br  0  0  0  0  0  0  0  0  0  0  0  0
    5.0761   -2.1068    0.0000 C   0  0  0  0  0  0  0  0  0  0  0  0
    5.0761   -1.2818    0.0000 C   0  0  0  0  0  0  0  0  0  0  0  0
    5.7906   -0.8693    0.0000 Br  0  0  0  0  0  0  0  0  0  0  0  0
    4.3617   -0.8693    0.0000 C   0  0  0  0  0  0  0  0  0  0  0  0
    4.3617   -0.0443    0.0000 Br  0  0  0  0  0  0  0  0  0  0  0  0
    3.6472   -1.2818    0.0000 C   0  0  0  0  0  0  0  0  0  0  0  0
    2.9327   -0.8693    0.0000 Br  0  0  0  0  0  0  0  0  0  0  0  0
    1.5038   -2.5193    0.0000 C   0  0  0  0  0  0  0  0  0  0  0  0
    1.5038   -3.3443    0.0000 Br  0  0  0  0  0  0  0  0  0  0  0  0
    0.7893   -2.1068    0.0000 C   0  0  0  0  0  0  0  0  0  0  0  0
  1  2  1  0  0  0  0
  3  2  1  0  0  0  0
  3  4  1  0  0  0  0
  5  3  2  0  0  0  0
  6  5  1  0  0  0  0
  6  7  1  0  0  0  0
  7  8  1  0  0  0  0
  9  8  2  0  0  0  0
  9 10  1  0  0  0  0
 11  9  1  0  0  0  0
 12 11  2  0  0  0  0
 12 13  1  0  0  0  0
 14 12  1  0  0  0  0
 14 15  1  0  0  0  0
 16 14  2  0  0  0  0
  8 16  1  0  0  0  0
 16 17  1  0  0  0  0
 18  6  2  0  0  0  0
 18 19  1  0  0  0  0
 20 18  1  0  0  0  0
  2 20  2  0  0  0  0
M  END
> <ChemID>
100603

> <CAS>
207122-16-5

> <Original_SMILES>
Brc1c(Br)c(Oc2cc(Br)c(Br)cc2Br)c(Br)cc1Br

> <preferred_name>
2,2',3,4,4',5',6-Heptabromodiphenyl ether (BDE 183)

> <dsstox_substance_id>
DTXSID8052693

> <dsstox_compound_id>
DTXCID2031291

> <qc_level>
DSSTox_Low

> <Canonical_QSARr>
BrC1C=C(Br)C(Br)=C(Br)C=1OC1C=C(Br)C(Br)=CC=1Br

> <InChI_Code_QSARr>
InChI=1S/C12H3Br7O/c13-4-1-6(15)9(3-5(4)14)20-12-8(17)2-7(16)10(18)11(12)19/h1-3H

> <InChI Key_QSARr>
ILPSCQCLBHQUEM-UHFFFAOYSA-N

> <Salt_Solvent>


> <Salt_Solvent_ID>
0

> <MPID>
102183

> <LogKmHL>
1.65

> <Tr_1_Tst_0>
1

$$$$
100623
  Mrv171c012251910542D          

 16 17  0  0  0  0            999 V2000
    3.2096   -0.4230    0.0000 C   0  0  0  0  0  0  0  0  0  0  0  0
    2.4951   -0.0105    0.0000 C   0  0  0  0  0  0  0  0  0  0  0  0
    1.7806   -0.4230    0.0000 C   0  0  0  0  0  0  0  0  0  0  0  0
    1.0662   -0.0105    0.0000 C   0  0  0  0  0  0  0  0  0  0  0  0
    1.7806   -1.2480    0.0000 C   0  0  0  0  0  0  0  0  0  0  0  0
    1.0662   -1.6605    0.0000 C   0  0  0  0  0  0  0  0  0  0  0  0
    2.4951   -1.6605    0.0000 C   0  0  0  0  0  0  0  0  0  0  0  0
    3.2096   -1.2480    0.0000 C   0  0  0  0  0  0  0  0  0  0  0  0
    3.9240   -1.6605    0.0000 C   0  0  0  0  0  0  0  0  0  0  0  0
    4.6385   -1.2480    0.0000 C   0  0  0  0  0  0  0  0  0  0  0  0
    5.3530   -1.6605    0.0000 C   0  0  0  0  0  0  0  0  0  0  0  0
    6.0675   -1.2480    0.0000 C   0  0  0  0  0  0  0  0  0  0  0  0
    6.7819   -1.6605    0.0000 C   0  0  0  0  0  0  0  0  0  0  0  0
    7.4964   -1.2480    0.0000 C   0  0  0  0  0  0  0  0  0  0  0  0
    4.6385   -0.4230    0.0000 C   0  0  0  0  0  0  0  0  0  0  0  0
    3.9240   -0.0105    0.0000 C   0  0  0  0  0  0  0  0  0  0  0  0
  2  1  1  0  0  0  0
  3  2  2  0  0  0  0
  3  4  1  0  0  0  0
  5  3  1  0  0  0  0
  5  6  1  0  0  0  0
  7  5  2  0  0  0  0
  8  7  1  0  0  0  0
  8  1  2  0  0  0  0
  9  8  1  0  0  0  0
 10  9  2  0  0  0  0
 10 11  1  0  0  0  0
 11 12  1  0  0  0  0
 12 13  1  0  0  0  0
 13 14  1  0  0  0  0
 15 10  1  0  0  0  0
 16 15  2  0  0  0  0
  1 16  1  0  0  0  0
M  END
> <ChemID>
100623

> <CAS>
NOCAS_878035

> <Original_SMILES>
CCCCc1cc2cc(C)c(C)cc2cc1

> <preferred_name>


> <dsstox_substance_id>
DTXSID10878035

> <dsstox_compound_id>
DTXCID501016099

> <qc_level>


> <Canonical_QSARr>
CCCCC1=CC2C=C(C)C(C)=CC=2C=C1

> <InChI_Code_QSARr>
InChI=1S/C16H20/c1-4-5-6-14-7-8-15-9-12(2)13(3)10-16(15)11-14/h7-11H,4-6H2,1-3H3

> <InChI Key_QSARr>
YMMIQATXLXCOPJ-UHFFFAOYSA-N

> <Salt_Solvent>


> <Salt_Solvent_ID>
0

> <MPID>
102184

> <LogKmHL>
0.24

> <Tr_1_Tst_0>
0

$$$$
100628
  Mrv171c012251910542D          

 24 27  0  0  0  0            999 V2000
    4.5436   -2.2618    0.0000 C   0  0  0  0  0  0  0  0  0  0  0  0
    3.8291   -1.8493    0.0000 C   0  0  0  0  0  0  0  0  0  0  0  0
    3.1146   -2.2618    0.0000 C   0  0  0  0  0  0  0  0  0  0  0  0
    2.4002   -1.8493    0.0000 C   0  0  0  0  0  0  0  0  0  0  0  0
    2.4002   -1.0243    0.0000 C   0  0  0  0  0  0  0  0  0  0  0  0
    3.1146   -0.6118    0.0000 C   0  0  0  0  0  0  0  0  0  0  0  0
    3.1146    0.2132    0.0000 C   0  0  0  0  0  0  0  0  0  0  0  0
    3.8291    0.6257    0.0000 C   0  0  0  0  0  0  0  0  0  0  0  0
    4.5436    0.2132    0.0000 C   0  0  0  0  0  0  0  0  0  0  0  0
    4.5436   -0.6118    0.0000 C   0  0  0  0  0  0  0  0  0  0  0  0
    3.8291   -1.0243    0.0000 C   0  0  0  0  0  0  0  0  0  0  0  0
    3.8291    1.4507    0.0000 C   0  0  0  0  0  0  0  0  0  0  0  0
    3.1146    1.8632    0.0000 C   0  0  0  0  0  0  0  0  0  0  0  0
    2.4002    1.4507    0.0000 C   0  0  0  0  0  0  0  0  0  0  0  0
    2.4002    0.6257    0.0000 C   0  0  0  0  0  0  0  0  0  0  0  0
    1.6857    0.2132    0.0000 C   0  0  0  0  0  0  0  0  0  0  0  0
    1.6857   -0.6118    0.0000 C   0  0  0  0  0  0  0  0  0  0  0  0
    5.2580   -1.8493    0.0000 C   0  0  0  0  0  0  0  0  0  0  0  0
    5.9725   -2.2618    0.0000 C   0  0  0  0  0  0  0  0  0  0  0  0
    6.6870   -1.8493    0.0000 C   0  0  0  0  0  0  0  0  0  0  0  0
    7.4015   -2.2618    0.0000 C   0  0  0  0  0  0  0  0  0  0  0  0
    8.1159   -1.8493    0.0000 C   0  0  0  0  0  0  0  0  0  0  0  0
    8.8304   -2.2618    0.0000 C   0  0  0  0  0  0  0  0  0  0  0  0
    9.5449   -1.8493    0.0000 C   0  0  0  0  0  0  0  0  0  0  0  0
  1  2  1  0  0  0  0
  3  2  1  0  0  0  0
  4  3  2  0  0  0  0
  5  4  1  0  0  0  0
  5  6  2  0  0  0  0
  6  7  1  0  0  0  0
  8  7  1  0  0  0  0
  8  9  1  0  0  0  0
  9 10  2  0  0  0  0
 10 11  1  0  0  0  0
  2 11  2  0  0  0  0
 11  6  1  0  0  0  0
 12  8  2  0  0  0  0
 13 12  1  0  0  0  0
 14 13  2  0  0  0  0
 15 14  1  0  0  0  0
  7 15  2  0  0  0  0
 15 16  1  0  0  0  0
 16 17  2  0  0  0  0
 17  5  1  0  0  0  0
  1 18  1  0  0  0  0
 18 19  1  0  0  0  0
 19 20  1  0  0  0  0
 20 21  1  0  0  0  0
 21 22  1  0  0  0  0
 22 23  1  0  0  0  0
 23 24  1  0  0  0  0
M  END
> <ChemID>
100628

> <CAS>
71608-00-9

> <Original_SMILES>
CCCCCCCCc1ccc2ccc3cccc4ccc1c2c34

> <preferred_name>
PUBCHEM_14402350

> <dsstox_substance_id>
DTXSID80559900

> <dsstox_compound_id>
DTXCID10510680

> <qc_level>
Public_Low

> <Canonical_QSARr>
CCCCCCCCC1C=CC2C=CC3C=CC=C4C=CC=1C=2C=34

> <InChI_Code_QSARr>
InChI=1S/C24H26/c1-2-3-4-5-6-7-9-18-12-13-21-15-14-19-10-8-11-20-16-17-22(18)24(21)23(19)20/h8,10-17H,2-7,9H2,1H3

> <InChI Key_QSARr>
URBDBPHPDMMRDF-UHFFFAOYSA-N

> <Salt_Solvent>


> <Salt_Solvent_ID>
0

> <MPID>
102185

> <LogKmHL>
1.26

> <Tr_1_Tst_0>
1

$$$$
