100001
  Mrv171c012251910582D          

 19 20  0  0  0  0            999 V2000
    1.3190   -2.0632    0.0000 Cl  0  0  0  0  0  0  0  0  0  0  0  0
    1.7315   -2.7776    0.0000 C   0  0  0  0  0  0  0  0  0  0  0  0
    2.1440   -3.4921    0.0000 Cl  0  0  0  0  0  0  0  0  0  0  0  0
    1.0170   -3.1901    0.0000 Cl  0  0  0  0  0  0  0  0  0  0  0  0
    2.4459   -2.3651    0.0000 C   0  0  0  0  0  0  0  0  0  0  0  0
    2.4459   -1.5401    0.0000 C   0  0  0  0  0  0  0  0  0  0  0  0
    3.1604   -1.1276    0.0000 C   0  0  0  0  0  0  0  0  0  0  0  0
    3.1604   -0.3026    0.0000 C   0  0  0  0  0  0  0  0  0  0  0  0
    2.4459    0.1099    0.0000 C   0  0  0  0  0  0  0  0  0  0  0  0
    2.4459    0.9349    0.0000 Cl  0  0  0  0  0  0  0  0  0  0  0  0
    1.7315   -0.3026    0.0000 C   0  0  0  0  0  0  0  0  0  0  0  0
    1.7315   -1.1276    0.0000 C   0  0  0  0  0  0  0  0  0  0  0  0
    3.1604   -2.7776    0.0000 C   0  0  0  0  0  0  0  0  0  0  0  0
    3.1604   -3.6026    0.0000 C   0  0  0  0  0  0  0  0  0  0  0  0
    3.8749   -4.0151    0.0000 C   0  0  0  0  0  0  0  0  0  0  0  0
    4.5894   -3.6026    0.0000 C   0  0  0  0  0  0  0  0  0  0  0  0
    5.3038   -4.0151    0.0000 Cl  0  0  0  0  0  0  0  0  0  0  0  0
    4.5894   -2.7776    0.0000 C   0  0  0  0  0  0  0  0  0  0  0  0
    3.8749   -2.3651    0.0000 C   0  0  0  0  0  0  0  0  0  0  0  0
  1  2  1  0  0  0  0
  2  3  1  0  0  0  0
  2  4  1  0  0  0  0
  2  5  1  0  0  0  0
  5  6  1  0  0  0  0
  7  6  1  0  0  0  0
  8  7  2  0  0  0  0
  9  8  1  0  0  0  0
  9 10  1  0  0  0  0
 11  9  2  0  0  0  0
 12 11  1  0  0  0  0
  6 12  2  0  0  0  0
  5 13  1  0  0  0  0
 14 13  1  0  0  0  0
 15 14  2  0  0  0  0
 16 15  1  0  0  0  0
 16 17  1  0  0  0  0
 18 16  2  0  0  0  0
 19 18  1  0  0  0  0
 13 19  2  0  0  0  0
M  END
> <ChemID>
100001

> <CAS>
50-29-3

> <Original_SMILES>
ClC(Cl)(Cl)C(c1ccc(Cl)cc1)c1ccc(Cl)cc1

> <preferred_name>
p,p'-DDT

> <dsstox_substance_id>
DTXSID4020375

> <dsstox_compound_id>
DTXCID20375

> <qc_level>
DSSTox_High

> <Canonical_QSARr>
ClC(Cl)(Cl)C(C1C=CC(Cl)=CC=1)C1C=CC(Cl)=CC=1

> <InChI_Code_QSARr>
InChI=1S/C14H9Cl5/c15-11-5-1-9(2-6-11)13(14(17,18)19)10-3-7-12(16)8-4-10/h1-8,13H

> <InChI Key_QSARr>
YVGGHNCTFXOJCH-UHFFFAOYSA-N

> <Salt_Solvent>


> <Salt_Solvent_ID>
0

> <MPID>
18815

> <LogKOA_Ref>
Shoeib,M & Harner,T (2002)

> <LogKOA>
9.82

> <Tr_1_Tst_0>
1

$$$$
100002
  Mrv171c012251910582D          

  5  4  0  0  0  0            999 V2000
    0.8250   -1.6500    0.0000 Cl  0  0  0  0  0  0  0  0  0  0  0  0
    0.8250   -0.8250    0.0000 C   0  0  0  0  0  0  0  0  0  0  0  0
    0.8250    0.0000    0.0000 Cl  0  0  0  0  0  0  0  0  0  0  0  0
    1.6500   -0.8250    0.0000 Cl  0  0  0  0  0  0  0  0  0  0  0  0
    0.0000   -0.8250    0.0000 Cl  0  0  0  0  0  0  0  0  0  0  0  0
  1  2  1  0  0  0  0
  2  3  1  0  0  0  0
  2  4  1  0  0  0  0
  2  5  1  0  0  0  0
M  END
> <ChemID>
100002

> <CAS>
56-23-5

> <Original_SMILES>
ClC(Cl)(Cl)Cl

> <preferred_name>
Carbon tetrachloride

> <dsstox_substance_id>
DTXSID8020250

> <dsstox_compound_id>
DTXCID20250

> <qc_level>
DSSTox_Low

> <Canonical_QSARr>
ClC(Cl)(Cl)Cl

> <InChI_Code_QSARr>
InChI=1S/CCl4/c2-1(3,4)5

> <InChI Key_QSARr>
VZGDMQKNWNREIO-UHFFFAOYSA-N

> <Salt_Solvent>


> <Salt_Solvent_ID>
0

> <MPID>
18816

> <LogKOA_Ref>
Abraham,MH et al. (2001)

> <LogKOA>
2.79

> <Tr_1_Tst_0>
1

$$$$
100003
  Mrv171c012251910582D          

 12 12  0  0  0  0            999 V2000
    2.1693   -1.2482    0.0000 C   0  0  0  0  0  0  0  0  0  0  0  0
    2.8837   -0.8357    0.0000 Cl  0  0  0  0  0  0  0  0  0  0  0  0
    1.4548   -0.8357    0.0000 C   0  0  0  0  0  0  0  0  0  0  0  0
    1.4548   -0.0107    0.0000 Cl  0  0  0  0  0  0  0  0  0  0  0  0
    0.7403   -1.2482    0.0000 C   0  0  0  0  0  0  0  0  0  0  0  0
    0.0258   -0.8357    0.0000 Cl  0  0  0  0  0  0  0  0  0  0  0  0
    0.7403   -2.0732    0.0000 C   0  0  0  0  0  0  0  0  0  0  0  0
    0.0258   -2.4857    0.0000 Cl  0  0  0  0  0  0  0  0  0  0  0  0
    1.4548   -2.4857    0.0000 C   0  0  0  0  0  0  0  0  0  0  0  0
    1.4548   -3.3107    0.0000 Cl  0  0  0  0  0  0  0  0  0  0  0  0
    2.1693   -2.0732    0.0000 C   0  0  0  0  0  0  0  0  0  0  0  0
    2.8837   -2.4857    0.0000 Cl  0  0  0  0  0  0  0  0  0  0  0  0
  1  2  1  0  0  0  0
  3  1  1  0  0  0  0
  3  4  1  0  0  0  0
  5  3  1  0  0  0  0
  5  6  1  0  0  0  0
  7  5  1  0  0  0  0
  7  8  1  0  0  0  0
  9  7  1  0  0  0  0
  9 10  1  0  0  0  0
 11  9  1  0  0  0  0
  1 11  1  0  0  0  0
 11 12  1  0  0  0  0
M  END
> <ChemID>
100003

> <CAS>
58-89-9|319-84-6|319-85-7|319-86-8

> <Original_SMILES>
Cl[C@@H]1[C@@H](Cl)[C@H](Cl)[C@H](Cl)[C@@H](Cl)[C@@H]1Cl

> <preferred_name>
Lindane|alpha-1,2,3,4,5,6-Hexachlorocyclohexane|beta-Hexachlorocyclohexane|delta-Hexachlorocyclohexane

> <dsstox_substance_id>
DTXSID2020686|DTXSID2020684|DTXSID7020685|DTXSID5024134

> <dsstox_compound_id>
DTXCID40196532|DTXCID00196533|DTXCID20196535|DTXCID60196534

> <qc_level>
DSSTox_High

> <Canonical_QSARr>
ClC1C(Cl)C(Cl)C(Cl)C(Cl)C1Cl

> <InChI_Code_QSARr>
InChI=1S/C6H6Cl6/c7-1-2(8)4(10)6(12)5(11)3(1)9/h1-6H

> <InChI Key_QSARr>
JLYXXMFPNIAWKQ-UHFFFAOYSA-N

> <Salt_Solvent>


> <Salt_Solvent_ID>
0

> <MPID>
18817|18961|18962|18963

> <LogKOA_Ref>
Shoeib,M & Harner,T (2002)

> <LogKOA>
8.294999999999998

> <Tr_1_Tst_0>
1

$$$$
100004
  Mrv171c012251910582D          

  5  4  0  0  0  0            999 V2000
    1.3473   -0.3899    0.0000 O   0  0  0  0  0  0  0  0  0  0  0  0
    2.1723   -0.3899    0.0000 C   0  0  0  0  0  0  0  0  0  0  0  0
    2.5848   -1.1044    0.0000 C   0  0  0  0  0  0  0  0  0  0  0  0
    0.9348    0.3245    0.0000 C   0  0  0  0  0  0  0  0  0  0  0  0
    0.1098    0.3245    0.0000 C   0  0  0  0  0  0  0  0  0  0  0  0
  1  2  1  0  0  0  0
  2  3  1  0  0  0  0
  1  4  1  0  0  0  0
  4  5  1  0  0  0  0
M  END
> <ChemID>
100004

> <CAS>
60-29-7

> <Original_SMILES>
CCOCC

> <preferred_name>
Diethyl ether

> <dsstox_substance_id>
DTXSID3021720

> <dsstox_compound_id>
DTXCID101720

> <qc_level>
DSSTox_Low

> <Canonical_QSARr>
CCOCC

> <InChI_Code_QSARr>
InChI=1S/C4H10O/c1-3-5-4-2/h3-4H2,1-2H3

> <InChI Key_QSARr>
RTZKZFJDLAIYFH-UHFFFAOYSA-N

> <Salt_Solvent>


> <Salt_Solvent_ID>
0

> <MPID>
18818

> <LogKOA_Ref>
Abraham,MH et al. (2001)

> <LogKOA>
2.19

> <Tr_1_Tst_0>
0

$$$$
100005
  Mrv171c012251910582D          

 19 23  0  0  0  0            999 V2000
    0.8791   -2.2674    0.0000 C   0  0  0  0  0  0  0  0  0  0  0  0
    1.5936   -2.6799    0.0000 C   0  0  0  0  0  0  0  0  0  0  0  0
    1.7998   -1.8549    0.0000 C   0  0  0  0  0  0  0  0  0  0  0  0
    1.5936   -1.0299    0.0000 C   0  0  0  0  0  0  0  0  0  0  0  0
    2.1954   -1.4726    0.0000 C   0  0  0  0  0  0  0  0  0  0  0  0
    3.0225   -1.0299    0.0000 C   0  0  0  0  0  0  0  0  0  0  0  0
    3.2138   -0.1477    0.0000 Cl  0  0  0  0  0  0  0  0  0  0  0  0
    3.2288   -1.8549    0.0000 C   0  0  0  0  0  0  0  0  0  0  0  0
    2.5237   -0.9691    0.0000 Cl  0  0  0  0  0  0  0  0  0  0  0  0
    2.5404   -2.7583    0.0000 Cl  0  0  0  0  0  0  0  0  0  0  0  0
    3.0225   -2.6799    0.0000 C   0  0  0  0  0  0  0  0  0  0  0  0
    3.2450   -3.5556    0.0000 Cl  0  0  0  0  0  0  0  0  0  0  0  0
    3.7370   -2.2674    0.0000 C   0  0  0  0  0  0  0  0  0  0  0  0
    4.4962   -2.6868    0.0000 Cl  0  0  0  0  0  0  0  0  0  0  0  0
    3.7370   -1.4424    0.0000 C   0  0  0  0  0  0  0  0  0  0  0  0
    4.4973   -1.0254    0.0000 Cl  0  0  0  0  0  0  0  0  0  0  0  0
    2.3081   -2.2674    0.0000 C   0  0  0  0  0  0  0  0  0  0  0  0
    0.8791   -1.4424    0.0000 C   0  0  0  0  0  0  0  0  0  0  0  0
    0.1646   -1.8549    0.0000 O   0  0  0  0  0  0  0  0  0  0  0  0
  2  1  1  0  0  0  0
  2  3  1  0  0  0  0
  3  4  1  0  0  0  0
  4  5  1  0  0  0  0
  6  5  1  0  0  0  0
  6  7  1  0  0  0  0
  6  8  1  0  0  0  0
  8  9  1  0  0  0  0
  8 10  1  0  0  0  0
  8 11  1  0  0  0  0
 11 12  1  0  0  0  0
 11 13  1  0  0  0  0
 13 14  1  0  0  0  0
 13 15  2  0  0  0  0
 15  6  1  0  0  0  0
 15 16  1  0  0  0  0
 17 11  1  0  0  0  0
  5 17  1  0  0  0  0
 17  2  1  0  0  0  0
 18  4  1  0  0  0  0
 18  1  1  0  0  0  0
 19 18  1  0  0  0  0
  1 19  1  0  0  0  0
M  END
> <ChemID>
100005

> <CAS>
60-57-1|72-20-8

> <Original_SMILES>
ClC1(Cl)[C@@]2(Cl)[C@@H]3[C@@H]4C[C@@H]([C@H]5O[C@H]54)[C@@H]3[C@]1(Cl)C(Cl)=C2Cl

> <preferred_name>
Dieldrin|Endrin

> <dsstox_substance_id>
DTXSID9020453|DTXSID6020561

> <dsstox_compound_id>
DTXCID30196607|DTXCID90196608

> <qc_level>
DSSTox_High

> <Canonical_QSARr>
ClC1(Cl)C2(Cl)C3C4CC(C5OC54)C3C1(Cl)C(Cl)=C2Cl

> <InChI_Code_QSARr>
InChI=1S/C12H8Cl6O/c13-8-9(14)11(16)5-3-1-2(6-7(3)19-6)4(5)10(8,15)12(11,17)18/h2-7H,1H2

> <InChI Key_QSARr>
DFBKLUNHFCTMDC-UHFFFAOYSA-N

> <Salt_Solvent>


> <Salt_Solvent_ID>
0

> <MPID>
18819|18837

> <LogKOA_Ref>
Shoeib,M & Harner,T (2002)

> <LogKOA>
8.515

> <Tr_1_Tst_0>
1

$$$$
100006
  Mrv171c012251910582D          

 13 13  0  0  0  0            999 V2000
    2.4199   -3.6189    0.0000 C   0  0  0  0  0  0  0  0  0  0  0  0
    2.4199   -2.7939    0.0000 C   0  0  0  0  0  0  0  0  0  0  0  0
    3.1344   -2.3814    0.0000 N   0  0  0  0  0  0  0  0  0  0  0  0
    3.1344   -1.5564    0.0000 C   0  0  0  0  0  0  0  0  0  0  0  0
    3.8488   -1.1439    0.0000 C   0  0  0  0  0  0  0  0  0  0  0  0
    3.8488   -0.3189    0.0000 C   0  0  0  0  0  0  0  0  0  0  0  0
    3.1344    0.0936    0.0000 C   0  0  0  0  0  0  0  0  0  0  0  0
    3.1344    0.9186    0.0000 O   0  0  0  0  0  0  0  0  0  0  0  0
    3.8488    1.3311    0.0000 C   0  0  0  0  0  0  0  0  0  0  0  0
    3.8488    2.1561    0.0000 C   0  0  0  0  0  0  0  0  0  0  0  0
    2.4199   -0.3189    0.0000 C   0  0  0  0  0  0  0  0  0  0  0  0
    2.4199   -1.1439    0.0000 C   0  0  0  0  0  0  0  0  0  0  0  0
    1.7054   -2.3814    0.0000 O   0  0  0  0  0  0  0  0  0  0  0  0
  1  2  1  0  0  0  0
  2  3  1  0  0  0  0
  3  4  1  0  0  0  0
  5  4  1  0  0  0  0
  6  5  2  0  0  0  0
  7  6  1  0  0  0  0
  7  8  1  0  0  0  0
  8  9  1  0  0  0  0
  9 10  1  0  0  0  0
 11  7  2  0  0  0  0
 12 11  1  0  0  0  0
  4 12  2  0  0  0  0
  2 13  2  0  0  0  0
M  END
> <ChemID>
100006

> <CAS>
62-44-2

> <Original_SMILES>
CC(=O)Nc1ccc(cc1)OCC

> <preferred_name>
Phenacetin

> <dsstox_substance_id>
DTXSID1021116

> <dsstox_compound_id>
DTXCID001116

> <qc_level>
DSSTox_Low

> <Canonical_QSARr>
CC(=O)NC1C=CC(=CC=1)OCC

> <InChI_Code_QSARr>
InChI=1S/C10H13NO2/c1-3-13-10-6-4-9(5-7-10)11-8(2)12/h4-7H,3H2,1-2H3,(H,11,12)

> <InChI Key_QSARr>
CPJSUEIXXCENMM-UHFFFAOYSA-N

> <Salt_Solvent>


> <Salt_Solvent_ID>
0

> <MPID>
18820

> <LogKOA_Ref>
Abraham,MH et al. (2001)

> <LogKOA>
9.59

> <Tr_1_Tst_0>
1

$$$$
100007
  Mrv171c012251910582D          

  3  2  0  0  0  0            999 V2000
   -0.0002   -0.1377    0.0000 C   0  0  0  0  0  0  0  0  0  0  0  0
    0.7143   -0.5502    0.0000 C   0  0  0  0  0  0  0  0  0  0  0  0
    1.4287   -0.1377    0.0000 O   0  0  0  0  0  0  0  0  0  0  0  0
  1  2  1  0  0  0  0
  2  3  1  0  0  0  0
M  END
> <ChemID>
100007

> <CAS>
64-17-5

> <Original_SMILES>
CCO

> <preferred_name>
Ethanol

> <dsstox_substance_id>
DTXSID9020584

> <dsstox_compound_id>
DTXCID30584

> <qc_level>
DSSTox_High

> <Canonical_QSARr>
CCO

> <InChI_Code_QSARr>
InChI=1S/C2H6O/c1-2-3/h3H,2H2,1H3

> <InChI Key_QSARr>
LFQSCWFLJHTTHZ-UHFFFAOYSA-N

> <Salt_Solvent>


> <Salt_Solvent_ID>
0

> <MPID>
18821

> <LogKOA_Ref>
Gruber,D et al. (1997)

> <LogKOA>
3.25

> <Tr_1_Tst_0>
1

$$$$
100008
  Mrv171c012251910582D          

  4  3  0  0  0  0            999 V2000
    0.8246   -0.7143    0.0000 C   0  0  0  0  0  0  0  0  0  0  0  0
    1.2371    0.0002    0.0000 O   0  0  0  0  0  0  0  0  0  0  0  0
    1.2371   -1.4287    0.0000 O   0  0  0  0  0  0  0  0  0  0  0  0
   -0.0004   -0.7143    0.0000 C   0  0  0  0  0  0  0  0  0  0  0  0
  1  2  1  0  0  0  0
  1  3  2  0  0  0  0
  1  4  1  0  0  0  0
M  END
> <ChemID>
100008

> <CAS>
64-19-7

> <Original_SMILES>
CC(O)=O

> <preferred_name>
Acetic acid

> <dsstox_substance_id>
DTXSID5024394

> <dsstox_compound_id>
DTXCID304394

> <qc_level>
DSSTox_High

> <Canonical_QSARr>
CC(O)=O

> <InChI_Code_QSARr>
InChI=1S/C2H4O2/c1-2(3)4/h1H3,(H,3,4)

> <InChI Key_QSARr>
QTBSBXVTEAMEQO-UHFFFAOYSA-N

> <Salt_Solvent>


> <Salt_Solvent_ID>
0

> <MPID>
18822

> <LogKOA_Ref>
Abraham,MH et al. (2001)

> <LogKOA>
4.31

> <Tr_1_Tst_0>
0

$$$$
100009
  Mrv171c012251910582D          

  7  6  0  0  0  0            999 V2000
   -0.0018   -0.0582    0.0000 C   0  0  0  0  0  0  0  0  0  0  0  0
    0.7127   -0.4707    0.0000 C   0  0  0  0  0  0  0  0  0  0  0  0
    1.4272   -0.0582    0.0000 C   0  0  0  0  0  0  0  0  0  0  0  0
    2.1416   -0.4707    0.0000 C   0  0  0  0  0  0  0  0  0  0  0  0
    2.8561   -0.0582    0.0000 C   0  0  0  0  0  0  0  0  0  0  0  0
    3.5706   -0.4707    0.0000 C   0  0  0  0  0  0  0  0  0  0  0  0
    4.2850   -0.0582    0.0000 O   0  0  0  0  0  0  0  0  0  0  0  0
  1  2  1  0  0  0  0
  2  3  1  0  0  0  0
  3  4  1  0  0  0  0
  4  5  1  0  0  0  0
  5  6  1  0  0  0  0
  6  7  2  0  0  0  0
M  END
> <ChemID>
100009

> <CAS>
66-25-1

> <Original_SMILES>
CCCCCC=O

> <preferred_name>
Hexanal

> <dsstox_substance_id>
DTXSID2021604

> <dsstox_compound_id>
DTXCID901604

> <qc_level>
DSSTox_Low

> <Canonical_QSARr>
CCCCCC=O

> <InChI_Code_QSARr>
InChI=1S/C6H12O/c1-2-3-4-5-6-7/h6H,2-5H2,1H3

> <InChI Key_QSARr>
JARKCYVAAOWBJS-UHFFFAOYSA-N

> <Salt_Solvent>


> <Salt_Solvent_ID>
0

> <MPID>
18823

> <LogKOA_Ref>
Abraham,MH et al. (2001)

> <LogKOA>
4.41

> <Tr_1_Tst_0>
1

$$$$
100010
  Mrv171c012251910582D          

  2  1  0  0  0  0            999 V2000
    0.8250    0.0000    0.0000 C   0  0  0  0  0  0  0  0  0  0  0  0
    0.0000    0.0000    0.0000 O   0  0  0  0  0  0  0  0  0  0  0  0
  1  2  1  0  0  0  0
M  END
> <ChemID>
100010

> <CAS>
67-56-1

> <Original_SMILES>
CO

> <preferred_name>
Methanol

> <dsstox_substance_id>
DTXSID2021731

> <dsstox_compound_id>
DTXCID801731

> <qc_level>
DSSTox_Low

> <Canonical_QSARr>
CO

> <InChI_Code_QSARr>
InChI=1S/CH4O/c1-2/h2H,1H3

> <InChI Key_QSARr>
OKKJLVBELUTLKV-UHFFFAOYSA-N

> <Salt_Solvent>


> <Salt_Solvent_ID>
0

> <MPID>
18824

> <LogKOA_Ref>
Gruber,D et al. (1997)

> <LogKOA>
2.88

> <Tr_1_Tst_0>
1

$$$$
100011
  Mrv171c012251910582D          

  4  3  0  0  0  0            999 V2000
    1.1268   -0.1101    0.0000 O   0  0  0  0  0  0  0  0  0  0  0  0
    0.7143   -0.8246    0.0000 C   0  0  0  0  0  0  0  0  0  0  0  0
    1.1268   -1.5391    0.0000 C   0  0  0  0  0  0  0  0  0  0  0  0
   -0.1107   -0.8246    0.0000 C   0  0  0  0  0  0  0  0  0  0  0  0
  1  2  1  0  0  0  0
  2  3  1  0  0  0  0
  2  4  1  0  0  0  0
M  END
> <ChemID>
100011

> <CAS>
67-63-0

> <Original_SMILES>
CC(C)O

> <preferred_name>
Isopropanol

> <dsstox_substance_id>
DTXSID7020762

> <dsstox_compound_id>
DTXCID50762

> <qc_level>
DSSTox_Low

> <Canonical_QSARr>
CC(C)O

> <InChI_Code_QSARr>
InChI=1S/C3H8O/c1-3(2)4/h3-4H,1-2H3

> <InChI Key_QSARr>
KFZMGEQAYNKOFK-UHFFFAOYSA-N

> <Salt_Solvent>


> <Salt_Solvent_ID>
0

> <MPID>
18825

> <LogKOA_Ref>
Gruber,D et al. (1997)

> <LogKOA>
3.41

> <Tr_1_Tst_0>
1

$$$$
100012
  Mrv171c012251910582D          

  4  3  0  0  0  0            999 V2000
    1.2371    0.0002    0.0000 C   0  0  0  0  0  0  0  0  0  0  0  0
    0.8246   -0.7143    0.0000 C   0  0  0  0  0  0  0  0  0  0  0  0
    1.2371   -1.4287    0.0000 O   0  0  0  0  0  0  0  0  0  0  0  0
   -0.0004   -0.7143    0.0000 C   0  0  0  0  0  0  0  0  0  0  0  0
  1  2  1  0  0  0  0
  2  3  2  0  0  0  0
  2  4  1  0  0  0  0
M  END
> <ChemID>
100012

> <CAS>
67-64-1

> <Original_SMILES>
CC(C)=O

> <preferred_name>
Acetone

> <dsstox_substance_id>
DTXSID8021482

> <dsstox_compound_id>
DTXCID101482

> <qc_level>
DSSTox_Low

> <Canonical_QSARr>
CC(C)=O

> <InChI_Code_QSARr>
InChI=1S/C3H6O/c1-3(2)4/h1-2H3

> <InChI Key_QSARr>
CSCPPACGZOOCGX-UHFFFAOYSA-N

> <Salt_Solvent>


> <Salt_Solvent_ID>
0

> <MPID>
18826

> <LogKOA_Ref>
Abraham,MH et al. (2001)

> <LogKOA>
2.31

> <Tr_1_Tst_0>
0

$$$$
100013
  Mrv171c012251910582D          

  4  3  0  0  0  0            999 V2000
    1.2371    0.0002    0.0000 Cl  0  0  0  0  0  0  0  0  0  0  0  0
    0.8246   -0.7143    0.0000 C   0  0  0  0  0  0  0  0  0  0  0  0
    1.2371   -1.4287    0.0000 Cl  0  0  0  0  0  0  0  0  0  0  0  0
   -0.0004   -0.7143    0.0000 Cl  0  0  0  0  0  0  0  0  0  0  0  0
  1  2  1  0  0  0  0
  2  3  1  0  0  0  0
  2  4  1  0  0  0  0
M  END
> <ChemID>
100013

> <CAS>
67-66-3

> <Original_SMILES>
ClC(Cl)Cl

> <preferred_name>
Chloroform

> <dsstox_substance_id>
DTXSID1020306

> <dsstox_compound_id>
DTXCID10306

> <qc_level>
DSSTox_Low

> <Canonical_QSARr>
ClC(Cl)Cl

> <InChI_Code_QSARr>
InChI=1S/CHCl3/c2-1(3)4/h1H

> <InChI Key_QSARr>
HEDRZPFGACZZDS-UHFFFAOYSA-N

> <Salt_Solvent>


> <Salt_Solvent_ID>
0

> <MPID>
18827

> <LogKOA_Ref>
Abraham,MH et al. (2001)

> <LogKOA>
2.8

> <Tr_1_Tst_0>
1

$$$$
100014
  Mrv171c012251910582D          

  4  3  0  0  0  0            999 V2000
    1.2371    0.0002    0.0000 C   0  0  0  0  0  0  0  0  0  0  0  0
    0.8246   -0.7143    0.0000 S   0  0  0  0  0  0  0  0  0  0  0  0
    1.2371   -1.4287    0.0000 C   0  0  0  0  0  0  0  0  0  0  0  0
   -0.0004   -0.7143    0.0000 O   0  0  0  0  0  0  0  0  0  0  0  0
  1  2  1  0  0  0  0
  2  3  1  0  0  0  0
  2  4  2  0  0  0  0
M  END
> <ChemID>
100014

> <CAS>
67-68-5

> <Original_SMILES>
CS(C)=O

> <preferred_name>
Dimethyl sulfoxide

> <dsstox_substance_id>
DTXSID2021735

> <dsstox_compound_id>
DTXCID401735

> <qc_level>
DSSTox_Low

> <Canonical_QSARr>
CS(C)=O

> <InChI_Code_QSARr>
InChI=1S/C2H6OS/c1-4(2)3/h1-2H3

> <InChI Key_QSARr>
IAZDPXIOMUYVGZ-UHFFFAOYSA-N

> <Salt_Solvent>


> <Salt_Solvent_ID>
0

> <MPID>
18828

> <LogKOA_Ref>
Abraham,MH et al. (2001)

> <LogKOA>
4.96

> <Tr_1_Tst_0>
1

$$$$
100015
  Mrv171c012251910582D          

  8  7  0  0  0  0            999 V2000
    0.8232   -2.4725    0.0000 Cl  0  0  0  0  0  0  0  0  0  0  0  0
    0.8232   -1.6475    0.0000 C   0  0  0  0  0  0  0  0  0  0  0  0
    1.6482   -1.6475    0.0000 Cl  0  0  0  0  0  0  0  0  0  0  0  0
   -0.0018   -1.6475    0.0000 Cl  0  0  0  0  0  0  0  0  0  0  0  0
    0.8232   -0.8225    0.0000 C   0  0  0  0  0  0  0  0  0  0  0  0
    0.8232    0.0025    0.0000 Cl  0  0  0  0  0  0  0  0  0  0  0  0
    1.6482   -0.8225    0.0000 Cl  0  0  0  0  0  0  0  0  0  0  0  0
   -0.0018   -0.8225    0.0000 Cl  0  0  0  0  0  0  0  0  0  0  0  0
  1  2  1  0  0  0  0
  2  3  1  0  0  0  0
  2  4  1  0  0  0  0
  2  5  1  0  0  0  0
  5  6  1  0  0  0  0
  5  7  1  0  0  0  0
  5  8  1  0  0  0  0
M  END
> <ChemID>
100015

> <CAS>
67-72-1

> <Original_SMILES>
ClC(Cl)(Cl)C(Cl)(Cl)Cl

> <preferred_name>
Hexachloroethane

> <dsstox_substance_id>
DTXSID7020689

> <dsstox_compound_id>
DTXCID90689

> <qc_level>
DSSTox_Low

> <Canonical_QSARr>
ClC(Cl)(Cl)C(Cl)(Cl)Cl

> <InChI_Code_QSARr>
InChI=1S/C2Cl6/c3-1(4,5)2(6,7)8

> <InChI Key_QSARr>
VHHHONWQHHHLTI-UHFFFAOYSA-N

> <Salt_Solvent>


> <Salt_Solvent_ID>
0

> <MPID>
18829

> <LogKOA_Ref>
Abraham,MH et al. (2001)

> <LogKOA>
4.47

> <Tr_1_Tst_0>
1

$$$$
100016
  Mrv171c012251910582D          

  5  4  0  0  0  0            999 V2000
    2.2164   -0.9681    0.0000 C   0  0  0  0  0  0  0  0  0  0  0  0
    1.3914   -0.9681    0.0000 N   0  0  0  0  0  0  0  0  0  0  0  0
    0.9789   -1.6826    0.0000 C   0  0  0  0  0  0  0  0  0  0  0  0
    0.9789   -0.2536    0.0000 C   0  0  0  0  0  0  0  0  0  0  0  0
    0.1539   -0.2536    0.0000 O   0  0  0  0  0  0  0  0  0  0  0  0
  1  2  1  0  0  0  0
  2  3  1  0  0  0  0
  2  4  1  0  0  0  0
  4  5  2  0  0  0  0
M  END
> <ChemID>
100016

> <CAS>
68-12-2

> <Original_SMILES>
CN(C)C=O

> <preferred_name>
N,N-Dimethylformamide

> <dsstox_substance_id>
DTXSID6020515

> <dsstox_compound_id>
DTXCID20515

> <qc_level>
DSSTox_High

> <Canonical_QSARr>
CN(C)C=O

> <InChI_Code_QSARr>
InChI=1S/C3H7NO/c1-4(2)3-5/h3H,1-2H3

> <InChI Key_QSARr>
ZMXDDKWLCZADIW-UHFFFAOYSA-N

> <Salt_Solvent>


> <Salt_Solvent_ID>
0

> <MPID>
18830

> <LogKOA_Ref>
Abraham,MH et al. (2001)

> <LogKOA>
4.38

> <Tr_1_Tst_0>
0

$$$$
100017
  Mrv171c012251910582D          

 10 10  0  0  0  0            999 V2000
    1.1526   -1.5038    0.0000 C   0  0  0  0  0  0  0  0  0  0  0  0
    1.1526   -2.3288    0.0000 C   0  0  0  0  0  0  0  0  0  0  0  0
    1.8671   -2.7413    0.0000 C   0  0  0  0  0  0  0  0  0  0  0  0
    2.5816   -2.3288    0.0000 C   0  0  0  0  0  0  0  0  0  0  0  0
    2.5816   -1.5038    0.0000 C   0  0  0  0  0  0  0  0  0  0  0  0
    1.8671   -1.0913    0.0000 C   0  0  0  0  0  0  0  0  0  0  0  0
    1.8671   -0.2663    0.0000 O   0  0  0  0  0  0  0  0  0  0  0  0
    0.4382   -1.0913    0.0000 C   0  0  0  0  0  0  0  0  0  0  0  0
   -0.2763   -1.5038    0.0000 O   0  0  0  0  0  0  0  0  0  0  0  0
    0.4382   -0.2663    0.0000 O   0  0  0  0  0  0  0  0  0  0  0  0
  2  1  1  0  0  0  0
  3  2  2  0  0  0  0
  4  3  1  0  0  0  0
  5  4  2  0  0  0  0
  6  5  1  0  0  0  0
  1  6  2  0  0  0  0
  6  7  1  0  0  0  0
  1  8  1  0  0  0  0
  8  9  1  0  0  0  0
  8 10  2  0  0  0  0
M  END
> <ChemID>
100017

> <CAS>
69-72-7

> <Original_SMILES>
Oc1ccccc1C(O)=O

> <preferred_name>
Salicylic acid

> <dsstox_substance_id>
DTXSID7026368

> <dsstox_compound_id>
DTXCID206368

> <qc_level>
DSSTox_Low

> <Canonical_QSARr>
OC1C=CC=CC=1C(O)=O

> <InChI_Code_QSARr>
InChI=1S/C7H6O3/c8-6-4-2-1-3-5(6)7(9)10/h1-4,8H,(H,9,10)

> <InChI Key_QSARr>
YGSDEFSMJLZEOE-UHFFFAOYSA-N

> <Salt_Solvent>


> <Salt_Solvent_ID>
0

> <MPID>
18831

> <LogKOA_Ref>
Abraham,MH et al. (2001)

> <LogKOA>
7.44

> <Tr_1_Tst_0>
1

$$$$
100018
  Mrv171c012251910582D          

  4  3  0  0  0  0            999 V2000
    2.1043   -0.5633    0.0000 O   0  0  0  0  0  0  0  0  0  0  0  0
    1.2793   -0.5633    0.0000 C   0  0  0  0  0  0  0  0  0  0  0  0
    0.8668    0.1512    0.0000 C   0  0  0  0  0  0  0  0  0  0  0  0
    0.0418    0.1512    0.0000 C   0  0  0  0  0  0  0  0  0  0  0  0
  1  2  1  0  0  0  0
  2  3  1  0  0  0  0
  3  4  1  0  0  0  0
M  END
> <ChemID>
100018

> <CAS>
71-23-8

> <Original_SMILES>
CCCO

> <preferred_name>
1-Propanol

> <dsstox_substance_id>
DTXSID2021739

> <dsstox_compound_id>
DTXCID001739

> <qc_level>
DSSTox_High

> <Canonical_QSARr>
CCCO

> <InChI_Code_QSARr>
InChI=1S/C3H8O/c1-2-3-4/h4H,2-3H2,1H3

> <InChI Key_QSARr>
BDERNNFJNOPAEC-UHFFFAOYSA-N

> <Salt_Solvent>


> <Salt_Solvent_ID>
0

> <MPID>
18832

> <LogKOA_Ref>
Gruber,D et al. (1997)

> <LogKOA>
3.71

> <Tr_1_Tst_0>
1

$$$$
100019
  Mrv171c012251910582D          

  5  4  0  0  0  0            999 V2000
    2.5848   -1.1044    0.0000 C   0  0  0  0  0  0  0  0  0  0  0  0
    2.1723   -0.3899    0.0000 C   0  0  0  0  0  0  0  0  0  0  0  0
    1.3473   -0.3899    0.0000 C   0  0  0  0  0  0  0  0  0  0  0  0
    0.9348    0.3245    0.0000 C   0  0  0  0  0  0  0  0  0  0  0  0
    0.1098    0.3245    0.0000 O   0  0  0  0  0  0  0  0  0  0  0  0
  1  2  1  0  0  0  0
  2  3  1  0  0  0  0
  3  4  1  0  0  0  0
  4  5  1  0  0  0  0
M  END
> <ChemID>
100019

> <CAS>
71-36-3

> <Original_SMILES>
CCCCO

> <preferred_name>
1-Butanol

> <dsstox_substance_id>
DTXSID1021740

> <dsstox_compound_id>
DTXCID701740

> <qc_level>
DSSTox_Low

> <Canonical_QSARr>
CCCCO

> <InChI_Code_QSARr>
InChI=1S/C4H10O/c1-2-3-4-5/h5H,2-4H2,1H3

> <InChI Key_QSARr>
LRHPLDYGYMQRHN-UHFFFAOYSA-N

> <Salt_Solvent>


> <Salt_Solvent_ID>
0

> <MPID>
18833

> <LogKOA_Ref>
Abraham,MH et al. (2001)

> <LogKOA>
4.19

> <Tr_1_Tst_0>
1

$$$$
100020
  Mrv171c012251910582D          

  6  5  0  0  0  0            999 V2000
    0.0018   -0.4119    0.0000 C   0  0  0  0  0  0  0  0  0  0  0  0
    0.7163    0.0006    0.0000 C   0  0  0  0  0  0  0  0  0  0  0  0
    1.4307   -0.4119    0.0000 C   0  0  0  0  0  0  0  0  0  0  0  0
    2.1452    0.0006    0.0000 C   0  0  0  0  0  0  0  0  0  0  0  0
    2.8597   -0.4119    0.0000 C   0  0  0  0  0  0  0  0  0  0  0  0
    3.5741    0.0006    0.0000 O   0  0  0  0  0  0  0  0  0  0  0  0
  1  2  1  0  0  0  0
  2  3  1  0  0  0  0
  3  4  1  0  0  0  0
  4  5  1  0  0  0  0
  5  6  1  0  0  0  0
M  END
> <ChemID>
100020

> <CAS>
71-41-0

> <Original_SMILES>
CCCCCO

> <preferred_name>
1-Pentanol

> <dsstox_substance_id>
DTXSID6021741

> <dsstox_compound_id>
DTXCID101741

> <qc_level>
DSSTox_Low

> <Canonical_QSARr>
CCCCCO

> <InChI_Code_QSARr>
InChI=1S/C5H12O/c1-2-3-4-5-6/h6H,2-5H2,1H3

> <InChI Key_QSARr>
AMQJEAYHLZJPGS-UHFFFAOYSA-N

> <Salt_Solvent>


> <Salt_Solvent_ID>
0

> <MPID>
18834

> <LogKOA_Ref>
Abraham,MH et al. (2001)

> <LogKOA>
4.69

> <Tr_1_Tst_0>
0

$$$$
100021
  Mrv171c012251910582D          

  6  6  0  0  0  0            999 V2000
    1.4289   -0.4125    0.0000 C   0  0  0  0  0  0  0  0  0  0  0  0
    0.7145    0.0000    0.0000 C   0  0  0  0  0  0  0  0  0  0  0  0
    0.0000   -0.4125    0.0000 C   0  0  0  0  0  0  0  0  0  0  0  0
    0.0000   -1.2375    0.0000 C   0  0  0  0  0  0  0  0  0  0  0  0
    0.7145   -1.6500    0.0000 C   0  0  0  0  0  0  0  0  0  0  0  0
    1.4289   -1.2375    0.0000 C   0  0  0  0  0  0  0  0  0  0  0  0
  2  1  1  0  0  0  0
  3  2  2  0  0  0  0
  4  3  1  0  0  0  0
  5  4  2  0  0  0  0
  6  5  1  0  0  0  0
  1  6  2  0  0  0  0
M  END
> <ChemID>
100021

> <CAS>
71-43-2

> <Original_SMILES>
c1ccccc1

> <preferred_name>
Benzene

> <dsstox_substance_id>
DTXSID3039242

> <dsstox_compound_id>
DTXCID20135

> <qc_level>
DSSTox_Low

> <Canonical_QSARr>
C1C=CC=CC=1

> <InChI_Code_QSARr>
InChI=1S/C6H6/c1-2-4-6-5-3-1/h1-6H

> <InChI Key_QSARr>
UHOVQNZJYSORNB-UHFFFAOYSA-N

> <Salt_Solvent>


> <Salt_Solvent_ID>
0

> <MPID>
18835

> <LogKOA_Ref>
Gruber,D et al. (1997)

> <LogKOA>
2.78

> <Tr_1_Tst_0>
1

$$$$
100022
  Mrv171c012251910582D          

  5  4  0  0  0  0            999 V2000
    0.8250   -1.6500    0.0000 C   0  0  0  0  0  0  0  0  0  0  0  0
    0.8250   -0.8250    0.0000 C   0  0  0  0  0  0  0  0  0  0  0  0
    0.8250    0.0000    0.0000 Cl  0  0  0  0  0  0  0  0  0  0  0  0
    1.6500   -0.8250    0.0000 Cl  0  0  0  0  0  0  0  0  0  0  0  0
    0.0000   -0.8250    0.0000 Cl  0  0  0  0  0  0  0  0  0  0  0  0
  1  2  1  0  0  0  0
  2  3  1  0  0  0  0
  2  4  1  0  0  0  0
  2  5  1  0  0  0  0
M  END
> <ChemID>
100022

> <CAS>
71-55-6

> <Original_SMILES>
CC(Cl)(Cl)Cl

> <preferred_name>
1,1,1-Trichloroethane

> <dsstox_substance_id>
DTXSID0021381

> <dsstox_compound_id>
DTXCID501381

> <qc_level>
DSSTox_Low

> <Canonical_QSARr>
CC(Cl)(Cl)Cl

> <InChI_Code_QSARr>
InChI=1S/C2H3Cl3/c1-2(3,4)5/h1H3

> <InChI Key_QSARr>
UOCLXMDMGBRAIB-UHFFFAOYSA-N

> <Salt_Solvent>


> <Salt_Solvent_ID>
0

> <MPID>
18836

> <LogKOA_Ref>
Abraham,MH et al. (2001)

> <LogKOA>
2.7

> <Tr_1_Tst_0>
1

$$$$
100024
  Mrv171c012251910582D          

 18 19  0  0  0  0            999 V2000
    4.7646   -2.0618    0.0000 Cl  0  0  0  0  0  0  0  0  0  0  0  0
    4.0501   -2.4743    0.0000 C   0  0  0  0  0  0  0  0  0  0  0  0
    4.0501   -3.2993    0.0000 Cl  0  0  0  0  0  0  0  0  0  0  0  0
    3.3357   -2.0618    0.0000 C   0  0  0  0  0  0  0  0  0  0  0  0
    3.3357   -1.2368    0.0000 C   0  0  0  0  0  0  0  0  0  0  0  0
    4.0501   -0.8243    0.0000 C   0  0  0  0  0  0  0  0  0  0  0  0
    4.0501    0.0007    0.0000 C   0  0  0  0  0  0  0  0  0  0  0  0
    3.3357    0.4132    0.0000 C   0  0  0  0  0  0  0  0  0  0  0  0
    3.3357    1.2382    0.0000 Cl  0  0  0  0  0  0  0  0  0  0  0  0
    2.6212    0.0007    0.0000 C   0  0  0  0  0  0  0  0  0  0  0  0
    2.6212   -0.8243    0.0000 C   0  0  0  0  0  0  0  0  0  0  0  0
    2.6212   -2.4743    0.0000 C   0  0  0  0  0  0  0  0  0  0  0  0
    1.9067   -2.0618    0.0000 C   0  0  0  0  0  0  0  0  0  0  0  0
    1.1922   -2.4743    0.0000 C   0  0  0  0  0  0  0  0  0  0  0  0
    1.1922   -3.2993    0.0000 C   0  0  0  0  0  0  0  0  0  0  0  0
    0.4778   -3.7118    0.0000 Cl  0  0  0  0  0  0  0  0  0  0  0  0
    1.9067   -3.7118    0.0000 C   0  0  0  0  0  0  0  0  0  0  0  0
    2.6212   -3.2993    0.0000 C   0  0  0  0  0  0  0  0  0  0  0  0
  1  2  1  0  0  0  0
  2  3  1  0  0  0  0
  2  4  1  0  0  0  0
  4  5  1  0  0  0  0
  6  5  1  0  0  0  0
  7  6  2  0  0  0  0
  8  7  1  0  0  0  0
  8  9  1  0  0  0  0
 10  8  2  0  0  0  0
 11 10  1  0  0  0  0
  5 11  2  0  0  0  0
  4 12  1  0  0  0  0
 13 12  1  0  0  0  0
 14 13  2  0  0  0  0
 15 14  1  0  0  0  0
 15 16  1  0  0  0  0
 17 15  2  0  0  0  0
 18 17  1  0  0  0  0
 12 18  2  0  0  0  0
M  END
> <ChemID>
100024

> <CAS>
72-54-8

> <Original_SMILES>
ClC(Cl)C(c1ccc(Cl)cc1)c1ccc(Cl)cc1

> <preferred_name>
p,p'-DDD

> <dsstox_substance_id>
DTXSID4020373

> <dsstox_compound_id>
DTXCID60373

> <qc_level>
DSSTox_Low

> <Canonical_QSARr>
ClC(Cl)C(C1=CC=C(Cl)C=C1)C1=CC=C(Cl)C=C1

> <InChI_Code_QSARr>
InChI=1S/C14H10Cl4/c15-11-5-1-9(2-6-11)13(14(17)18)10-3-7-12(16)8-4-10/h1-8,13-14H

> <InChI Key_QSARr>
AHJKRLASYNVKDZ-UHFFFAOYSA-N

> <Salt_Solvent>


> <Salt_Solvent_ID>
0

> <MPID>
18838

> <LogKOA_Ref>
Shoeib,M & Harner,T (2002)

> <LogKOA>
10.1

> <Tr_1_Tst_0>
1

$$$$
100025
  Mrv171c012251910582D          

 18 19  0  0  0  0            999 V2000
    4.7646   -2.0618    0.0000 Cl  0  0  0  0  0  0  0  0  0  0  0  0
    4.0501   -2.4743    0.0000 C   0  0  0  0  0  0  0  0  0  0  0  0
    4.0501   -3.2993    0.0000 Cl  0  0  0  0  0  0  0  0  0  0  0  0
    3.3357   -2.0618    0.0000 C   0  0  0  0  0  0  0  0  0  0  0  0
    3.3357   -1.2368    0.0000 C   0  0  0  0  0  0  0  0  0  0  0  0
    4.0501   -0.8243    0.0000 C   0  0  0  0  0  0  0  0  0  0  0  0
    4.0501    0.0007    0.0000 C   0  0  0  0  0  0  0  0  0  0  0  0
    3.3357    0.4132    0.0000 C   0  0  0  0  0  0  0  0  0  0  0  0
    3.3357    1.2382    0.0000 Cl  0  0  0  0  0  0  0  0  0  0  0  0
    2.6212    0.0007    0.0000 C   0  0  0  0  0  0  0  0  0  0  0  0
    2.6212   -0.8243    0.0000 C   0  0  0  0  0  0  0  0  0  0  0  0
    2.6212   -2.4743    0.0000 C   0  0  0  0  0  0  0  0  0  0  0  0
    1.9067   -2.0618    0.0000 C   0  0  0  0  0  0  0  0  0  0  0  0
    1.1922   -2.4743    0.0000 C   0  0  0  0  0  0  0  0  0  0  0  0
    1.1922   -3.2993    0.0000 C   0  0  0  0  0  0  0  0  0  0  0  0
    0.4778   -3.7118    0.0000 Cl  0  0  0  0  0  0  0  0  0  0  0  0
    1.9067   -3.7118    0.0000 C   0  0  0  0  0  0  0  0  0  0  0  0
    2.6212   -3.2993    0.0000 C   0  0  0  0  0  0  0  0  0  0  0  0
  1  2  1  0  0  0  0
  2  3  1  0  0  0  0
  2  4  2  0  0  0  0
  4  5  1  0  0  0  0
  6  5  1  0  0  0  0
  7  6  2  0  0  0  0
  8  7  1  0  0  0  0
  8  9  1  0  0  0  0
 10  8  2  0  0  0  0
 11 10  1  0  0  0  0
  5 11  2  0  0  0  0
  4 12  1  0  0  0  0
 13 12  1  0  0  0  0
 14 13  2  0  0  0  0
 15 14  1  0  0  0  0
 15 16  1  0  0  0  0
 17 15  2  0  0  0  0
 18 17  1  0  0  0  0
 12 18  2  0  0  0  0
M  END
> <ChemID>
100025

> <CAS>
72-55-9

> <Original_SMILES>
ClC(Cl)=C(c1ccc(Cl)cc1)c1ccc(Cl)cc1

> <preferred_name>
p,p'-DDE

> <dsstox_substance_id>
DTXSID9020374

> <dsstox_compound_id>
DTXCID90374

> <qc_level>
DSSTox_High

> <Canonical_QSARr>
ClC(Cl)=C(C1C=CC(Cl)=CC=1)C1C=CC(Cl)=CC=1

> <InChI_Code_QSARr>
InChI=1S/C14H8Cl4/c15-11-5-1-9(2-6-11)13(14(17)18)10-3-7-12(16)8-4-10/h1-8H

> <InChI Key_QSARr>
UCNVFOCBFJOQAL-UHFFFAOYSA-N

> <Salt_Solvent>


> <Salt_Solvent_ID>
0

> <MPID>
18839

> <LogKOA_Ref>
Shoeib,M & Harner,T (2002)

> <LogKOA>
9.68

> <Tr_1_Tst_0>
0

$$$$
100026
  Mrv171c012251910582D          

  1  0  0  0  0  0            999 V2000
    0.0000    0.0000    0.0000 C   0  0  0  0  0  0  0  0  0  0  0  0
M  END
> <ChemID>
100026

> <CAS>
74-82-8

> <Original_SMILES>
C

> <preferred_name>
Methane

> <dsstox_substance_id>
DTXSID8025545

> <dsstox_compound_id>
DTXCID705545

> <qc_level>
DSSTox_Low

> <Canonical_QSARr>
C

> <InChI_Code_QSARr>
InChI=1S/CH4/h1H4

> <InChI Key_QSARr>
VNWKTOKETHGBQD-UHFFFAOYSA-N

> <Salt_Solvent>


> <Salt_Solvent_ID>
0

> <MPID>
18840

> <LogKOA_Ref>
Abraham,MH et al. (2001)

> <LogKOA>
-0.38

> <Tr_1_Tst_0>
1

$$$$
100027
  Mrv171c012251910582D          

  2  1  0  0  0  0            999 V2000
    0.8250    0.0000    0.0000 C   0  0  0  0  0  0  0  0  0  0  0  0
    0.0000    0.0000    0.0000 C   0  0  0  0  0  0  0  0  0  0  0  0
  1  2  1  0  0  0  0
M  END
> <ChemID>
100027

> <CAS>
74-84-0

> <Original_SMILES>
CC

> <preferred_name>
Ethane

> <dsstox_substance_id>
DTXSID6026377

> <dsstox_compound_id>
DTXCID106377

> <qc_level>
DSSTox_Low

> <Canonical_QSARr>
CC

> <InChI_Code_QSARr>
InChI=1S/C2H6/c1-2/h1-2H3

> <InChI Key_QSARr>
OTMSDBZUPAUEDD-UHFFFAOYSA-N

> <Salt_Solvent>


> <Salt_Solvent_ID>
0

> <MPID>
18841

> <LogKOA_Ref>
Abraham,MH et al. (2001)

> <LogKOA>
0.42

> <Tr_1_Tst_0>
1

$$$$
100028
  Mrv171c012251910582D          

  2  1  0  0  0  0            999 V2000
    0.8250    0.0000    0.0000 C   0  0  0  0  0  0  0  0  0  0  0  0
    0.0000    0.0000    0.0000 C   0  0  0  0  0  0  0  0  0  0  0  0
  1  2  2  0  0  0  0
M  END
> <ChemID>
100028

> <CAS>
74-85-1

> <Original_SMILES>
C=C

> <preferred_name>
Ethylene

> <dsstox_substance_id>
DTXSID1026378

> <dsstox_compound_id>
DTXCID605931

> <qc_level>
DSSTox_Low

> <Canonical_QSARr>
C=C

> <InChI_Code_QSARr>
InChI=1S/C2H4/c1-2/h1-2H2

> <InChI Key_QSARr>
VGGSQFUCUMXWEO-UHFFFAOYSA-N

> <Salt_Solvent>


> <Salt_Solvent_ID>
0

> <MPID>
18842

> <LogKOA_Ref>
Abraham,MH et al. (2001)

> <LogKOA>
0.28

> <Tr_1_Tst_0>
1

$$$$
100029
  Mrv171c012251910582D          

  2  1  0  0  0  0            999 V2000
    0.8250    0.0000    0.0000 Cl  0  0  0  0  0  0  0  0  0  0  0  0
    0.0000    0.0000    0.0000 C   0  0  0  0  0  0  0  0  0  0  0  0
  1  2  1  0  0  0  0
M  END
> <ChemID>
100029

> <CAS>
74-87-3

> <Original_SMILES>
CCl

> <preferred_name>
Chloromethane

> <dsstox_substance_id>
DTXSID0021541

> <dsstox_compound_id>
DTXCID701541

> <qc_level>
DSSTox_Low

> <Canonical_QSARr>
CCl

> <InChI_Code_QSARr>
InChI=1S/CH3Cl/c1-2/h1H3

> <InChI Key_QSARr>
NEHMKBQYUWJMIP-UHFFFAOYSA-N

> <Salt_Solvent>


> <Salt_Solvent_ID>
0

> <MPID>
18843

> <LogKOA_Ref>
Abraham,MH et al. (2001)

> <LogKOA>
1.39

> <Tr_1_Tst_0>
0

$$$$
100030
  Mrv171c012251910582D          

  2  1  0  0  0  0            999 V2000
    0.8250    0.0000    0.0000 C   0  0  0  0  0  0  0  0  0  0  0  0
    0.0000    0.0000    0.0000 I   0  0  0  0  0  0  0  0  0  0  0  0
  1  2  1  0  0  0  0
M  END
> <ChemID>
100030

> <CAS>
74-88-4

> <Original_SMILES>
CI

> <preferred_name>
Methyl iodide

> <dsstox_substance_id>
DTXSID0024187

> <dsstox_compound_id>
DTXCID804187

> <qc_level>
DSSTox_Low

> <Canonical_QSARr>
CI

> <InChI_Code_QSARr>
InChI=1S/CH3I/c1-2/h1H3

> <InChI Key_QSARr>
INQOMBQAUSQDDS-UHFFFAOYSA-N

> <Salt_Solvent>


> <Salt_Solvent_ID>
0

> <MPID>
18844

> <LogKOA_Ref>
Abraham,MH et al. (2001)

> <LogKOA>
2.16

> <Tr_1_Tst_0>
1

$$$$
100031
  Mrv171c012251910582D          

  2  1  0  0  0  0            999 V2000
    0.8250    0.0000    0.0000 N   0  0  0  0  0  0  0  0  0  0  0  0
    0.0000    0.0000    0.0000 C   0  0  0  0  0  0  0  0  0  0  0  0
  1  2  1  0  0  0  0
M  END
> <ChemID>
100031

> <CAS>
74-89-5

> <Original_SMILES>
CN

> <preferred_name>
Methylamine

> <dsstox_substance_id>
DTXSID7025683

> <dsstox_compound_id>
DTXCID305683

> <qc_level>
DSSTox_Low

> <Canonical_QSARr>
CN

> <InChI_Code_QSARr>
InChI=1S/CH5N/c1-2/h2H2,1H3

> <InChI Key_QSARr>
BAVYZALUXZFZLV-UHFFFAOYSA-N

> <Salt_Solvent>


> <Salt_Solvent_ID>
0

> <MPID>
18845

> <LogKOA_Ref>
Abraham,MH et al. (2001)

> <LogKOA>
1.9

> <Tr_1_Tst_0>
1

$$$$
100032
  Mrv171c012251910582D          

  3  2  0  0  0  0            999 V2000
   -0.0002   -0.1377    0.0000 Br  0  0  0  0  0  0  0  0  0  0  0  0
    0.7143   -0.5502    0.0000 C   0  0  0  0  0  0  0  0  0  0  0  0
    1.4287   -0.1377    0.0000 Br  0  0  0  0  0  0  0  0  0  0  0  0
  1  2  1  0  0  0  0
  2  3  1  0  0  0  0
M  END
> <ChemID>
100032

> <CAS>
74-95-3

> <Original_SMILES>
BrCBr

> <preferred_name>
Dibromomethane

> <dsstox_substance_id>
DTXSID4021557

> <dsstox_compound_id>
DTXCID401557

> <qc_level>
DSSTox_Low

> <Canonical_QSARr>
BrCBr

> <InChI_Code_QSARr>
InChI=1S/CH2Br2/c2-1-3/h1H2

> <InChI Key_QSARr>
FJBFPHVGVWTDIP-UHFFFAOYSA-N

> <Salt_Solvent>


> <Salt_Solvent_ID>
0

> <MPID>
18846

> <LogKOA_Ref>
Abraham,MH et al. (2001)

> <LogKOA>
3.07

> <Tr_1_Tst_0>
1

$$$$
100033
  Mrv171c012251910582D          

  3  2  0  0  0  0            999 V2000
   -0.0002   -0.1377    0.0000 C   0  0  0  0  0  0  0  0  0  0  0  0
    0.7143   -0.5502    0.0000 C   0  0  0  0  0  0  0  0  0  0  0  0
    1.4287   -0.1377    0.0000 Br  0  0  0  0  0  0  0  0  0  0  0  0
  1  2  1  0  0  0  0
  2  3  1  0  0  0  0
M  END
> <ChemID>
100033

> <CAS>
74-96-4

> <Original_SMILES>
CCBr

> <preferred_name>
Bromoethane

> <dsstox_substance_id>
DTXSID6020199

> <dsstox_compound_id>
DTXCID60199

> <qc_level>
DSSTox_Low

> <Canonical_QSARr>
CCBr

> <InChI_Code_QSARr>
InChI=1S/C2H5Br/c1-2-3/h2H2,1H3

> <InChI Key_QSARr>
RDHPKYGYEGBMSE-UHFFFAOYSA-N

> <Salt_Solvent>


> <Salt_Solvent_ID>
0

> <MPID>
18847

> <LogKOA_Ref>
Abraham,MH et al. (2001)

> <LogKOA>
2.11

> <Tr_1_Tst_0>
0

$$$$
100034
  Mrv171c012251910582D          

  3  2  0  0  0  0            999 V2000
    0.5473   -0.7528    0.0000 C   0  0  0  0  0  0  0  0  0  0  0  0
   -0.1672   -0.3403    0.0000 C   0  0  0  0  0  0  0  0  0  0  0  0
    1.2617   -0.3403    0.0000 C   0  0  0  0  0  0  0  0  0  0  0  0
  1  2  1  0  0  0  0
  1  3  1  0  0  0  0
M  END
> <ChemID>
100034

> <CAS>
74-98-6

> <Original_SMILES>
CCC

> <preferred_name>
Propane

> <dsstox_substance_id>
DTXSID5026386

> <dsstox_compound_id>
DTXCID006386

> <qc_level>
DSSTox_Low

> <Canonical_QSARr>
CCC

> <InChI_Code_QSARr>
InChI=1S/C3H8/c1-3-2/h3H2,1-2H3

> <InChI Key_QSARr>
ATUOYWHBWRKTHZ-UHFFFAOYSA-N

> <Salt_Solvent>


> <Salt_Solvent_ID>
0

> <MPID>
18848

> <LogKOA_Ref>
Abraham,MH et al. (2001)

> <LogKOA>
0.97

> <Tr_1_Tst_0>
1

$$$$
100035
  Mrv171c012251910582D          

  3  2  0  0  0  0            999 V2000
    1.9519   -1.1270    0.0000 C   0  0  0  0  0  0  0  0  0  0  0  0
    1.2375   -0.7145    0.0000 I   0  0  0  0  0  0  0  0  0  0  0  0
    2.6664   -0.7145    0.0000 C   0  0  0  0  0  0  0  0  0  0  0  0
  1  2  1  0  0  0  0
  1  3  1  0  0  0  0
M  END
> <ChemID>
100035

> <CAS>
75-03-6

> <Original_SMILES>
CCI

> <preferred_name>
Ethane, iodo-

> <dsstox_substance_id>
DTXSID9058783

> <dsstox_compound_id>
DTXCID1047730

> <qc_level>
Public_High

> <Canonical_QSARr>
CCI

> <InChI_Code_QSARr>
InChI=1S/C2H5I/c1-2-3/h2H2,1H3

> <InChI Key_QSARr>
HVTICUPFWKNHNG-UHFFFAOYSA-N

> <Salt_Solvent>


> <Salt_Solvent_ID>
0

> <MPID>
18849

> <LogKOA_Ref>
Abraham,MH et al. (2001)

> <LogKOA>
2.59

> <Tr_1_Tst_0>
1

$$$$
100036
  Mrv171c012251910582D          

  3  2  0  0  0  0            999 V2000
    0.0000   -0.0000    0.0000 C   0  0  0  0  0  0  0  0  0  0  0  0
    0.8250   -0.0000    0.0000 C   0  0  0  0  0  0  0  0  0  0  0  0
    1.6500    0.0000    0.0000 N   0  0  0  0  0  0  0  0  0  0  0  0
  1  2  1  0  0  0  0
  2  3  3  0  0  0  0
M  END
> <ChemID>
100036

> <CAS>
75-05-8

> <Original_SMILES>
CC#N

> <preferred_name>
Acetonitrile

> <dsstox_substance_id>
DTXSID7020009

> <dsstox_compound_id>
DTXCID909

> <qc_level>
DSSTox_Low

> <Canonical_QSARr>
CC#N

> <InChI_Code_QSARr>
InChI=1S/C2H3N/c1-2-3/h1H3

> <InChI Key_QSARr>
WEVYAHXRMPXWCK-UHFFFAOYSA-N

> <Salt_Solvent>


> <Salt_Solvent_ID>
0

> <MPID>
18850

> <LogKOA_Ref>
Abraham,MH et al. (2001)

> <LogKOA>
2.31

> <Tr_1_Tst_0>
1

$$$$
100037
  Mrv171c012251910582D          

  3  2  0  0  0  0            999 V2000
   -0.0002   -0.1377    0.0000 Cl  0  0  0  0  0  0  0  0  0  0  0  0
    0.7143   -0.5502    0.0000 C   0  0  0  0  0  0  0  0  0  0  0  0
    1.4287   -0.1377    0.0000 Cl  0  0  0  0  0  0  0  0  0  0  0  0
  1  2  1  0  0  0  0
  2  3  1  0  0  0  0
M  END
> <ChemID>
100037

> <CAS>
75-09-2

> <Original_SMILES>
ClCCl

> <preferred_name>
Dichloromethane

> <dsstox_substance_id>
DTXSID0020868

> <dsstox_compound_id>
DTXCID40868

> <qc_level>
DSSTox_Low

> <Canonical_QSARr>
ClCCl

> <InChI_Code_QSARr>
InChI=1S/CH2Cl2/c2-1-3/h1H2

> <InChI Key_QSARr>
YMWUJEATGCHHMB-UHFFFAOYSA-N

> <Salt_Solvent>


> <Salt_Solvent_ID>
0

> <MPID>
18851

> <LogKOA_Ref>
Abraham,MH et al. (2001)

> <LogKOA>
2.27

> <Tr_1_Tst_0>
0

$$$$
100038
  Mrv171c012251910582D          

  3  2  0  0  0  0            999 V2000
    0.7127   -0.4119    0.0000 C   0  0  0  0  0  0  0  0  0  0  0  0
   -0.1123   -0.4119    0.0000 S   0  0  0  0  0  0  0  0  0  0  0  0
    1.5377   -0.4119    0.0000 S   0  0  0  0  0  0  0  0  0  0  0  0
  1  2  2  0  0  0  0
  1  3  2  0  0  0  0
M  END
> <ChemID>
100038

> <CAS>
75-15-0

> <Original_SMILES>
S=C=S

> <preferred_name>
Carbon disulfide

> <dsstox_substance_id>
DTXSID6023947

> <dsstox_compound_id>
DTXCID103947

> <qc_level>
DSSTox_Low

> <Canonical_QSARr>
S=C=S

> <InChI_Code_QSARr>
InChI=1S/CS2/c2-1-3

> <InChI Key_QSARr>
QGJOPFRUJISHPQ-UHFFFAOYSA-N

> <Salt_Solvent>


> <Salt_Solvent_ID>
0

> <MPID>
18852

> <LogKOA_Ref>
Abraham,MH et al. (2001)

> <LogKOA>
2.28

> <Tr_1_Tst_0>
1

$$$$
100039
  Mrv171c012251910582D          

  4  3  0  0  0  0            999 V2000
    1.2371    0.0002    0.0000 C   0  0  0  0  0  0  0  0  0  0  0  0
    0.8246   -0.7143    0.0000 C   0  0  0  0  0  0  0  0  0  0  0  0
    1.2371   -1.4287    0.0000 Cl  0  0  0  0  0  0  0  0  0  0  0  0
   -0.0004   -0.7143    0.0000 Cl  0  0  0  0  0  0  0  0  0  0  0  0
  1  2  1  0  0  0  0
  2  3  1  0  0  0  0
  2  4  1  0  0  0  0
M  END
> <ChemID>
100039

> <CAS>
75-34-3

> <Original_SMILES>
CC(Cl)Cl

> <preferred_name>
1,1-Dichloroethane

> <dsstox_substance_id>
DTXSID1020437

> <dsstox_compound_id>
DTXCID10437

> <qc_level>
DSSTox_Low

> <Canonical_QSARr>
CC(Cl)Cl

> <InChI_Code_QSARr>
InChI=1S/C2H4Cl2/c1-2(3)4/h2H,1H3

> <InChI Key_QSARr>
SCYULBFZEHDVBN-UHFFFAOYSA-N

> <Salt_Solvent>


> <Salt_Solvent_ID>
0

> <MPID>
18853

> <LogKOA_Ref>
Abraham,MH et al. (2001)

> <LogKOA>
2.41

> <Tr_1_Tst_0>
1

$$$$
100040
  Mrv171c012251910582D          

  4  3  0  0  0  0            999 V2000
    1.2393    0.0002    0.0000 C   0  0  0  0  0  0  0  0  0  0  0  0
    0.8268   -0.7143    0.0000 N   0  3  0  0  0  0  0  0  0  0  0  0
    1.2393   -1.4288    0.0000 O   0  5  0  0  0  0  0  0  0  0  0  0
    0.0018   -0.7143    0.0000 O   0  0  0  0  0  0  0  0  0  0  0  0
  1  2  1  0  0  0  0
  2  3  1  0  0  0  0
  2  4  2  0  0  0  0
M  CHG  2   2   1   3  -1
M  END
> <ChemID>
100040

> <CAS>
75-52-5

> <Original_SMILES>
C[N+]([O-])=O

> <preferred_name>
Nitromethane

> <dsstox_substance_id>
DTXSID2020977

> <dsstox_compound_id>
DTXCID40977

> <qc_level>
DSSTox_Low

> <Canonical_QSARr>
C[N+]([O-])=O

> <InChI_Code_QSARr>
InChI=1S/CH3NO2/c1-2(3)4/h1H3

> <InChI Key_QSARr>
LYGJENNIWJXYER-UHFFFAOYSA-N

> <Salt_Solvent>


> <Salt_Solvent_ID>
0

> <MPID>
18854

> <LogKOA_Ref>
Park,JH et al. (1987)

> <LogKOA>
2.53

> <Tr_1_Tst_0>
1

$$$$
100041
  Mrv171c012251910582D          

  5  4  0  0  0  0            999 V2000
    0.8250   -0.8250    0.0000 C   0  0  0  0  0  0  0  0  0  0  0  0
    0.8250   -1.6500    0.0000 O   0  0  0  0  0  0  0  0  0  0  0  0
    0.8250    0.0000    0.0000 C   0  0  0  0  0  0  0  0  0  0  0  0
    1.6500   -0.8250    0.0000 C   0  0  0  0  0  0  0  0  0  0  0  0
    0.0000   -0.8250    0.0000 C   0  0  0  0  0  0  0  0  0  0  0  0
  1  2  1  0  0  0  0
  1  3  1  0  0  0  0
  1  4  1  0  0  0  0
  1  5  1  0  0  0  0
M  END
> <ChemID>
100041

> <CAS>
75-65-0

> <Original_SMILES>
CC(C)(C)O

> <preferred_name>
tert-Butyl alcohol

> <dsstox_substance_id>
DTXSID8020204

> <dsstox_compound_id>
DTXCID40204

> <qc_level>
DSSTox_Low

> <Canonical_QSARr>
CC(C)(C)O

> <InChI_Code_QSARr>
InChI=1S/C4H10O/c1-4(2,3)5/h5H,1-3H3

> <InChI Key_QSARr>
DKGAVHZHDRPRBM-UHFFFAOYSA-N

> <Salt_Solvent>


> <Salt_Solvent_ID>
0

> <MPID>
18855

> <LogKOA_Ref>
Abraham,MH et al. (2001)

> <LogKOA>
3.5

> <Tr_1_Tst_0>
0

$$$$
100042
  Mrv171c012251910582D          

  5  4  0  0  0  0            999 V2000
    0.8250   -0.8250    0.0000 C   0  0  0  0  0  0  0  0  0  0  0  0
    0.8250   -1.6500    0.0000 F   0  0  0  0  0  0  0  0  0  0  0  0
    0.8250    0.0000    0.0000 F   0  0  0  0  0  0  0  0  0  0  0  0
    1.6500   -0.8250    0.0000 F   0  0  0  0  0  0  0  0  0  0  0  0
    0.0000   -0.8250    0.0000 F   0  0  0  0  0  0  0  0  0  0  0  0
  1  2  1  0  0  0  0
  1  3  1  0  0  0  0
  1  4  1  0  0  0  0
  1  5  1  0  0  0  0
M  END
> <ChemID>
100042

> <CAS>
75-73-0

> <Original_SMILES>
FC(F)(F)F

> <preferred_name>
Carbon tetrafluoride

> <dsstox_substance_id>
DTXSID2041757

> <dsstox_compound_id>
DTXCID0021757

> <qc_level>
DSSTox_Low

> <Canonical_QSARr>
FC(F)(F)F

> <InChI_Code_QSARr>
InChI=1S/CF4/c2-1(3,4)5

> <InChI Key_QSARr>
TXEYQDLBPFQVAA-UHFFFAOYSA-N

> <Salt_Solvent>


> <Salt_Solvent_ID>
0

> <MPID>
18856

> <LogKOA_Ref>
Abraham,MH et al. (2001)

> <LogKOA>
-0.95

> <Tr_1_Tst_0>
1

$$$$
100043
  Mrv171c012251910582D          

 17 19  0  0  0  0            999 V2000
    1.4056   -1.2261    0.0000 C   0  0  0  0  0  0  0  0  0  0  0  0
    1.3880   -0.3679    0.0000 Cl  0  0  0  0  0  0  0  0  0  0  0  0
    2.0376   -1.5561    0.0000 C   0  0  0  0  0  0  0  0  0  0  0  0
    2.9047   -1.3837    0.0000 C   0  0  0  0  0  0  0  0  0  0  0  0
    3.1554   -0.5320    0.0000 Cl  0  0  0  0  0  0  0  0  0  0  0  0
    3.3896   -2.0511    0.0000 C   0  0  0  0  0  0  0  0  0  0  0  0
    2.9047   -2.7186    0.0000 C   0  0  0  0  0  0  0  0  0  0  0  0
    2.0376   -2.5461    0.0000 C   0  0  0  0  0  0  0  0  0  0  0  0
    1.4056   -2.8761    0.0000 C   0  0  0  0  0  0  0  0  0  0  0  0
    0.6911   -2.4636    0.0000 C   0  0  0  0  0  0  0  0  0  0  0  0
   -0.0477   -2.8895    0.0000 Cl  0  0  0  0  0  0  0  0  0  0  0  0
    0.6911   -1.6386    0.0000 C   0  0  0  0  0  0  0  0  0  0  0  0
   -0.0476   -1.2129    0.0000 Cl  0  0  0  0  0  0  0  0  0  0  0  0
    1.3926   -3.7347    0.0000 Cl  0  0  0  0  0  0  0  0  0  0  0  0
    1.6118   -2.0511    0.0000 C   0  0  0  0  0  0  0  0  0  0  0  0
    2.5556   -1.7741    0.0000 Cl  0  0  0  0  0  0  0  0  0  0  0  0
    2.5548   -2.3315    0.0000 Cl  0  0  0  0  0  0  0  0  0  0  0  0
  1  2  1  0  0  0  0
  3  1  1  0  0  0  0
  3  4  1  0  0  0  0
  4  5  1  0  0  0  0
  4  6  1  0  0  0  0
  6  7  2  0  0  0  0
  7  8  1  0  0  0  0
  8  3  1  0  0  0  0
  9  8  1  0  0  0  0
  9 10  1  0  0  0  0
 10 11  1  0  0  0  0
 10 12  2  0  0  0  0
 12  1  1  0  0  0  0
 12 13  1  0  0  0  0
  9 14  1  0  0  0  0
 15  9  1  0  0  0  0
  1 15  1  0  0  0  0
 15 16  1  0  0  0  0
 15 17  1  0  0  0  0
M  END
> <ChemID>
100043

> <CAS>
76-44-8

> <Original_SMILES>
ClC1(Cl)C2(Cl)C3C=CC(Cl)C3C1(Cl)C(Cl)=C2Cl

> <preferred_name>
Heptachlor

> <dsstox_substance_id>
DTXSID3020679

> <dsstox_compound_id>
DTXCID70679

> <qc_level>
DSSTox_Low

> <Canonical_QSARr>
ClC1(Cl)C2(Cl)C3C=CC(Cl)C3C1(Cl)C(Cl)=C2Cl

> <InChI_Code_QSARr>
InChI=1S/C10H5Cl7/c11-4-2-1-3-5(4)9(15)7(13)6(12)8(3,14)10(9,16)17/h1-5H

> <InChI Key_QSARr>
FRCCEHPWNOQAEU-UHFFFAOYSA-N

> <Salt_Solvent>


> <Salt_Solvent_ID>
0

> <MPID>
18857

> <LogKOA_Ref>
Shoeib,M & Harner,T (2002)

> <LogKOA>
7.64

> <Tr_1_Tst_0>
1

$$$$
100044
  Mrv171c012251910582D          

  5  4  0  0  0  0            999 V2000
    1.5564   -1.8255    0.0000 C   0  0  0  0  0  0  0  0  0  0  0  0
    1.1439   -1.1110    0.0000 C   0  0  0  0  0  0  0  0  0  0  0  0
    1.5564   -0.3965    0.0000 C   0  0  0  0  0  0  0  0  0  0  0  0
    1.1439    0.3179    0.0000 C   0  0  0  0  0  0  0  0  0  0  0  0
    0.3189   -1.1110    0.0000 C   0  0  0  0  0  0  0  0  0  0  0  0
  1  2  1  0  0  0  0
  2  3  1  0  0  0  0
  3  4  2  0  0  0  0
  2  5  2  0  0  0  0
M  END
> <ChemID>
100044

> <CAS>
78-79-5

> <Original_SMILES>
CC(=C)C=C

> <preferred_name>
Isoprene

> <dsstox_substance_id>
DTXSID2020761

> <dsstox_compound_id>
DTXCID20761

> <qc_level>
DSSTox_Low

> <Canonical_QSARr>
CC(=C)C=C

> <InChI_Code_QSARr>
InChI=1S/C5H8/c1-4-5(2)3/h4H,1-2H2,3H3

> <InChI Key_QSARr>
RRHGJUQNOFWUDK-UHFFFAOYSA-N

> <Salt_Solvent>


> <Salt_Solvent_ID>
0

> <MPID>
18858

> <LogKOA_Ref>
Abraham,MH et al. (2001)

> <LogKOA>
2.06

> <Tr_1_Tst_0>
1

$$$$
100045
  Mrv171c012251910582D          

  5  4  0  0  0  0            999 V2000
    1.3878   -0.2340    0.0000 C   0  0  0  0  0  0  0  0  0  0  0  0
    1.8003    0.4804    0.0000 N   0  0  0  0  0  0  0  0  0  0  0  0
    0.9753   -0.9485    0.0000 C   0  0  0  0  0  0  0  0  0  0  0  0
    1.3878   -1.6630    0.0000 C   0  0  0  0  0  0  0  0  0  0  0  0
    0.1503   -0.9485    0.0000 C   0  0  0  0  0  0  0  0  0  0  0  0
  1  2  3  0  0  0  0
  1  3  1  0  0  0  0
  3  4  1  0  0  0  0
  3  5  1  0  0  0  0
M  END
> <ChemID>
100045

> <CAS>
78-82-0

> <Original_SMILES>
CC(C)C#N

> <preferred_name>
2-Methylpropanenitrile

> <dsstox_substance_id>
DTXSID5026461

> <dsstox_compound_id>
DTXCID606461

> <qc_level>
DSSTox_Low

> <Canonical_QSARr>
CC(C)C#N

> <InChI_Code_QSARr>
InChI=1S/C4H7N/c1-4(2)3-5/h4H,1-2H3

> <InChI Key_QSARr>
LRDFRRGEGBBSRN-UHFFFAOYSA-N

> <Salt_Solvent>


> <Salt_Solvent_ID>
0

> <MPID>
18859

> <LogKOA_Ref>
Abraham,MH et al. (2001)

> <LogKOA>
2.87

> <Tr_1_Tst_0>
0

$$$$
100046
  Mrv171c012251910582D          

  5  4  0  0  0  0            999 V2000
    1.1430    0.3186    0.0000 O   0  0  0  0  0  0  0  0  0  0  0  0
    1.5555   -0.3959    0.0000 C   0  0  0  0  0  0  0  0  0  0  0  0
    1.1430   -1.1104    0.0000 C   0  0  0  0  0  0  0  0  0  0  0  0
    1.5555   -1.8248    0.0000 C   0  0  0  0  0  0  0  0  0  0  0  0
    0.3180   -1.1104    0.0000 C   0  0  0  0  0  0  0  0  0  0  0  0
  1  2  1  0  0  0  0
  2  3  1  0  0  0  0
  3  4  1  0  0  0  0
  3  5  1  0  0  0  0
M  END
> <ChemID>
100046

> <CAS>
78-83-1

> <Original_SMILES>
CC(C)CO

> <preferred_name>
2-Methyl-1-propanol

> <dsstox_substance_id>
DTXSID0021759

> <dsstox_compound_id>
DTXCID601759

> <qc_level>
DSSTox_High

> <Canonical_QSARr>
CC(C)CO

> <InChI_Code_QSARr>
InChI=1S/C4H10O/c1-4(2)3-5/h4-5H,3H2,1-2H3

> <InChI Key_QSARr>
ZXEKIIBDNHEJCQ-UHFFFAOYSA-N

> <Salt_Solvent>


> <Salt_Solvent_ID>
0

> <MPID>
18860

> <LogKOA_Ref>
Abraham,MH et al. (2001)

> <LogKOA>
3.93

> <Tr_1_Tst_0>
1

$$$$
100047
  Mrv171c012251910582D          

  5  4  0  0  0  0            999 V2000
    2.2164   -0.9681    0.0000 C   0  0  0  0  0  0  0  0  0  0  0  0
    1.3914   -0.9681    0.0000 C   0  0  0  0  0  0  0  0  0  0  0  0
    0.9789   -1.6826    0.0000 Cl  0  0  0  0  0  0  0  0  0  0  0  0
    0.9789   -0.2536    0.0000 C   0  0  0  0  0  0  0  0  0  0  0  0
    0.1539   -0.2536    0.0000 Cl  0  0  0  0  0  0  0  0  0  0  0  0
  1  2  1  0  0  0  0
  2  3  1  0  0  0  0
  2  4  1  0  0  0  0
  4  5  1  0  0  0  0
M  END
> <ChemID>
100047

> <CAS>
78-87-5

> <Original_SMILES>
CC(Cl)CCl

> <preferred_name>
1,2-Dichloropropane

> <dsstox_substance_id>
DTXSID0020448

> <dsstox_compound_id>
DTXCID60448

> <qc_level>
DSSTox_Low

> <Canonical_QSARr>
CC(Cl)CCl

> <InChI_Code_QSARr>
InChI=1S/C3H6Cl2/c1-3(5)2-4/h3H,2H2,1H3

> <InChI Key_QSARr>
KNKRKFALVUDBJE-UHFFFAOYSA-N

> <Salt_Solvent>


> <Salt_Solvent_ID>
0

> <MPID>
18861

> <LogKOA_Ref>
Abraham,MH et al. (2001)

> <LogKOA>
2.96

> <Tr_1_Tst_0>
1

$$$$
100048
  Mrv171c012251910582D          

  5  4  0  0  0  0            999 V2000
    1.5573   -1.8261    0.0000 C   0  0  0  0  0  0  0  0  0  0  0  0
    1.1448   -1.1117    0.0000 C   0  0  0  0  0  0  0  0  0  0  0  0
    1.5573   -0.3972    0.0000 C   0  0  0  0  0  0  0  0  0  0  0  0
    1.1448    0.3173    0.0000 C   0  0  0  0  0  0  0  0  0  0  0  0
    0.3198   -1.1117    0.0000 O   0  0  0  0  0  0  0  0  0  0  0  0
  1  2  1  0  0  0  0
  2  3  1  0  0  0  0
  3  4  1  0  0  0  0
  2  5  1  0  0  0  0
M  END
> <ChemID>
100048

> <CAS>
78-92-2

> <Original_SMILES>
CCC(C)O

> <preferred_name>
2-Butanol

> <dsstox_substance_id>
DTXSID9021762

> <dsstox_compound_id>
DTXCID101762

> <qc_level>
DSSTox_Low

> <Canonical_QSARr>
CCC(C)O

> <InChI_Code_QSARr>
InChI=1S/C4H10O/c1-3-4(2)5/h4-5H,3H2,1-2H3

> <InChI Key_QSARr>
BTANRVKWQNVYAZ-UHFFFAOYSA-N

> <Salt_Solvent>


> <Salt_Solvent_ID>
0

> <MPID>
18862

> <LogKOA_Ref>
Gruber,D et al. (1997)

> <LogKOA>
3.85

> <Tr_1_Tst_0>
1

$$$$
100049
  Mrv171c012251910582D          

  5  4  0  0  0  0            999 V2000
    2.2173   -0.9688    0.0000 C   0  0  0  0  0  0  0  0  0  0  0  0
    1.3923   -0.9688    0.0000 C   0  0  0  0  0  0  0  0  0  0  0  0
    0.9798   -1.6832    0.0000 O   0  0  0  0  0  0  0  0  0  0  0  0
    0.9798   -0.2543    0.0000 C   0  0  0  0  0  0  0  0  0  0  0  0
    0.1548   -0.2543    0.0000 C   0  0  0  0  0  0  0  0  0  0  0  0
  1  2  1  0  0  0  0
  2  3  2  0  0  0  0
  2  4  1  0  0  0  0
  4  5  1  0  0  0  0
M  END
> <ChemID>
100049

> <CAS>
78-93-3

> <Original_SMILES>
CCC(C)=O

> <preferred_name>
Methyl ethyl ketone

> <dsstox_substance_id>
DTXSID3021516

> <dsstox_compound_id>
DTXCID801516

> <qc_level>
DSSTox_Low

> <Canonical_QSARr>
CCC(C)=O

> <InChI_Code_QSARr>
InChI=1S/C4H8O/c1-3-4(2)5/h3H2,1-2H3

> <InChI Key_QSARr>
ZWEHNKRNPOVVGH-UHFFFAOYSA-N

> <Salt_Solvent>


> <Salt_Solvent_ID>
0

> <MPID>
18863

> <LogKOA_Ref>
Park,JH et al. (1987)

> <LogKOA>
2.71

> <Tr_1_Tst_0>
0

$$$$
100050
  Mrv171c012251910582D          

  5  4  0  0  0  0            999 V2000
    2.2148   -0.9669    0.0000 Cl  0  0  0  0  0  0  0  0  0  0  0  0
    1.3898   -0.9669    0.0000 C   0  0  0  0  0  0  0  0  0  0  0  0
    0.9773   -1.6814    0.0000 Cl  0  0  0  0  0  0  0  0  0  0  0  0
    0.9773   -0.2525    0.0000 C   0  0  0  0  0  0  0  0  0  0  0  0
    0.1523   -0.2525    0.0000 Cl  0  0  0  0  0  0  0  0  0  0  0  0
  1  2  1  0  0  0  0
  2  3  1  0  0  0  0
  2  4  1  0  0  0  0
  4  5  1  0  0  0  0
M  END
> <ChemID>
100050

> <CAS>
79-00-5

> <Original_SMILES>
ClCC(Cl)Cl

> <preferred_name>
1,1,2-Trichloroethane

> <dsstox_substance_id>
DTXSID5021380

> <dsstox_compound_id>
DTXCID101380

> <qc_level>
DSSTox_Low

> <Canonical_QSARr>
ClCC(Cl)Cl

> <InChI_Code_QSARr>
InChI=1S/C2H3Cl3/c3-1-2(4)5/h2H,1H2

> <InChI Key_QSARr>
UBOXGVDOUJQMTN-UHFFFAOYSA-N

> <Salt_Solvent>


> <Salt_Solvent_ID>
0

> <MPID>
18864

> <LogKOA_Ref>
Abraham,MH et al. (2001)

> <LogKOA>
3.4

> <Tr_1_Tst_0>
1

$$$$
100051
  Mrv171c012251910582D          

  5  4  0  0  0  0            999 V2000
    1.8023    0.0333    0.0000 Cl  0  0  0  0  0  0  0  0  0  0  0  0
    1.3898   -0.6812    0.0000 C   0  0  0  0  0  0  0  0  0  0  0  0
    1.8023   -1.3956    0.0000 Cl  0  0  0  0  0  0  0  0  0  0  0  0
    0.5648   -0.6812    0.0000 C   0  0  0  0  0  0  0  0  0  0  0  0
    0.1523   -1.3956    0.0000 Cl  0  0  0  0  0  0  0  0  0  0  0  0
  1  2  1  0  0  0  0
  2  3  1  0  0  0  0
  2  4  2  0  0  0  0
  4  5  1  0  0  0  0
M  END
> <ChemID>
100051

> <CAS>
79-01-6

> <Original_SMILES>
ClC=C(Cl)Cl

> <preferred_name>
Trichloroethylene

> <dsstox_substance_id>
DTXSID0021383

> <dsstox_compound_id>
DTXCID901382

> <qc_level>
DSSTox_Low

> <Canonical_QSARr>
ClC=C(Cl)Cl

> <InChI_Code_QSARr>
InChI=1S/C2HCl3/c3-1-2(4)5/h1H

> <InChI Key_QSARr>
XSTXAVWGXDQKEL-UHFFFAOYSA-N

> <Salt_Solvent>


> <Salt_Solvent_ID>
0

> <MPID>
18865

> <LogKOA_Ref>
Abraham,MH et al. (2001)

> <LogKOA>
2.99

> <Tr_1_Tst_0>
1

$$$$
100052
  Mrv171c012251910582D          

  5  4  0  0  0  0            999 V2000
    1.5573   -1.8261    0.0000 C   0  0  0  0  0  0  0  0  0  0  0  0
    1.1448   -1.1117    0.0000 C   0  0  0  0  0  0  0  0  0  0  0  0
    1.5573   -0.3972    0.0000 O   0  0  0  0  0  0  0  0  0  0  0  0
    1.1448    0.3173    0.0000 C   0  0  0  0  0  0  0  0  0  0  0  0
    0.3198   -1.1117    0.0000 O   0  0  0  0  0  0  0  0  0  0  0  0
  1  2  1  0  0  0  0
  2  3  1  0  0  0  0
  3  4  1  0  0  0  0
  2  5  2  0  0  0  0
M  END
> <ChemID>
100052

> <CAS>
79-20-9

> <Original_SMILES>
COC(C)=O

> <preferred_name>
Methyl acetate

> <dsstox_substance_id>
DTXSID4021767

> <dsstox_compound_id>
DTXCID101767

> <qc_level>
DSSTox_Low

> <Canonical_QSARr>
COC(C)=O

> <InChI_Code_QSARr>
InChI=1S/C3H6O2/c1-3(4)5-2/h1-2H3

> <InChI Key_QSARr>
KXKVLQRXCPHEJC-UHFFFAOYSA-N

> <Salt_Solvent>


> <Salt_Solvent_ID>
0

> <MPID>
18866

> <LogKOA_Ref>
Abraham,MH et al. (2001)

> <LogKOA>
2.31

> <Tr_1_Tst_0>
1

$$$$
100053
  Mrv171c012251910582D          

  5  4  0  0  0  0            999 V2000
    2.0740   -0.9688    0.0000 O   0  0  0  0  0  0  0  0  0  0  0  0
    1.2490   -0.9688    0.0000 N   0  3  0  0  0  0  0  0  0  0  0  0
    0.8365   -1.6832    0.0000 O   0  5  0  0  0  0  0  0  0  0  0  0
    0.8365   -0.2543    0.0000 C   0  0  0  0  0  0  0  0  0  0  0  0
    0.0115   -0.2543    0.0000 C   0  0  0  0  0  0  0  0  0  0  0  0
  1  2  2  0  0  0  0
  2  3  1  0  0  0  0
  2  4  1  0  0  0  0
  4  5  1  0  0  0  0
M  CHG  2   2   1   3  -1
M  END
> <ChemID>
100053

> <CAS>
79-24-3

> <Original_SMILES>
CC[N+]([O-])=O

> <preferred_name>
Nitroethane

> <dsstox_substance_id>
DTXSID8020969

> <dsstox_compound_id>
DTXCID80969

> <qc_level>
DSSTox_Low

> <Canonical_QSARr>
CC[N+]([O-])=O

> <InChI_Code_QSARr>
InChI=1S/C2H5NO2/c1-2-3(4)5/h2H2,1H3

> <InChI Key_QSARr>
MCSAJNNLRCFZED-UHFFFAOYSA-N

> <Salt_Solvent>


> <Salt_Solvent_ID>
0

> <MPID>
18867

> <LogKOA_Ref>
Abraham,MH et al. (2001)

> <LogKOA>
2.88

> <Tr_1_Tst_0>
0

$$$$
100054
  Mrv171c012251910582D          

 12 14  0  0  0  0            999 V2000
    0.0158   -0.8857    0.0000 C   0  0  0  0  0  0  0  0  0  0  0  0
    0.7694   -0.5501    0.0000 C   0  0  0  0  0  0  0  0  0  0  0  0
    1.0244    0.2345    0.0000 C   0  0  0  0  0  0  0  0  0  0  0  0
    1.8494    0.2345    0.0000 C   0  0  0  0  0  0  0  0  0  0  0  0
    2.1043   -0.5501    0.0000 C   0  0  0  0  0  0  0  0  0  0  0  0
    1.4369   -1.0350    0.0000 C   0  0  0  0  0  0  0  0  0  0  0  0
    1.3506   -1.8555    0.0000 C   0  0  0  0  0  0  0  0  0  0  0  0
    2.2768   -2.1911    0.0000 C   0  0  0  0  0  0  0  0  0  0  0  0
    2.9442   -1.7061    0.0000 C   0  0  0  0  0  0  0  0  0  0  0  0
    2.8580   -0.8857    0.0000 C   0  0  0  0  0  0  0  0  0  0  0  0
    0.5970   -2.1911    0.0000 C   0  0  0  0  0  0  0  0  0  0  0  0
   -0.0705   -1.7061    0.0000 C   0  0  0  0  0  0  0  0  0  0  0  0
  2  1  1  0  0  0  0
  2  3  1  0  0  0  0
  3  4  1  0  0  0  0
  4  5  1  0  0  0  0
  5  6  1  0  0  0  0
  6  2  2  0  0  0  0
  6  7  1  0  0  0  0
  7  8  1  0  0  0  0
  8  9  2  0  0  0  0
  9 10  1  0  0  0  0
 10  5  2  0  0  0  0
 11  7  2  0  0  0  0
 12 11  1  0  0  0  0
  1 12  2  0  0  0  0
M  END
> <ChemID>
100054

> <CAS>
83-32-9

> <Original_SMILES>
C1Cc2cccc3cccc1c23

> <preferred_name>
Acenaphthene

> <dsstox_substance_id>
DTXSID3021774

> <dsstox_compound_id>
DTXCID201774

> <qc_level>
DSSTox_Low

> <Canonical_QSARr>
C1CC2=CC=CC3=CC=CC1=C23

> <InChI_Code_QSARr>
InChI=1S/C12H10/c1-3-9-4-2-6-11-8-7-10(5-1)12(9)11/h1-6H,7-8H2

> <InChI Key_QSARr>
CWRYPZZKDGJXCA-UHFFFAOYSA-N

> <Salt_Solvent>


> <Salt_Solvent_ID>
0

> <MPID>
18868

> <LogKOA_Ref>
Abraham,MH et al. (2001)

> <LogKOA>
6.31

> <Tr_1_Tst_0>
1

$$$$
100055
  Mrv171c012251910582D          

 14 16  0  0  0  0            999 V2000
    2.2977   -1.4199    0.0000 C   0  0  0  0  0  0  0  0  0  0  0  0
    2.7102   -0.7054    0.0000 C   0  0  0  0  0  0  0  0  0  0  0  0
    3.5352   -0.7054    0.0000 C   0  0  0  0  0  0  0  0  0  0  0  0
    3.9477   -1.4199    0.0000 C   0  0  0  0  0  0  0  0  0  0  0  0
    3.5352   -2.1344    0.0000 C   0  0  0  0  0  0  0  0  0  0  0  0
    2.7102   -2.1344    0.0000 C   0  0  0  0  0  0  0  0  0  0  0  0
    2.2977   -2.8488    0.0000 C   0  0  0  0  0  0  0  0  0  0  0  0
    1.4727   -2.8488    0.0000 C   0  0  0  0  0  0  0  0  0  0  0  0
    1.0602   -2.1344    0.0000 C   0  0  0  0  0  0  0  0  0  0  0  0
    0.2352   -2.1344    0.0000 C   0  0  0  0  0  0  0  0  0  0  0  0
   -0.1773   -1.4199    0.0000 C   0  0  0  0  0  0  0  0  0  0  0  0
    0.2352   -0.7054    0.0000 C   0  0  0  0  0  0  0  0  0  0  0  0
    1.0602   -0.7054    0.0000 C   0  0  0  0  0  0  0  0  0  0  0  0
    1.4727   -1.4199    0.0000 C   0  0  0  0  0  0  0  0  0  0  0  0
  2  1  1  0  0  0  0
  3  2  2  0  0  0  0
  4  3  1  0  0  0  0
  5  4  2  0  0  0  0
  6  5  1  0  0  0  0
  6  1  2  0  0  0  0
  7  6  1  0  0  0  0
  8  7  2  0  0  0  0
  9  8  1  0  0  0  0
  9 10  1  0  0  0  0
 10 11  2  0  0  0  0
 11 12  1  0  0  0  0
 12 13  2  0  0  0  0
 13 14  1  0  0  0  0
  1 14  1  0  0  0  0
 14  9  2  0  0  0  0
M  END
> <ChemID>
100055

> <CAS>
85-01-8

> <Original_SMILES>
c1cc2ccccc2c2ccccc21

> <preferred_name>
Phenanthrene

> <dsstox_substance_id>
DTXSID6024254

> <dsstox_compound_id>
DTXCID904254

> <qc_level>
DSSTox_Low

> <Canonical_QSARr>
C1=CC2C=CC=CC=2C2C=CC=CC=21

> <InChI_Code_QSARr>
InChI=1S/C14H10/c1-3-7-13-11(5-1)9-10-12-6-2-4-8-14(12)13/h1-10H

> <InChI Key_QSARr>
YNPNZTXNASCQKK-UHFFFAOYSA-N

> <Salt_Solvent>


> <Salt_Solvent_ID>
0

> <MPID>
18869

> <LogKOA_Ref>
Harner,T & Bidleman,TF (1998)

> <LogKOA>
7.57

> <Tr_1_Tst_0>
1

$$$$
100056
  Mrv171c012251910582D          

 13 15  0  0  0  0            999 V2000
    2.5498   -0.5036    0.0000 C   0  0  0  0  0  0  0  0  0  0  0  0
    3.1018    0.1095    0.0000 C   0  0  0  0  0  0  0  0  0  0  0  0
    3.9088   -0.0620    0.0000 C   0  0  0  0  0  0  0  0  0  0  0  0
    4.1637   -0.8466    0.0000 C   0  0  0  0  0  0  0  0  0  0  0  0
    3.6117   -1.4597    0.0000 C   0  0  0  0  0  0  0  0  0  0  0  0
    2.8047   -1.2882    0.0000 C   0  0  0  0  0  0  0  0  0  0  0  0
    2.1373   -1.7731    0.0000 C   0  0  0  0  0  0  0  0  0  0  0  0
    1.4699   -1.2882    0.0000 C   0  0  0  0  0  0  0  0  0  0  0  0
    0.6629   -1.4597    0.0000 C   0  0  0  0  0  0  0  0  0  0  0  0
    0.1109   -0.8466    0.0000 C   0  0  0  0  0  0  0  0  0  0  0  0
    0.3658   -0.0620    0.0000 C   0  0  0  0  0  0  0  0  0  0  0  0
    1.1728    0.1095    0.0000 C   0  0  0  0  0  0  0  0  0  0  0  0
    1.7248   -0.5036    0.0000 C   0  0  0  0  0  0  0  0  0  0  0  0
  2  1  1  0  0  0  0
  3  2  2  0  0  0  0
  4  3  1  0  0  0  0
  5  4  2  0  0  0  0
  6  5  1  0  0  0  0
  6  1  2  0  0  0  0
  7  6  1  0  0  0  0
  8  7  1  0  0  0  0
  8  9  1  0  0  0  0
  9 10  2  0  0  0  0
 10 11  1  0  0  0  0
 11 12  2  0  0  0  0
 12 13  1  0  0  0  0
  1 13  1  0  0  0  0
 13  8  2  0  0  0  0
M  END
> <ChemID>
100056

> <CAS>
86-73-7

> <Original_SMILES>
C1c2ccccc2-c2ccccc21

> <preferred_name>
Fluorene

> <dsstox_substance_id>
DTXSID8024105

> <dsstox_compound_id>
DTXCID604105

> <qc_level>
DSSTox_Low

> <Canonical_QSARr>
C1C2C=CC=CC=2C2C=CC=CC=21

> <InChI_Code_QSARr>
InChI=1S/C13H10/c1-3-7-12-10(5-1)9-11-6-2-4-8-13(11)12/h1-8H,9H2

> <InChI Key_QSARr>
NIHNNTQXNPWCJQ-UHFFFAOYSA-N

> <Salt_Solvent>


> <Salt_Solvent_ID>
0

> <MPID>
18870

> <LogKOA_Ref>
Harner,T & Bidleman,TF (1998)

> <LogKOA>
6.79

> <Tr_1_Tst_0>
1

$$$$
100057
  Mrv171c012251910582D          

  9  9  0  0  0  0            999 V2000
    2.3959   -0.7881    0.0000 Cl  0  0  0  0  0  0  0  0  0  0  0  0
    1.6815   -1.2006    0.0000 C   0  0  0  0  0  0  0  0  0  0  0  0
    0.9670   -0.7881    0.0000 C   0  0  0  0  0  0  0  0  0  0  0  0
    0.9670    0.0369    0.0000 Cl  0  0  0  0  0  0  0  0  0  0  0  0
    0.2525   -1.2006    0.0000 C   0  0  0  0  0  0  0  0  0  0  0  0
    0.2525   -2.0256    0.0000 C   0  0  0  0  0  0  0  0  0  0  0  0
    0.9670   -2.4381    0.0000 C   0  0  0  0  0  0  0  0  0  0  0  0
    1.6815   -2.0256    0.0000 C   0  0  0  0  0  0  0  0  0  0  0  0
    2.3959   -2.4381    0.0000 Cl  0  0  0  0  0  0  0  0  0  0  0  0
  1  2  1  0  0  0  0
  3  2  1  0  0  0  0
  3  4  1  0  0  0  0
  5  3  2  0  0  0  0
  6  5  1  0  0  0  0
  7  6  2  0  0  0  0
  8  7  1  0  0  0  0
  2  8  2  0  0  0  0
  8  9  1  0  0  0  0
M  END
> <ChemID>
100057

> <CAS>
87-61-6

> <Original_SMILES>
Clc1c(Cl)cccc1Cl

> <preferred_name>
1,2,3-Trichlorobenzene

> <dsstox_substance_id>
DTXSID8026193

> <dsstox_compound_id>
DTXCID706193

> <qc_level>
DSSTox_High

> <Canonical_QSARr>
ClC1C=CC=C(Cl)C=1Cl

> <InChI_Code_QSARr>
InChI=1S/C6H3Cl3/c7-4-2-1-3-5(8)6(4)9/h1-3H

> <InChI Key_QSARr>
RELMFMZEBKVZJC-UHFFFAOYSA-N

> <Salt_Solvent>


> <Salt_Solvent_ID>
0

> <MPID>
18871

> <LogKOA_Ref>
Harner,T & Mackay,D (1995)

> <LogKOA>
5.19

> <Tr_1_Tst_0>
0

$$$$
100058
  Mrv171c012251910582D          

 12 12  0  0  0  0            999 V2000
    1.4289    0.8250    0.0000 C   0  0  0  0  0  0  0  0  0  0  0  0
    2.1434    1.2375    0.0000 C   0  0  0  0  0  0  0  0  0  0  0  0
    0.7145    1.2375    0.0000 C   0  0  0  0  0  0  0  0  0  0  0  0
    0.7145    2.0625    0.0000 C   0  0  0  0  0  0  0  0  0  0  0  0
   -0.0000    0.8250    0.0000 C   0  0  0  0  0  0  0  0  0  0  0  0
   -0.7145    1.2375    0.0000 C   0  0  0  0  0  0  0  0  0  0  0  0
   -0.0000   -0.0000    0.0000 C   0  0  0  0  0  0  0  0  0  0  0  0
   -0.7145   -0.4125    0.0000 C   0  0  0  0  0  0  0  0  0  0  0  0
    0.7145   -0.4125    0.0000 C   0  0  0  0  0  0  0  0  0  0  0  0
    0.7145   -1.2375    0.0000 C   0  0  0  0  0  0  0  0  0  0  0  0
    1.4289   -0.0000    0.0000 C   0  0  0  0  0  0  0  0  0  0  0  0
    2.1434   -0.4125    0.0000 C   0  0  0  0  0  0  0  0  0  0  0  0
  1  2  1  0  0  0  0
  3  1  1  0  0  0  0
  3  4  1  0  0  0  0
  5  3  2  0  0  0  0
  5  6  1  0  0  0  0
  7  5  1  0  0  0  0
  7  8  1  0  0  0  0
  9  7  2  0  0  0  0
  9 10  1  0  0  0  0
 11  9  1  0  0  0  0
  1 11  2  0  0  0  0
 11 12  1  0  0  0  0
M  END
> <ChemID>
100058

> <CAS>
87-85-4

> <Original_SMILES>
Cc1c(C)c(C)c(C)c(C)c1C

> <preferred_name>
Hexamethylbenzene

> <dsstox_substance_id>
DTXSID3058957

> <dsstox_compound_id>
DTXCID0048555

> <qc_level>
Public_High

> <Canonical_QSARr>
CC1C(C)=C(C)C(C)=C(C)C=1C

> <InChI_Code_QSARr>
InChI=1S/C12H18/c1-7-8(2)10(4)12(6)11(5)9(7)3/h1-6H3

> <InChI Key_QSARr>
YUWFEBAXEOLKSG-UHFFFAOYSA-N

> <Salt_Solvent>


> <Salt_Solvent_ID>
0

> <MPID>
18872

> <LogKOA_Ref>
Abraham,MH et al. (2001)

> <LogKOA>
6.31

> <Tr_1_Tst_0>
1

$$$$
100059
  Mrv171c012251910582D          

 11 12  0  0  0  0            999 V2000
    0.0062   -0.9924    0.0000 C   0  0  0  0  0  0  0  0  0  0  0  0
    0.7206   -0.5799    0.0000 C   0  0  0  0  0  0  0  0  0  0  0  0
    1.4351   -0.9924    0.0000 C   0  0  0  0  0  0  0  0  0  0  0  0
    2.1496   -0.5799    0.0000 C   0  0  0  0  0  0  0  0  0  0  0  0
    2.1496    0.2451    0.0000 Cl  0  0  0  0  0  0  0  0  0  0  0  0
    2.8640   -0.9924    0.0000 C   0  0  0  0  0  0  0  0  0  0  0  0
    2.8640   -1.8174    0.0000 C   0  0  0  0  0  0  0  0  0  0  0  0
    2.1496   -2.2299    0.0000 C   0  0  0  0  0  0  0  0  0  0  0  0
    1.4351   -1.8174    0.0000 C   0  0  0  0  0  0  0  0  0  0  0  0
    0.7206   -2.2299    0.0000 C   0  0  0  0  0  0  0  0  0  0  0  0
    0.0062   -1.8174    0.0000 C   0  0  0  0  0  0  0  0  0  0  0  0
  2  1  2  0  0  0  0
  3  2  1  0  0  0  0
  3  4  2  0  0  0  0
  4  5  1  0  0  0  0
  4  6  1  0  0  0  0
  6  7  2  0  0  0  0
  7  8  1  0  0  0  0
  8  9  2  0  0  0  0
  9  3  1  0  0  0  0
 10  9  1  0  0  0  0
 11 10  2  0  0  0  0
  1 11  1  0  0  0  0
M  END
> <ChemID>
100059

> <CAS>
90-13-1

> <Original_SMILES>
Clc1cccc2ccccc21

> <preferred_name>
1-Chloronaphthalene

> <dsstox_substance_id>
DTXSID2024791

> <dsstox_compound_id>
DTXCID904791

> <qc_level>
DSSTox_High

> <Canonical_QSARr>
ClC1C=CC=C2C=CC=CC2=1

> <InChI_Code_QSARr>
InChI=1S/C10H7Cl/c11-10-7-3-5-8-4-1-2-6-9(8)10/h1-7H

> <InChI Key_QSARr>
JTPNRXUCIXHOKM-UHFFFAOYSA-N

> <Salt_Solvent>


> <Salt_Solvent_ID>
0

> <MPID>
18873

> <LogKOA_Ref>
Su,Y et al. (2002)

> <LogKOA>
5.8

> <Tr_1_Tst_0>
1

$$$$
100060
  Mrv171c012251910582D          

 10 11  0  0  0  0            999 V2000
    0.7153   -1.6500    0.0000 C   0  0  0  0  0  0  0  0  0  0  0  0
    0.0008   -1.2375    0.0000 C   0  0  0  0  0  0  0  0  0  0  0  0
    0.0008   -0.4125    0.0000 C   0  0  0  0  0  0  0  0  0  0  0  0
    0.7153    0.0000    0.0000 C   0  0  0  0  0  0  0  0  0  0  0  0
    1.4297   -0.4125    0.0000 C   0  0  0  0  0  0  0  0  0  0  0  0
    2.1442    0.0000    0.0000 C   0  0  0  0  0  0  0  0  0  0  0  0
    2.8587   -0.4125    0.0000 C   0  0  0  0  0  0  0  0  0  0  0  0
    2.8587   -1.2375    0.0000 C   0  0  0  0  0  0  0  0  0  0  0  0
    2.1442   -1.6500    0.0000 C   0  0  0  0  0  0  0  0  0  0  0  0
    1.4297   -1.2375    0.0000 C   0  0  0  0  0  0  0  0  0  0  0  0
  2  1  1  0  0  0  0
  3  2  2  0  0  0  0
  4  3  1  0  0  0  0
  5  4  2  0  0  0  0
  5  6  1  0  0  0  0
  6  7  2  0  0  0  0
  7  8  1  0  0  0  0
  8  9  2  0  0  0  0
  9 10  1  0  0  0  0
  1 10  2  0  0  0  0
 10  5  1  0  0  0  0
M  END
> <ChemID>
100060

> <CAS>
91-20-3

> <Original_SMILES>
c1cccc2ccccc21

> <preferred_name>
Naphthalene

> <dsstox_substance_id>
DTXSID8020913

> <dsstox_compound_id>
DTXCID00913

> <qc_level>
DSSTox_Low

> <Canonical_QSARr>
C1=CC=CC2=CC=CC=C21

> <InChI_Code_QSARr>
InChI=1S/C10H8/c1-2-6-10-8-4-3-7-9(10)5-1/h1-8H

> <InChI Key_QSARr>
UFWIBTONFRDIAS-UHFFFAOYSA-N

> <Salt_Solvent>


> <Salt_Solvent_ID>
0

> <MPID>
18874

> <LogKOA_Ref>
Abraham,MH et al. (2001)

> <LogKOA>
5.19

> <Tr_1_Tst_0>
1

$$$$
100061
  Mrv171c012251910582D          

 11 12  0  0  0  0            999 V2000
    1.7589   -0.4252    0.0000 C   0  0  0  0  0  0  0  0  0  0  0  0
    1.0445   -0.0127    0.0000 C   0  0  0  0  0  0  0  0  0  0  0  0
    0.3300   -0.4252    0.0000 C   0  0  0  0  0  0  0  0  0  0  0  0
    0.3300   -1.2502    0.0000 C   0  0  0  0  0  0  0  0  0  0  0  0
    1.0445   -1.6627    0.0000 C   0  0  0  0  0  0  0  0  0  0  0  0
    1.7589   -1.2502    0.0000 C   0  0  0  0  0  0  0  0  0  0  0  0
    2.4734   -1.6627    0.0000 C   0  0  0  0  0  0  0  0  0  0  0  0
    3.1879   -1.2502    0.0000 C   0  0  0  0  0  0  0  0  0  0  0  0
    3.1879   -0.4252    0.0000 C   0  0  0  0  0  0  0  0  0  0  0  0
    3.9023   -0.0127    0.0000 Cl  0  0  0  0  0  0  0  0  0  0  0  0
    2.4734   -0.0127    0.0000 C   0  0  0  0  0  0  0  0  0  0  0  0
  2  1  1  0  0  0  0
  3  2  2  0  0  0  0
  4  3  1  0  0  0  0
  5  4  2  0  0  0  0
  6  5  1  0  0  0  0
  6  1  1  0  0  0  0
  7  6  2  0  0  0  0
  8  7  1  0  0  0  0
  9  8  2  0  0  0  0
  9 10  1  0  0  0  0
 11  9  1  0  0  0  0
  1 11  2  0  0  0  0
M  END
> <ChemID>
100061

> <CAS>
91-58-7

> <Original_SMILES>
Clc1cc2ccccc2cc1

> <preferred_name>
2-Chloronaphthalene

> <dsstox_substance_id>
DTXSID8023971

> <dsstox_compound_id>
DTXCID603971

> <qc_level>
DSSTox_Low

> <Canonical_QSARr>
ClC1C=C2C=CC=CC2=CC=1

> <InChI_Code_QSARr>
InChI=1S/C10H7Cl/c11-10-6-5-8-3-1-2-4-9(8)7-10/h1-7H

> <InChI Key_QSARr>
CGYGETOMCSJHJU-UHFFFAOYSA-N

> <Salt_Solvent>


> <Salt_Solvent_ID>
0

> <MPID>
18875

> <LogKOA_Ref>
Su,Y et al. (2002)

> <LogKOA>
5.8

> <Tr_1_Tst_0>
0

$$$$
100062
  Mrv171c012251910582D          

 12 13  0  0  0  0            999 V2000
    1.3498   -1.5392    0.0000 C   0  0  0  0  0  0  0  0  0  0  0  0
    1.3498   -2.3642    0.0000 C   0  0  0  0  0  0  0  0  0  0  0  0
    2.0643   -2.7767    0.0000 C   0  0  0  0  0  0  0  0  0  0  0  0
    2.7787   -2.3642    0.0000 C   0  0  0  0  0  0  0  0  0  0  0  0
    2.7787   -1.5392    0.0000 C   0  0  0  0  0  0  0  0  0  0  0  0
    2.0643   -1.1267    0.0000 C   0  0  0  0  0  0  0  0  0  0  0  0
    2.0643   -0.3017    0.0000 C   0  0  0  0  0  0  0  0  0  0  0  0
    2.7787    0.1108    0.0000 C   0  0  0  0  0  0  0  0  0  0  0  0
    2.7787    0.9358    0.0000 C   0  0  0  0  0  0  0  0  0  0  0  0
    2.0643    1.3483    0.0000 C   0  0  0  0  0  0  0  0  0  0  0  0
    1.3498    0.9358    0.0000 C   0  0  0  0  0  0  0  0  0  0  0  0
    1.3498    0.1108    0.0000 C   0  0  0  0  0  0  0  0  0  0  0  0
  2  1  1  0  0  0  0
  3  2  2  0  0  0  0
  4  3  1  0  0  0  0
  5  4  2  0  0  0  0
  6  5  1  0  0  0  0
  1  6  2  0  0  0  0
  6  7  1  0  0  0  0
  8  7  1  0  0  0  0
  9  8  2  0  0  0  0
 10  9  1  0  0  0  0
 11 10  2  0  0  0  0
 12 11  1  0  0  0  0
  7 12  2  0  0  0  0
M  END
> <ChemID>
100062

> <CAS>
92-52-4

> <Original_SMILES>
c1ccccc1-c1ccccc1

> <preferred_name>
Biphenyl

> <dsstox_substance_id>
DTXSID4020161

> <dsstox_compound_id>
DTXCID60161

> <qc_level>
DSSTox_Low

> <Canonical_QSARr>
C1=CC=CC=C1C1C=CC=CC=1

> <InChI_Code_QSARr>
InChI=1S/C12H10/c1-3-7-11(8-4-1)12-9-5-2-6-10-12/h1-10H

> <InChI Key_QSARr>
ZUOUZKKEUPVFJK-UHFFFAOYSA-N

> <Salt_Solvent>


> <Salt_Solvent_ID>
0

> <MPID>
18876

> <LogKOA_Ref>
Abraham,MH et al. (2001)

> <LogKOA>
6.15

> <Tr_1_Tst_0>
1

$$$$
100063
  Mrv171c012251910582D          

  8  8  0  0  0  0            999 V2000
    0.3589   -2.0602    0.0000 C   0  0  0  0  0  0  0  0  0  0  0  0
    1.0734   -2.4727    0.0000 C   0  0  0  0  0  0  0  0  0  0  0  0
    1.7879   -2.0602    0.0000 C   0  0  0  0  0  0  0  0  0  0  0  0
    1.7879   -1.2352    0.0000 C   0  0  0  0  0  0  0  0  0  0  0  0
    1.0734   -0.8227    0.0000 C   0  0  0  0  0  0  0  0  0  0  0  0
    1.0734    0.0023    0.0000 C   0  0  0  0  0  0  0  0  0  0  0  0
    0.3589   -1.2352    0.0000 C   0  0  0  0  0  0  0  0  0  0  0  0
   -0.3556   -0.8227    0.0000 C   0  0  0  0  0  0  0  0  0  0  0  0
  2  1  2  0  0  0  0
  3  2  1  0  0  0  0
  4  3  2  0  0  0  0
  5  4  1  0  0  0  0
  5  6  1  0  0  0  0
  7  5  2  0  0  0  0
  1  7  1  0  0  0  0
  7  8  1  0  0  0  0
M  END
> <ChemID>
100063

> <CAS>
95-47-6

> <Original_SMILES>
Cc1ccccc1C

> <preferred_name>
o-Xylene

> <dsstox_substance_id>
DTXSID3021807

> <dsstox_compound_id>
DTXCID501807

> <qc_level>
DSSTox_Low

> <Canonical_QSARr>
CC1C=CC=CC=1C

> <InChI_Code_QSARr>
InChI=1S/C8H10/c1-7-5-3-4-6-8(7)2/h3-6H,1-2H3

> <InChI Key_QSARr>
CTQNGGLPUBDAKN-UHFFFAOYSA-N

> <Salt_Solvent>


> <Salt_Solvent_ID>
0

> <MPID>
18877

> <LogKOA_Ref>
Gruber,D et al. (1997)

> <LogKOA>
3.91

> <Tr_1_Tst_0>
1

$$$$
100064
  Mrv171c012251910582D          

  8  8  0  0  0  0            999 V2000
    0.0913   -0.7358    0.0000 Cl  0  0  0  0  0  0  0  0  0  0  0  0
    0.8057   -1.1483    0.0000 C   0  0  0  0  0  0  0  0  0  0  0  0
    0.8057   -1.9733    0.0000 C   0  0  0  0  0  0  0  0  0  0  0  0
    1.5202   -2.3858    0.0000 C   0  0  0  0  0  0  0  0  0  0  0  0
    2.2347   -1.9733    0.0000 C   0  0  0  0  0  0  0  0  0  0  0  0
    2.2347   -1.1483    0.0000 C   0  0  0  0  0  0  0  0  0  0  0  0
    1.5202   -0.7358    0.0000 C   0  0  0  0  0  0  0  0  0  0  0  0
    1.5202    0.0892    0.0000 Cl  0  0  0  0  0  0  0  0  0  0  0  0
  1  2  1  0  0  0  0
  3  2  1  0  0  0  0
  4  3  2  0  0  0  0
  5  4  1  0  0  0  0
  6  5  2  0  0  0  0
  7  6  1  0  0  0  0
  2  7  2  0  0  0  0
  7  8  1  0  0  0  0
M  END
> <ChemID>
100064

> <CAS>
95-50-1

> <Original_SMILES>
Clc1ccccc1Cl

> <preferred_name>
1,2-Dichlorobenzene

> <dsstox_substance_id>
DTXSID6020430

> <dsstox_compound_id>
DTXCID00430

> <qc_level>
DSSTox_Low

> <Canonical_QSARr>
ClC1C=CC=CC=1Cl

> <InChI_Code_QSARr>
InChI=1S/C6H4Cl2/c7-5-3-1-2-4-6(5)8/h1-4H

> <InChI Key_QSARr>
RFFLAFLAYFXFSW-UHFFFAOYSA-N

> <Salt_Solvent>


> <Salt_Solvent_ID>
0

> <MPID>
18878

> <LogKOA_Ref>
Harner,T & Mackay,D (1995)

> <LogKOA>
4.36

> <Tr_1_Tst_0>
1

$$$$
100065
  Mrv171c012251910582D          

 10 10  0  0  0  0            999 V2000
    3.0867   -0.6079    0.0000 Cl  0  0  0  0  0  0  0  0  0  0  0  0
    2.3722   -1.0204    0.0000 C   0  0  0  0  0  0  0  0  0  0  0  0
    1.6577   -0.6079    0.0000 C   0  0  0  0  0  0  0  0  0  0  0  0
    1.6577    0.2171    0.0000 Cl  0  0  0  0  0  0  0  0  0  0  0  0
    0.9433   -1.0204    0.0000 C   0  0  0  0  0  0  0  0  0  0  0  0
    0.9433   -1.8454    0.0000 C   0  0  0  0  0  0  0  0  0  0  0  0
    0.2288   -2.2579    0.0000 Cl  0  0  0  0  0  0  0  0  0  0  0  0
    1.6577   -2.2579    0.0000 C   0  0  0  0  0  0  0  0  0  0  0  0
    1.6577   -3.0829    0.0000 Cl  0  0  0  0  0  0  0  0  0  0  0  0
    2.3722   -1.8454    0.0000 C   0  0  0  0  0  0  0  0  0  0  0  0
  1  2  1  0  0  0  0
  3  2  2  0  0  0  0
  3  4  1  0  0  0  0
  5  3  1  0  0  0  0
  6  5  2  0  0  0  0
  6  7  1  0  0  0  0
  8  6  1  0  0  0  0
  8  9  1  0  0  0  0
 10  8  2  0  0  0  0
  2 10  1  0  0  0  0
M  END
> <ChemID>
100065

> <CAS>
95-94-3

> <Original_SMILES>
Clc1cc(Cl)c(Cl)cc1Cl

> <preferred_name>
1,2,4,5-Tetrachlorobenzene

> <dsstox_substance_id>
DTXSID7024320

> <dsstox_compound_id>
DTXCID604320

> <qc_level>
DSSTox_Low

> <Canonical_QSARr>
ClC1C=C(Cl)C(Cl)=CC=1Cl

> <InChI_Code_QSARr>
InChI=1S/C6H2Cl4/c7-3-1-4(8)6(10)2-5(3)9/h1-2H

> <InChI Key_QSARr>
JHBKHLUZVFWLAG-UHFFFAOYSA-N

> <Salt_Solvent>


> <Salt_Solvent_ID>
0

> <MPID>
18879

> <LogKOA_Ref>
Harner,T & Mackay,D (1995)

> <LogKOA>
5.63

> <Tr_1_Tst_0>
0

$$$$
100066
  Mrv171c012251910582D          

  6  5  0  0  0  0            999 V2000
    1.2375   -2.1439    0.0000 C   0  0  0  0  0  0  0  0  0  0  0  0
    1.6500   -1.4295    0.0000 C   0  0  0  0  0  0  0  0  0  0  0  0
    1.2375   -0.7150    0.0000 C   0  0  0  0  0  0  0  0  0  0  0  0
    1.6500   -0.0005    0.0000 C   0  0  0  0  0  0  0  0  0  0  0  0
    1.2375    0.7139    0.0000 C   0  0  0  0  0  0  0  0  0  0  0  0
    0.4125   -0.7150    0.0000 O   0  0  0  0  0  0  0  0  0  0  0  0
  1  2  1  0  0  0  0
  2  3  1  0  0  0  0
  3  4  1  0  0  0  0
  4  5  1  0  0  0  0
  3  6  2  0  0  0  0
M  END
> <ChemID>
100066

> <CAS>
96-22-0

> <Original_SMILES>
CCC(=O)CC

> <preferred_name>
3-Pentanone

> <dsstox_substance_id>
DTXSID6021820

> <dsstox_compound_id>
DTXCID301820

> <qc_level>
DSSTox_Low

> <Canonical_QSARr>
CCC(=O)CC

> <InChI_Code_QSARr>
InChI=1S/C5H10O/c1-3-5(6)4-2/h3-4H2,1-2H3

> <InChI Key_QSARr>
FDPIMTJIUBPUKL-UHFFFAOYSA-N

> <Salt_Solvent>


> <Salt_Solvent_ID>
0

> <MPID>
18880

> <LogKOA_Ref>
Abraham,MH et al. (2001)

> <LogKOA>
3.2

> <Tr_1_Tst_0>
1

$$$$
100067
  Mrv171c012251910582D          

  9  9  0  0  0  0            999 V2000
    2.1337   -0.9436    0.0000 C   0  0  0  0  0  0  0  0  0  0  0  0
    1.4193   -0.5311    0.0000 C   0  0  0  0  0  0  0  0  0  0  0  0
    1.4193    0.2939    0.0000 C   0  0  0  0  0  0  0  0  0  0  0  0
    0.7048    0.7064    0.0000 C   0  0  0  0  0  0  0  0  0  0  0  0
    2.1337    0.7064    0.0000 C   0  0  0  0  0  0  0  0  0  0  0  0
    0.7048   -0.9436    0.0000 C   0  0  0  0  0  0  0  0  0  0  0  0
    0.7048   -1.7686    0.0000 C   0  0  0  0  0  0  0  0  0  0  0  0
    1.4193   -2.1811    0.0000 C   0  0  0  0  0  0  0  0  0  0  0  0
    2.1337   -1.7686    0.0000 C   0  0  0  0  0  0  0  0  0  0  0  0
  2  1  1  0  0  0  0
  2  3  1  0  0  0  0
  3  4  1  0  0  0  0
  3  5  1  0  0  0  0
  6  2  2  0  0  0  0
  7  6  1  0  0  0  0
  8  7  2  0  0  0  0
  9  8  1  0  0  0  0
  1  9  2  0  0  0  0
M  END
> <ChemID>
100067

> <CAS>
98-82-8

> <Original_SMILES>
CC(C)c1ccccc1

> <preferred_name>
Cumene

> <dsstox_substance_id>
DTXSID1021827

> <dsstox_compound_id>
DTXCID101827

> <qc_level>
DSSTox_High

> <Canonical_QSARr>
CC(C)C1C=CC=CC=1

> <InChI_Code_QSARr>
InChI=1S/C9H12/c1-8(2)9-6-4-3-5-7-9/h3-8H,1-2H3

> <InChI Key_QSARr>
RWGFKTVRMDUZSP-UHFFFAOYSA-N

> <Salt_Solvent>


> <Salt_Solvent_ID>
0

> <MPID>
18881

> <LogKOA_Ref>
Abraham,MH et al. (2001)

> <LogKOA>
3.98

> <Tr_1_Tst_0>
1

$$$$
100068
  Mrv171c012251910582D          

 11 11  0  0  0  0            999 V2000
    2.2361   -2.3085    0.0000 C   0  0  0  0  0  0  0  0  0  0  0  0
    1.5217   -2.7210    0.0000 O   0  0  0  0  0  0  0  0  0  0  0  0
    1.5217   -3.5460    0.0000 C   0  0  0  0  0  0  0  0  0  0  0  0
    2.9506   -2.7210    0.0000 O   0  0  0  0  0  0  0  0  0  0  0  0
    2.2361   -1.4835    0.0000 C   0  0  0  0  0  0  0  0  0  0  0  0
    2.9506   -1.0710    0.0000 C   0  0  0  0  0  0  0  0  0  0  0  0
    2.9506   -0.2460    0.0000 C   0  0  0  0  0  0  0  0  0  0  0  0
    2.2361    0.1665    0.0000 C   0  0  0  0  0  0  0  0  0  0  0  0
    2.2361    0.9915    0.0000 O   0  0  0  0  0  0  0  0  0  0  0  0
    1.5217   -0.2460    0.0000 C   0  0  0  0  0  0  0  0  0  0  0  0
    1.5217   -1.0710    0.0000 C   0  0  0  0  0  0  0  0  0  0  0  0
  1  2  1  0  0  0  0
  2  3  1  0  0  0  0
  1  4  2  0  0  0  0
  1  5  1  0  0  0  0
  6  5  1  0  0  0  0
  7  6  2  0  0  0  0
  8  7  1  0  0  0  0
  8  9  1  0  0  0  0
 10  8  2  0  0  0  0
 11 10  1  0  0  0  0
  5 11  2  0  0  0  0
M  END
> <ChemID>
100068

> <CAS>
99-76-3

> <Original_SMILES>
COC(=O)c1ccc(O)cc1

> <preferred_name>
Methylparaben

> <dsstox_substance_id>
DTXSID4022529

> <dsstox_compound_id>
DTXCID402529

> <qc_level>
DSSTox_Low

> <Canonical_QSARr>
COC(=O)C1C=CC(O)=CC=1

> <InChI_Code_QSARr>
InChI=1S/C8H8O3/c1-11-8(10)6-2-4-7(9)5-3-6/h2-5,9H,1H3

> <InChI Key_QSARr>
LXCFILQKKLGQFO-UHFFFAOYSA-N

> <Salt_Solvent>


> <Salt_Solvent_ID>
0

> <MPID>
18882

> <LogKOA_Ref>
Abraham,MH et al. (2001)

> <LogKOA>
8.57

> <Tr_1_Tst_0>
1

$$$$
100069
  Mrv171c012251910582D          

 10 10  0  0  0  0            999 V2000
    2.0644   -1.9470    0.0000 C   0  0  0  0  0  0  0  0  0  0  0  0
    1.3499   -2.3595    0.0000 O   0  0  0  0  0  0  0  0  0  0  0  0
    2.0644   -1.1220    0.0000 C   0  0  0  0  0  0  0  0  0  0  0  0
    2.7789   -0.7095    0.0000 C   0  0  0  0  0  0  0  0  0  0  0  0
    2.7789    0.1155    0.0000 C   0  0  0  0  0  0  0  0  0  0  0  0
    2.0644    0.5280    0.0000 C   0  0  0  0  0  0  0  0  0  0  0  0
    2.0644    1.3530    0.0000 O   0  0  0  0  0  0  0  0  0  0  0  0
    1.3499    0.1155    0.0000 C   0  0  0  0  0  0  0  0  0  0  0  0
    1.3499   -0.7095    0.0000 C   0  0  0  0  0  0  0  0  0  0  0  0
    2.7789   -2.3595    0.0000 O   0  0  0  0  0  0  0  0  0  0  0  0
  1  2  1  0  0  0  0
  1  3  1  0  0  0  0
  4  3  1  0  0  0  0
  5  4  2  0  0  0  0
  6  5  1  0  0  0  0
  6  7  1  0  0  0  0
  8  6  2  0  0  0  0
  9  8  1  0  0  0  0
  3  9  2  0  0  0  0
  1 10  2  0  0  0  0
M  END
> <ChemID>
100069

> <CAS>
99-96-7

> <Original_SMILES>
Oc1ccc(cc1)C(O)=O

> <preferred_name>
4-Hydroxybenzoic acid

> <dsstox_substance_id>
DTXSID3026647

> <dsstox_compound_id>
DTXCID806647

> <qc_level>
DSSTox_Low

> <Canonical_QSARr>
OC1C=CC(=CC=1)C(O)=O

> <InChI_Code_QSARr>
InChI=1S/C7H6O3/c8-6-3-1-5(2-4-6)7(9)10/h1-4,8H,(H,9,10)

> <InChI Key_QSARr>
FJKROLUGYXJWQN-UHFFFAOYSA-N

> <Salt_Solvent>


> <Salt_Solvent_ID>
0

> <MPID>
18883

> <LogKOA_Ref>
Abraham,MH et al. (2001)

> <LogKOA>
8.08

> <Tr_1_Tst_0>
0

$$$$
100070
  Mrv171c012251910582D          

  8  8  0  0  0  0            999 V2000
    2.2218    0.9732    0.0000 C   0  0  0  0  0  0  0  0  0  0  0  0
    1.5073    0.5607    0.0000 C   0  0  0  0  0  0  0  0  0  0  0  0
    1.5073   -0.2643    0.0000 C   0  0  0  0  0  0  0  0  0  0  0  0
    0.7928   -0.6768    0.0000 C   0  0  0  0  0  0  0  0  0  0  0  0
    0.7928   -1.5018    0.0000 C   0  0  0  0  0  0  0  0  0  0  0  0
    1.5073   -1.9143    0.0000 C   0  0  0  0  0  0  0  0  0  0  0  0
    2.2218   -1.5018    0.0000 C   0  0  0  0  0  0  0  0  0  0  0  0
    2.2218   -0.6768    0.0000 C   0  0  0  0  0  0  0  0  0  0  0  0
  1  2  1  0  0  0  0
  2  3  1  0  0  0  0
  4  3  1  0  0  0  0
  5  4  2  0  0  0  0
  6  5  1  0  0  0  0
  7  6  2  0  0  0  0
  8  7  1  0  0  0  0
  3  8  2  0  0  0  0
M  END
> <ChemID>
100070

> <CAS>
100-41-4

> <Original_SMILES>
CCc1ccccc1

> <preferred_name>
Ethylbenzene

> <dsstox_substance_id>
DTXSID3020596

> <dsstox_compound_id>
DTXCID10596

> <qc_level>
DSSTox_High

> <Canonical_QSARr>
CCC1C=CC=CC=1

> <InChI_Code_QSARr>
InChI=1S/C8H10/c1-2-8-6-4-3-5-7-8/h3-7H,2H2,1H3

> <InChI Key_QSARr>
YNQLUTRBYVCPMQ-UHFFFAOYSA-N

> <Salt_Solvent>


> <Salt_Solvent_ID>
0

> <MPID>
18884

> <LogKOA_Ref>
Gruber,D et al. (1997)

> <LogKOA>
3.74

> <Tr_1_Tst_0>
1

$$$$
100071
  Mrv171c012251910582D          

  8  8  0  0  0  0            999 V2000
    1.9593    1.2441    0.0000 N   0  0  0  0  0  0  0  0  0  0  0  0
    1.9593    0.4191    0.0000 C   0  0  0  0  0  0  0  0  0  0  0  0
    1.9593   -0.4059    0.0000 C   0  0  0  0  0  0  0  0  0  0  0  0
    1.2448   -0.8184    0.0000 C   0  0  0  0  0  0  0  0  0  0  0  0
    1.2448   -1.6434    0.0000 C   0  0  0  0  0  0  0  0  0  0  0  0
    1.9593   -2.0559    0.0000 C   0  0  0  0  0  0  0  0  0  0  0  0
    2.6737   -1.6434    0.0000 C   0  0  0  0  0  0  0  0  0  0  0  0
    2.6737   -0.8184    0.0000 C   0  0  0  0  0  0  0  0  0  0  0  0
  1  2  3  0  0  0  0
  2  3  1  0  0  0  0
  4  3  1  0  0  0  0
  5  4  2  0  0  0  0
  6  5  1  0  0  0  0
  7  6  2  0  0  0  0
  8  7  1  0  0  0  0
  3  8  2  0  0  0  0
M  END
> <ChemID>
100071

> <CAS>
100-47-0

> <Original_SMILES>
N#Cc1ccccc1

> <preferred_name>
Benzonitrile

> <dsstox_substance_id>
DTXSID7021491

> <dsstox_compound_id>
DTXCID001491

> <qc_level>
DSSTox_Low

> <Canonical_QSARr>
N#CC1C=CC=CC=1

> <InChI_Code_QSARr>
InChI=1S/C7H5N/c8-6-7-4-2-1-3-5-7/h1-5H

> <InChI Key_QSARr>
JFDZBHWFFUWGJE-UHFFFAOYSA-N

> <Salt_Solvent>


> <Salt_Solvent_ID>
0

> <MPID>
18885

> <LogKOA_Ref>
Abraham,MH et al. (2001)

> <LogKOA>
4.46

> <Tr_1_Tst_0>
1

$$$$
100072
  Mrv171c012251910582D          

  8  8  0  0  0  0            999 V2000
    1.2520   -0.3058    0.0000 C   0  0  0  0  0  0  0  0  0  0  0  0
    0.5376   -0.7183    0.0000 C   0  0  0  0  0  0  0  0  0  0  0  0
    0.5376   -1.5433    0.0000 C   0  0  0  0  0  0  0  0  0  0  0  0
    1.2520   -1.9558    0.0000 C   0  0  0  0  0  0  0  0  0  0  0  0
    1.9665   -1.5433    0.0000 C   0  0  0  0  0  0  0  0  0  0  0  0
    1.9665   -0.7183    0.0000 C   0  0  0  0  0  0  0  0  0  0  0  0
    1.2520    0.5192    0.0000 O   0  0  0  0  0  0  0  0  0  0  0  0
    0.5376    0.9317    0.0000 C   0  0  0  0  0  0  0  0  0  0  0  0
  2  1  2  0  0  0  0
  3  2  1  0  0  0  0
  4  3  2  0  0  0  0
  5  4  1  0  0  0  0
  6  5  2  0  0  0  0
  1  6  1  0  0  0  0
  1  7  1  0  0  0  0
  7  8  1  0  0  0  0
M  END
> <ChemID>
100072

> <CAS>
100-66-3

> <Original_SMILES>
COc1ccccc1

> <preferred_name>
Anisole

> <dsstox_substance_id>
DTXSID4041608

> <dsstox_compound_id>
DTXCID2021608

> <qc_level>
DSSTox_Low

> <Canonical_QSARr>
COC1C=CC=CC=1

> <InChI_Code_QSARr>
InChI=1S/C7H8O/c1-8-7-5-3-2-4-6-7/h2-6H,1H3

> <InChI Key_QSARr>
RDOXTESZEPMUJZ-UHFFFAOYSA-N

> <Salt_Solvent>


> <Salt_Solvent_ID>
0

> <MPID>
18886

> <LogKOA_Ref>
Abraham,MH et al. (2001)

> <LogKOA>
4.01

> <Tr_1_Tst_0>
1

$$$$
100073
  Mrv171c012251910582D          

 14 15  0  0  0  0            999 V2000
    0.7145   -1.2375    0.0000 C   0  0  0  0  0  0  0  0  0  0  0  0
    1.4289   -1.6500    0.0000 C   0  0  0  0  0  0  0  0  0  0  0  0
    1.4289   -2.4750    0.0000 C   0  0  0  0  0  0  0  0  0  0  0  0
    2.1434   -2.8875    0.0000 C   0  0  0  0  0  0  0  0  0  0  0  0
    2.1434   -3.7125    0.0000 C   0  0  0  0  0  0  0  0  0  0  0  0
    1.4289   -4.1250    0.0000 C   0  0  0  0  0  0  0  0  0  0  0  0
    0.7145   -3.7125    0.0000 C   0  0  0  0  0  0  0  0  0  0  0  0
    0.7145   -2.8875    0.0000 C   0  0  0  0  0  0  0  0  0  0  0  0
    0.7145   -0.4125    0.0000 C   0  0  0  0  0  0  0  0  0  0  0  0
    0.0000    0.0000    0.0000 C   0  0  0  0  0  0  0  0  0  0  0  0
    0.0000    0.8250    0.0000 C   0  0  0  0  0  0  0  0  0  0  0  0
    0.7145    1.2375    0.0000 C   0  0  0  0  0  0  0  0  0  0  0  0
    1.4289    0.8250    0.0000 C   0  0  0  0  0  0  0  0  0  0  0  0
    1.4289    0.0000    0.0000 C   0  0  0  0  0  0  0  0  0  0  0  0
  1  2  2  0  0  0  0
  2  3  1  0  0  0  0
  3  4  1  0  0  0  0
  4  5  2  0  0  0  0
  5  6  1  0  0  0  0
  6  7  2  0  0  0  0
  7  8  1  0  0  0  0
  3  8  2  0  0  0  0
  1  9  1  4  0  0  0
  9 10  1  0  0  0  0
 10 11  2  0  0  0  0
 11 12  1  0  0  0  0
 12 13  2  0  0  0  0
 13 14  1  0  0  0  0
  9 14  2  0  0  0  0
M  END
> <ChemID>
100073

> <CAS>
103-30-0

> <Original_SMILES>
c1ccccc1/C=C/c1ccccc1

> <preferred_name>
trans-Stilbene

> <dsstox_substance_id>
DTXSID4026050

> <dsstox_compound_id>
DTXCID106050

> <qc_level>
DSSTox_Low

> <Canonical_QSARr>
C(=CC1C=CC=CC=1)C1C=CC=CC=1

> <InChI_Code_QSARr>
InChI=1S/C14H12/c1-3-7-13(8-4-1)11-12-14-9-5-2-6-10-14/h1-12H

> <InChI Key_QSARr>
PJANXHGTPQOBST-UHFFFAOYSA-N

> <Salt_Solvent>


> <Salt_Solvent_ID>
0

> <MPID>
18887

> <LogKOA_Ref>
Abraham,MH et al. (2001)

> <LogKOA>
7.48

> <Tr_1_Tst_0>
0

$$$$
100074
  Mrv171c012251910582D          

  9  9  0  0  0  0            999 V2000
    1.2747   -0.5068    0.0000 C   0  0  0  0  0  0  0  0  0  0  0  0
    1.2747    0.3182    0.0000 C   0  0  0  0  0  0  0  0  0  0  0  0
    1.9892    0.7307    0.0000 C   0  0  0  0  0  0  0  0  0  0  0  0
    1.9892    1.5557    0.0000 C   0  0  0  0  0  0  0  0  0  0  0  0
    0.5603   -0.9193    0.0000 C   0  0  0  0  0  0  0  0  0  0  0  0
    0.5603   -1.7443    0.0000 C   0  0  0  0  0  0  0  0  0  0  0  0
    1.2747   -2.1568    0.0000 C   0  0  0  0  0  0  0  0  0  0  0  0
    1.9892   -1.7443    0.0000 C   0  0  0  0  0  0  0  0  0  0  0  0
    1.9892   -0.9193    0.0000 C   0  0  0  0  0  0  0  0  0  0  0  0
  1  2  1  0  0  0  0
  2  3  1  0  0  0  0
  3  4  1  0  0  0  0
  5  1  2  0  0  0  0
  6  5  1  0  0  0  0
  7  6  2  0  0  0  0
  8  7  1  0  0  0  0
  9  8  2  0  0  0  0
  1  9  1  0  0  0  0
M  END
> <ChemID>
100074

> <CAS>
103-65-1

> <Original_SMILES>
CCCc1ccccc1

> <preferred_name>
Propylbenzene

> <dsstox_substance_id>
DTXSID3042219

> <dsstox_compound_id>
DTXCID1022219

> <qc_level>
DSSTox_Low

> <Canonical_QSARr>
CCCC1C=CC=CC=1

> <InChI_Code_QSARr>
InChI=1S/C9H12/c1-2-6-9-7-4-3-5-8-9/h3-5,7-8H,2,6H2,1H3

> <InChI Key_QSARr>
ODLMAHJVESYWTB-UHFFFAOYSA-N

> <Salt_Solvent>


> <Salt_Solvent_ID>
0

> <MPID>
18888

> <LogKOA_Ref>
Abraham,MH et al. (2001)

> <LogKOA>
4.09

> <Tr_1_Tst_0>
1

$$$$
100075
  Mrv171c012251910582D          

  7  6  0  0  0  0            999 V2000
    1.4210   -0.9365    0.0000 C   0  0  0  0  0  0  0  0  0  0  0  0
    0.7065   -0.5240    0.0000 C   0  0  0  0  0  0  0  0  0  0  0  0
   -0.0079   -0.9365    0.0000 C   0  0  0  0  0  0  0  0  0  0  0  0
    2.1355   -0.5240    0.0000 O   0  0  0  0  0  0  0  0  0  0  0  0
    2.8500   -0.9365    0.0000 C   0  0  0  0  0  0  0  0  0  0  0  0
    3.5644   -0.5240    0.0000 C   0  0  0  0  0  0  0  0  0  0  0  0
    1.4210   -1.7615    0.0000 O   0  0  0  0  0  0  0  0  0  0  0  0
  1  2  1  0  0  0  0
  2  3  1  0  0  0  0
  1  4  1  0  0  0  0
  4  5  1  0  0  0  0
  5  6  1  0  0  0  0
  1  7  2  0  0  0  0
M  END
> <ChemID>
100075

> <CAS>
105-37-3

> <Original_SMILES>
CCC(=O)OCC

> <preferred_name>
Ethyl propionate

> <dsstox_substance_id>
DTXSID1040110

> <dsstox_compound_id>
DTXCID9020110

> <qc_level>
DSSTox_Low

> <Canonical_QSARr>
CCC(=O)OCC

> <InChI_Code_QSARr>
InChI=1S/C5H10O2/c1-3-5(6)7-4-2/h3-4H2,1-2H3

> <InChI Key_QSARr>
FKRCODPIKNYEAC-UHFFFAOYSA-N

> <Salt_Solvent>


> <Salt_Solvent_ID>
0

> <MPID>
18889

> <LogKOA_Ref>
Abraham,MH et al. (2001)

> <LogKOA>
3.15

> <Tr_1_Tst_0>
1

$$$$
100076
  Mrv171c012251910582D          

  8  7  0  0  0  0            999 V2000
    2.1415   -1.0320    0.0000 C   0  0  0  0  0  0  0  0  0  0  0  0
    1.4270   -0.6195    0.0000 C   0  0  0  0  0  0  0  0  0  0  0  0
    0.7126   -1.0320    0.0000 C   0  0  0  0  0  0  0  0  0  0  0  0
   -0.0019   -0.6195    0.0000 C   0  0  0  0  0  0  0  0  0  0  0  0
    2.8560   -0.6195    0.0000 O   0  0  0  0  0  0  0  0  0  0  0  0
    3.5705   -1.0320    0.0000 C   0  0  0  0  0  0  0  0  0  0  0  0
    4.2849   -0.6195    0.0000 C   0  0  0  0  0  0  0  0  0  0  0  0
    2.1415   -1.8570    0.0000 O   0  0  0  0  0  0  0  0  0  0  0  0
  1  2  1  0  0  0  0
  2  3  1  0  0  0  0
  3  4  1  0  0  0  0
  1  5  1  0  0  0  0
  5  6  1  0  0  0  0
  6  7  1  0  0  0  0
  1  8  2  0  0  0  0
M  END
> <ChemID>
100076

> <CAS>
105-54-4

> <Original_SMILES>
CCOC(=O)CCC

> <preferred_name>
Ethyl butyrate

> <dsstox_substance_id>
DTXSID6040111

> <dsstox_compound_id>
DTXCID4020111

> <qc_level>
DSSTox_Low

> <Canonical_QSARr>
CCOC(=O)CCC

> <InChI_Code_QSARr>
InChI=1S/C6H12O2/c1-3-5-6(7)8-4-2/h3-5H2,1-2H3

> <InChI Key_QSARr>
OBNCKNCVKJNDBV-UHFFFAOYSA-N

> <Salt_Solvent>


> <Salt_Solvent_ID>
0

> <MPID>
18890

> <LogKOA_Ref>
Abraham,MH et al. (2001)

> <LogKOA>
3.56

> <Tr_1_Tst_0>
1

$$$$
100077
  Mrv171c012251910582D          

  8  8  0  0  0  0            999 V2000
    0.7121   -3.2906    0.0000 Br  0  0  0  0  0  0  0  0  0  0  0  0
    0.7121   -2.4656    0.0000 C   0  0  0  0  0  0  0  0  0  0  0  0
    1.4265   -2.0531    0.0000 C   0  0  0  0  0  0  0  0  0  0  0  0
    1.4265   -1.2281    0.0000 C   0  0  0  0  0  0  0  0  0  0  0  0
    0.7121   -0.8156    0.0000 C   0  0  0  0  0  0  0  0  0  0  0  0
    0.7121    0.0094    0.0000 Br  0  0  0  0  0  0  0  0  0  0  0  0
   -0.0024   -1.2281    0.0000 C   0  0  0  0  0  0  0  0  0  0  0  0
   -0.0024   -2.0531    0.0000 C   0  0  0  0  0  0  0  0  0  0  0  0
  1  2  1  0  0  0  0
  3  2  1  0  0  0  0
  4  3  2  0  0  0  0
  5  4  1  0  0  0  0
  5  6  1  0  0  0  0
  7  5  2  0  0  0  0
  8  7  1  0  0  0  0
  2  8  2  0  0  0  0
M  END
> <ChemID>
100077

> <CAS>
106-37-6

> <Original_SMILES>
Brc1ccc(Br)cc1

> <preferred_name>
1,4-Dibromobenzene

> <dsstox_substance_id>
DTXSID4024012

> <dsstox_compound_id>
DTXCID504012

> <qc_level>
DSSTox_Low

> <Canonical_QSARr>
BrC1C=CC(Br)=CC=1

> <InChI_Code_QSARr>
InChI=1S/C6H4Br2/c7-5-1-2-6(8)4-3-5/h1-4H

> <InChI Key_QSARr>
SWJPEBQEEAHIGZ-UHFFFAOYSA-N

> <Salt_Solvent>


> <Salt_Solvent_ID>
0

> <MPID>
18891

> <LogKOA_Ref>
Abraham,MH et al. (2001)

> <LogKOA>
5.21

> <Tr_1_Tst_0>
0

$$$$
100078
  Mrv171c012251910582D          

  8  8  0  0  0  0            999 V2000
    1.6500   -2.3653    0.0000 C   0  0  0  0  0  0  0  0  0  0  0  0
    1.6500   -1.5403    0.0000 C   0  0  0  0  0  0  0  0  0  0  0  0
    2.3645   -1.1278    0.0000 C   0  0  0  0  0  0  0  0  0  0  0  0
    2.3645   -0.3028    0.0000 C   0  0  0  0  0  0  0  0  0  0  0  0
    1.6500    0.1097    0.0000 C   0  0  0  0  0  0  0  0  0  0  0  0
    1.6500    0.9347    0.0000 C   0  0  0  0  0  0  0  0  0  0  0  0
    0.9355   -0.3028    0.0000 C   0  0  0  0  0  0  0  0  0  0  0  0
    0.9355   -1.1278    0.0000 C   0  0  0  0  0  0  0  0  0  0  0  0
  1  2  1  0  0  0  0
  3  2  1  0  0  0  0
  4  3  2  0  0  0  0
  5  4  1  0  0  0  0
  5  6  1  0  0  0  0
  7  5  2  0  0  0  0
  8  7  1  0  0  0  0
  2  8  2  0  0  0  0
M  END
> <ChemID>
100078

> <CAS>
106-42-3

> <Original_SMILES>
Cc1ccc(C)cc1

> <preferred_name>
p-Xylene

> <dsstox_substance_id>
DTXSID2021868

> <dsstox_compound_id>
DTXCID701868

> <qc_level>
DSSTox_Low

> <Canonical_QSARr>
CC1C=CC(C)=CC=1

> <InChI_Code_QSARr>
InChI=1S/C8H10/c1-7-3-5-8(2)6-4-7/h3-6H,1-2H3

> <InChI Key_QSARr>
URLKBWYHVLBVBO-UHFFFAOYSA-N

> <Salt_Solvent>


> <Salt_Solvent_ID>
0

> <MPID>
18892

> <LogKOA_Ref>
Gruber,D et al. (1997)

> <LogKOA>
3.79

> <Tr_1_Tst_0>
1

$$$$
100079
  Mrv171c012251910582D          

  8  8  0  0  0  0            999 V2000
    1.6500   -2.3653    0.0000 Cl  0  0  0  0  0  0  0  0  0  0  0  0
    1.6500   -1.5403    0.0000 C   0  0  0  0  0  0  0  0  0  0  0  0
    2.3645   -1.1278    0.0000 C   0  0  0  0  0  0  0  0  0  0  0  0
    2.3645   -0.3028    0.0000 C   0  0  0  0  0  0  0  0  0  0  0  0
    1.6500    0.1097    0.0000 C   0  0  0  0  0  0  0  0  0  0  0  0
    1.6500    0.9347    0.0000 Cl  0  0  0  0  0  0  0  0  0  0  0  0
    0.9355   -0.3028    0.0000 C   0  0  0  0  0  0  0  0  0  0  0  0
    0.9355   -1.1278    0.0000 C   0  0  0  0  0  0  0  0  0  0  0  0
  1  2  1  0  0  0  0
  3  2  1  0  0  0  0
  4  3  2  0  0  0  0
  5  4  1  0  0  0  0
  5  6  1  0  0  0  0
  7  5  2  0  0  0  0
  8  7  1  0  0  0  0
  2  8  2  0  0  0  0
M  END
> <ChemID>
100079

> <CAS>
106-46-7

> <Original_SMILES>
Clc1ccc(Cl)cc1

> <preferred_name>
1,4-Dichlorobenzene

> <dsstox_substance_id>
DTXSID1020431

> <dsstox_compound_id>
DTXCID30431

> <qc_level>
DSSTox_Low

> <Canonical_QSARr>
ClC1C=CC(Cl)=CC=1

> <InChI_Code_QSARr>
InChI=1S/C6H4Cl2/c7-5-1-2-6(8)4-3-5/h1-4H

> <InChI Key_QSARr>
OCJBOOLMMGQPQU-UHFFFAOYSA-N

> <Salt_Solvent>


> <Salt_Solvent_ID>
0

> <MPID>
18893

> <LogKOA_Ref>
Abraham,MH et al. (2001)

> <LogKOA>
4.46

> <Tr_1_Tst_0>
1

$$$$
100080
  Mrv171c012251910582D          

  4  3  0  0  0  0            999 V2000
    1.2793   -0.5633    0.0000 C   0  0  0  0  0  0  0  0  0  0  0  0
    2.1043   -0.5633    0.0000 C   0  0  0  0  0  0  0  0  0  0  0  0
    0.8668    0.1512    0.0000 C   0  0  0  0  0  0  0  0  0  0  0  0
    0.0418    0.1512    0.0000 C   0  0  0  0  0  0  0  0  0  0  0  0
  1  2  1  0  0  0  0
  1  3  1  0  0  0  0
  3  4  1  0  0  0  0
M  END
> <ChemID>
100080

> <CAS>
106-97-8

> <Original_SMILES>
CCCC

> <preferred_name>
Butane

> <dsstox_substance_id>
DTXSID7024665

> <dsstox_compound_id>
DTXCID404665

> <qc_level>
DSSTox_Low

> <Canonical_QSARr>
CCCC

> <InChI_Code_QSARr>
InChI=1S/C4H10/c1-3-4-2/h3-4H2,1-2H3

> <InChI Key_QSARr>
IJDNQMDRQITEOD-UHFFFAOYSA-N

> <Salt_Solvent>


> <Salt_Solvent_ID>
0

> <MPID>
18894

> <LogKOA_Ref>
Abraham,MH et al. (2001)

> <LogKOA>
1.53

> <Tr_1_Tst_0>
1

$$$$
100081
  Mrv171c012251910582D          

  4  3  0  0  0  0            999 V2000
    2.1020   -0.5628    0.0000 Cl  0  0  0  0  0  0  0  0  0  0  0  0
    1.2770   -0.5628    0.0000 C   0  0  0  0  0  0  0  0  0  0  0  0
    0.8645    0.1517    0.0000 C   0  0  0  0  0  0  0  0  0  0  0  0
    0.0395    0.1517    0.0000 Cl  0  0  0  0  0  0  0  0  0  0  0  0
  1  2  1  0  0  0  0
  2  3  1  0  0  0  0
  3  4  1  0  0  0  0
M  END
> <ChemID>
100081

> <CAS>
107-06-2

> <Original_SMILES>
ClCCCl

> <preferred_name>
1,2-Dichloroethane

> <dsstox_substance_id>
DTXSID6020438

> <dsstox_compound_id>
DTXCID40438

> <qc_level>
DSSTox_High

> <Canonical_QSARr>
ClCCCl

> <InChI_Code_QSARr>
InChI=1S/C2H4Cl2/c3-1-2-4/h1-2H2

> <InChI Key_QSARr>
WSLDOOZREJYCGB-UHFFFAOYSA-N

> <Salt_Solvent>


> <Salt_Solvent_ID>
0

> <MPID>
18895

> <LogKOA_Ref>
Abraham,MH et al. (2001)

> <LogKOA>
2.78

> <Tr_1_Tst_0>
0

$$$$
100082
  Mrv171c012251910582D          

  4  3  0  0  0  0            999 V2000
    2.1020   -0.5628    0.0000 Cl  0  0  0  0  0  0  0  0  0  0  0  0
    1.2770   -0.5628    0.0000 C   0  0  0  0  0  0  0  0  0  0  0  0
    0.8645    0.1517    0.0000 C   0  0  0  0  0  0  0  0  0  0  0  0
    0.0395    0.1517    0.0000 O   0  0  0  0  0  0  0  0  0  0  0  0
  1  2  1  0  0  0  0
  2  3  1  0  0  0  0
  3  4  1  0  0  0  0
M  END
> <ChemID>
100082

> <CAS>
107-07-3

> <Original_SMILES>
OCCCl

> <preferred_name>
2-Chloroethanol

> <dsstox_substance_id>
DTXSID1021877

> <dsstox_compound_id>
DTXCID601877

> <qc_level>
DSSTox_Low

> <Canonical_QSARr>
OCCCl

> <InChI_Code_QSARr>
InChI=1S/C2H5ClO/c3-1-2-4/h4H,1-2H2

> <InChI Key_QSARr>
SZIFAVKTNFCBPC-UHFFFAOYSA-N

> <Salt_Solvent>


> <Salt_Solvent_ID>
0

> <MPID>
18896

> <LogKOA_Ref>
Abraham,MH et al. (2001)

> <LogKOA>
4.3

> <Tr_1_Tst_0>
1

$$$$
100083
  Mrv171c012251910582D          

  4  3  0  0  0  0            999 V2000
    1.8563   -1.0711    0.0000 C   0  0  0  0  0  0  0  0  0  0  0  0
    1.4438   -0.3566    0.0000 C   0  0  0  0  0  0  0  0  0  0  0  0
    0.6188   -0.3566    0.0000 C   0  0  0  0  0  0  0  0  0  0  0  0
   -0.2062   -0.3566    0.0000 N   0  0  0  0  0  0  0  0  0  0  0  0
  1  2  1  0  0  0  0
  2  3  1  0  0  0  0
  3  4  3  0  0  0  0
M  END
> <ChemID>
100083

> <CAS>
107-12-0

> <Original_SMILES>
CCC#N

> <preferred_name>
Propionitrile

> <dsstox_substance_id>
DTXSID1021879

> <dsstox_compound_id>
DTXCID401879

> <qc_level>
DSSTox_Low

> <Canonical_QSARr>
CCC#N

> <InChI_Code_QSARr>
InChI=1S/C3H5N/c1-2-3-4/h2H2,1H3

> <InChI Key_QSARr>
FVSKHRXBFJPNKK-UHFFFAOYSA-N

> <Salt_Solvent>


> <Salt_Solvent_ID>
0

> <MPID>
18897

> <LogKOA_Ref>
Abraham,MH et al. (2001)

> <LogKOA>
2.69

> <Tr_1_Tst_0>
1

$$$$
100084
  Mrv171c012251910582D          

  4  3  0  0  0  0            999 V2000
    2.1043   -0.5633    0.0000 O   0  0  0  0  0  0  0  0  0  0  0  0
    1.2793   -0.5633    0.0000 C   0  0  0  0  0  0  0  0  0  0  0  0
    0.8668    0.1512    0.0000 O   0  0  0  0  0  0  0  0  0  0  0  0
    0.0418    0.1512    0.0000 C   0  0  0  0  0  0  0  0  0  0  0  0
  1  2  2  0  0  0  0
  2  3  1  0  0  0  0
  3  4  1  0  0  0  0
M  END
> <ChemID>
100084

> <CAS>
107-31-3

> <Original_SMILES>
COC=O

> <preferred_name>
Methyl formate

> <dsstox_substance_id>
DTXSID5025609

> <dsstox_compound_id>
DTXCID305609

> <qc_level>
DSSTox_Low

> <Canonical_QSARr>
COC=O

> <InChI_Code_QSARr>
InChI=1S/C2H4O2/c1-4-2-3/h2H,1H3

> <InChI Key_QSARr>
TZIHFWKZFHZASV-UHFFFAOYSA-N

> <Salt_Solvent>


> <Salt_Solvent_ID>
0

> <MPID>
18898

> <LogKOA_Ref>
Abraham,MH et al. (2001)

> <LogKOA>
1.75

> <Tr_1_Tst_0>
1

$$$$
100085
  Mrv171c012251910582D          

  6  5  0  0  0  0            999 V2000
    1.2962    0.8609    0.0000 C   0  0  0  0  0  0  0  0  0  0  0  0
    0.8837    0.1464    0.0000 C   0  0  0  0  0  0  0  0  0  0  0  0
    1.2962   -0.5681    0.0000 C   0  0  0  0  0  0  0  0  0  0  0  0
    0.8837   -1.2825    0.0000 C   0  0  0  0  0  0  0  0  0  0  0  0
    1.2962   -1.9970    0.0000 C   0  0  0  0  0  0  0  0  0  0  0  0
    0.0587   -1.2825    0.0000 O   0  0  0  0  0  0  0  0  0  0  0  0
  1  2  1  0  0  0  0
  2  3  1  0  0  0  0
  3  4  1  0  0  0  0
  4  5  1  0  0  0  0
  4  6  2  0  0  0  0
M  END
> <ChemID>
100085

> <CAS>
107-87-9

> <Original_SMILES>
CCCC(C)=O

> <preferred_name>
2-Pentanone

> <dsstox_substance_id>
DTXSID0021888

> <dsstox_compound_id>
DTXCID301888

> <qc_level>
DSSTox_Low

> <Canonical_QSARr>
CCCC(C)=O

> <InChI_Code_QSARr>
InChI=1S/C5H10O/c1-3-4-5(2)6/h3-4H2,1-2H3

> <InChI Key_QSARr>
XNLICIUVMPYHGG-UHFFFAOYSA-N

> <Salt_Solvent>


> <Salt_Solvent_ID>
0

> <MPID>
18899

> <LogKOA_Ref>
Abraham,MH et al. (2001)

> <LogKOA>
3.19

> <Tr_1_Tst_0>
0

$$$$
100086
  Mrv171c012251910582D          

  6  5  0  0  0  0            999 V2000
    2.5114   -1.8472    0.0000 O   0  0  0  0  0  0  0  0  0  0  0  0
    2.0989   -1.1327    0.0000 N   0  3  0  0  0  0  0  0  0  0  0  0
    2.5114   -0.4182    0.0000 O   0  5  0  0  0  0  0  0  0  0  0  0
    1.2739   -1.1327    0.0000 C   0  0  0  0  0  0  0  0  0  0  0  0
    0.8614   -0.4182    0.0000 C   0  0  0  0  0  0  0  0  0  0  0  0
    0.0364   -0.4182    0.0000 C   0  0  0  0  0  0  0  0  0  0  0  0
  1  2  2  0  0  0  0
  2  3  1  0  0  0  0
  2  4  1  0  0  0  0
  4  5  1  0  0  0  0
  5  6  1  0  0  0  0
M  CHG  2   2   1   3  -1
M  END
> <ChemID>
100086

> <CAS>
108-03-2

> <Original_SMILES>
CCC[N+]([O-])=O

> <preferred_name>
1-Nitropropane

> <dsstox_substance_id>
DTXSID1020980

> <dsstox_compound_id>
DTXCID50980

> <qc_level>
DSSTox_Low

> <Canonical_QSARr>
CCC[N+]([O-])=O

> <InChI_Code_QSARr>
InChI=1S/C3H7NO2/c1-2-3-4(5)6/h2-3H2,1H3

> <InChI Key_QSARr>
JSZOAYXJRCEYSX-UHFFFAOYSA-N

> <Salt_Solvent>


> <Salt_Solvent_ID>
0

> <MPID>
18900

> <LogKOA_Ref>
Abraham,MH et al. (2001)

> <LogKOA>
3.25

> <Tr_1_Tst_0>
1

$$$$
100087
  Mrv171c012251910582D          

  7  6  0  0  0  0            999 V2000
    1.9012    0.6622    0.0000 C   0  0  0  0  0  0  0  0  0  0  0  0
    1.4887   -0.0523    0.0000 C   0  0  0  0  0  0  0  0  0  0  0  0
    1.9012   -0.7668    0.0000 O   0  0  0  0  0  0  0  0  0  0  0  0
    1.4887   -1.4812    0.0000 C   0  0  0  0  0  0  0  0  0  0  0  0
    1.9012   -2.1957    0.0000 C   0  0  0  0  0  0  0  0  0  0  0  0
    0.6637   -1.4812    0.0000 C   0  0  0  0  0  0  0  0  0  0  0  0
    0.6637   -0.0523    0.0000 C   0  0  0  0  0  0  0  0  0  0  0  0
  1  2  1  0  0  0  0
  2  3  1  0  0  0  0
  3  4  1  0  0  0  0
  4  5  1  0  0  0  0
  4  6  1  0  0  0  0
  2  7  1  0  0  0  0
M  END
> <ChemID>
100087

> <CAS>
108-20-3

> <Original_SMILES>
CC(C)OC(C)C

> <preferred_name>
Isopropyl ether

> <dsstox_substance_id>
DTXSID4021890

> <dsstox_compound_id>
DTXCID401890

> <qc_level>
DSSTox_Low

> <Canonical_QSARr>
CC(C)OC(C)C

> <InChI_Code_QSARr>
InChI=1S/C6H14O/c1-5(2)7-6(3)4/h5-6H,1-4H3

> <InChI Key_QSARr>
ZAFNJMIOTHYJRJ-UHFFFAOYSA-N

> <Salt_Solvent>


> <Salt_Solvent_ID>
0

> <MPID>
18901

> <LogKOA_Ref>
Abraham,MH et al. (2001)

> <LogKOA>
2.66

> <Tr_1_Tst_0>
1

$$$$
100088
  Mrv171c012251910582D          

  7  6  0  0  0  0            999 V2000
    1.9012   -0.7668    0.0000 O   0  0  0  0  0  0  0  0  0  0  0  0
    1.4887   -0.0523    0.0000 C   0  0  0  0  0  0  0  0  0  0  0  0
    1.9012    0.6622    0.0000 O   0  0  0  0  0  0  0  0  0  0  0  0
    0.6637   -0.0523    0.0000 C   0  0  0  0  0  0  0  0  0  0  0  0
    1.4887   -1.4813    0.0000 C   0  0  0  0  0  0  0  0  0  0  0  0
    1.9012   -2.1957    0.0000 C   0  0  0  0  0  0  0  0  0  0  0  0
    0.6637   -1.4813    0.0000 C   0  0  0  0  0  0  0  0  0  0  0  0
  1  2  1  0  0  0  0
  2  3  2  0  0  0  0
  2  4  1  0  0  0  0
  1  5  1  0  0  0  0
  5  6  1  0  0  0  0
  5  7  1  0  0  0  0
M  END
> <ChemID>
100088

> <CAS>
108-21-4

> <Original_SMILES>
CC(C)OC(C)=O

> <preferred_name>
Isopropyl acetate

> <dsstox_substance_id>
DTXSID2025478

> <dsstox_compound_id>
DTXCID605478

> <qc_level>
DSSTox_Low

> <Canonical_QSARr>
CC(C)OC(C)=O

> <InChI_Code_QSARr>
InChI=1S/C5H10O2/c1-4(2)7-5(3)6/h4H,1-3H3

> <InChI Key_QSARr>
JMMWKPVZQRWMSS-UHFFFAOYSA-N

> <Salt_Solvent>


> <Salt_Solvent_ID>
0

> <MPID>
18902

> <LogKOA_Ref>
Abraham,MH et al. (2001)

> <LogKOA>
2.93

> <Tr_1_Tst_0>
1

$$$$
100089
  Mrv171c012251910582D          

  8  8  0  0  0  0            999 V2000
    1.7055   -3.2018    0.0000 C   0  0  0  0  0  0  0  0  0  0  0  0
    2.4199   -2.7893    0.0000 C   0  0  0  0  0  0  0  0  0  0  0  0
    2.4199   -1.9643    0.0000 C   0  0  0  0  0  0  0  0  0  0  0  0
    1.7055   -1.5518    0.0000 C   0  0  0  0  0  0  0  0  0  0  0  0
    1.7055   -0.7268    0.0000 C   0  0  0  0  0  0  0  0  0  0  0  0
    0.9910   -1.9643    0.0000 C   0  0  0  0  0  0  0  0  0  0  0  0
    0.9910   -2.7893    0.0000 C   0  0  0  0  0  0  0  0  0  0  0  0
    0.2765   -3.2018    0.0000 C   0  0  0  0  0  0  0  0  0  0  0  0
  2  1  2  0  0  0  0
  3  2  1  0  0  0  0
  4  3  2  0  0  0  0
  4  5  1  0  0  0  0
  6  4  1  0  0  0  0
  7  6  2  0  0  0  0
  1  7  1  0  0  0  0
  7  8  1  0  0  0  0
M  END
> <ChemID>
100089

> <CAS>
108-38-3

> <Original_SMILES>
Cc1cc(C)ccc1

> <preferred_name>
m-Xylene

> <dsstox_substance_id>
DTXSID6026298

> <dsstox_compound_id>
DTXCID501446

> <qc_level>
DSSTox_Low

> <Canonical_QSARr>
CC1=CC(C)=CC=C1

> <InChI_Code_QSARr>
InChI=1S/C8H10/c1-7-4-3-5-8(2)6-7/h3-6H,1-2H3

> <InChI Key_QSARr>
IVSZLXZYQVIEFR-UHFFFAOYSA-N

> <Salt_Solvent>


> <Salt_Solvent_ID>
0

> <MPID>
18903

> <LogKOA_Ref>
Gruber,D et al. (1997)

> <LogKOA>
3.78

> <Tr_1_Tst_0>
0

$$$$
100090
  Mrv171c012251910582D          

  9  9  0  0  0  0            999 V2000
    2.3656   -1.8422    0.0000 C   0  0  0  0  0  0  0  0  0  0  0  0
    3.0801   -2.2547    0.0000 Cl  0  0  0  0  0  0  0  0  0  0  0  0
    2.3656   -1.0172    0.0000 C   0  0  0  0  0  0  0  0  0  0  0  0
    1.6512   -0.6047    0.0000 C   0  0  0  0  0  0  0  0  0  0  0  0
    1.6512    0.2203    0.0000 Cl  0  0  0  0  0  0  0  0  0  0  0  0
    0.9367   -1.0172    0.0000 C   0  0  0  0  0  0  0  0  0  0  0  0
    0.9367   -1.8422    0.0000 C   0  0  0  0  0  0  0  0  0  0  0  0
    0.2222   -2.2547    0.0000 Cl  0  0  0  0  0  0  0  0  0  0  0  0
    1.6512   -2.2547    0.0000 C   0  0  0  0  0  0  0  0  0  0  0  0
  1  2  1  0  0  0  0
  3  1  1  0  0  0  0
  4  3  2  0  0  0  0
  4  5  1  0  0  0  0
  6  4  1  0  0  0  0
  7  6  2  0  0  0  0
  7  8  1  0  0  0  0
  9  7  1  0  0  0  0
  1  9  2  0  0  0  0
M  END
> <ChemID>
100090

> <CAS>
108-70-3

> <Original_SMILES>
Clc1cc(Cl)cc(Cl)c1

> <preferred_name>
1,3,5-Trichlorobenzene

> <dsstox_substance_id>
DTXSID8026195

> <dsstox_compound_id>
DTXCID506195

> <qc_level>
DSSTox_High

> <Canonical_QSARr>
ClC1C=C(Cl)C=C(Cl)C=1

> <InChI_Code_QSARr>
InChI=1S/C6H3Cl3/c7-4-1-5(8)3-6(9)2-4/h1-3H

> <InChI Key_QSARr>
XKEFYDZQGKAQCN-UHFFFAOYSA-N

> <Salt_Solvent>


> <Salt_Solvent_ID>
0

> <MPID>
18904

> <LogKOA_Ref>
Abraham,MH et al. (2001)

> <LogKOA>
4.85

> <Tr_1_Tst_0>
1

$$$$
100091
  Mrv171c012251910582D          

  7  7  0  0  0  0            999 V2000
    1.4305   -1.2414    0.0000 C   0  0  0  0  0  0  0  0  0  0  0  0
    0.7160   -0.8289    0.0000 C   0  0  0  0  0  0  0  0  0  0  0  0
    0.7160   -0.0039    0.0000 C   0  0  0  0  0  0  0  0  0  0  0  0
    0.0015   -1.2414    0.0000 C   0  0  0  0  0  0  0  0  0  0  0  0
    0.0015   -2.0664    0.0000 C   0  0  0  0  0  0  0  0  0  0  0  0
    0.7160   -2.4789    0.0000 C   0  0  0  0  0  0  0  0  0  0  0  0
    1.4305   -2.0664    0.0000 C   0  0  0  0  0  0  0  0  0  0  0  0
  2  1  1  0  0  0  0
  2  3  1  0  0  0  0
  4  2  1  0  0  0  0
  5  4  1  0  0  0  0
  6  5  1  0  0  0  0
  7  6  1  0  0  0  0
  1  7  1  0  0  0  0
M  END
> <ChemID>
100091

> <CAS>
108-87-2

> <Original_SMILES>
CC1CCCCC1

> <preferred_name>
Methylcyclohexane

> <dsstox_substance_id>
DTXSID0047749

> <dsstox_compound_id>
DTXCID4027733

> <qc_level>
DSSTox_Low

> <Canonical_QSARr>
CC1CCCCC1

> <InChI_Code_QSARr>
InChI=1S/C7H14/c1-7-5-3-2-4-6-7/h7H,2-6H2,1H3

> <InChI Key_QSARr>
UAEPNZWRGJTJPN-UHFFFAOYSA-N

> <Salt_Solvent>


> <Salt_Solvent_ID>
0

> <MPID>
18905

> <LogKOA_Ref>
Gruber,D et al. (1997)

> <LogKOA>
3.03

> <Tr_1_Tst_0>
1

$$$$
100092
  Mrv171c012251910582D          

  7  7  0  0  0  0            999 V2000
    1.4153    0.7000    0.0000 C   0  0  0  0  0  0  0  0  0  0  0  0
    1.4153   -0.1250    0.0000 C   0  0  0  0  0  0  0  0  0  0  0  0
    0.7009   -0.5375    0.0000 C   0  0  0  0  0  0  0  0  0  0  0  0
    0.7009   -1.3625    0.0000 C   0  0  0  0  0  0  0  0  0  0  0  0
    1.4153   -1.7750    0.0000 C   0  0  0  0  0  0  0  0  0  0  0  0
    2.1298   -1.3625    0.0000 C   0  0  0  0  0  0  0  0  0  0  0  0
    2.1298   -0.5375    0.0000 C   0  0  0  0  0  0  0  0  0  0  0  0
  1  2  1  0  0  0  0
  3  2  1  0  0  0  0
  4  3  2  0  0  0  0
  5  4  1  0  0  0  0
  6  5  2  0  0  0  0
  7  6  1  0  0  0  0
  2  7  2  0  0  0  0
M  END
> <ChemID>
100092

> <CAS>
108-88-3

> <Original_SMILES>
Cc1ccccc1

> <preferred_name>
Toluene

> <dsstox_substance_id>
DTXSID7021360

> <dsstox_compound_id>
DTXCID501360

> <qc_level>
DSSTox_Low

> <Canonical_QSARr>
CC1C=CC=CC=1

> <InChI_Code_QSARr>
InChI=1S/C7H8/c1-7-5-3-2-4-6-7/h2-6H,1H3

> <InChI Key_QSARr>
YXFVVABEGXRONW-UHFFFAOYSA-N

> <Salt_Solvent>


> <Salt_Solvent_ID>
0

> <MPID>
18906

> <LogKOA_Ref>
Gruber,D et al. (1997)

> <LogKOA>
3.31

> <Tr_1_Tst_0>
1

$$$$
100093
  Mrv171c012251910582D          

  7  7  0  0  0  0            999 V2000
    1.4153    0.7000    0.0000 Cl  0  0  0  0  0  0  0  0  0  0  0  0
    1.4153   -0.1250    0.0000 C   0  0  0  0  0  0  0  0  0  0  0  0
    0.7009   -0.5375    0.0000 C   0  0  0  0  0  0  0  0  0  0  0  0
    0.7009   -1.3625    0.0000 C   0  0  0  0  0  0  0  0  0  0  0  0
    1.4153   -1.7750    0.0000 C   0  0  0  0  0  0  0  0  0  0  0  0
    2.1298   -1.3625    0.0000 C   0  0  0  0  0  0  0  0  0  0  0  0
    2.1298   -0.5375    0.0000 C   0  0  0  0  0  0  0  0  0  0  0  0
  1  2  1  0  0  0  0
  3  2  1  0  0  0  0
  4  3  2  0  0  0  0
  5  4  1  0  0  0  0
  6  5  2  0  0  0  0
  7  6  1  0  0  0  0
  2  7  2  0  0  0  0
M  END
> <ChemID>
100093

> <CAS>
108-90-7

> <Original_SMILES>
Clc1ccccc1

> <preferred_name>
Chlorobenzene

> <dsstox_substance_id>
DTXSID4020298

> <dsstox_compound_id>
DTXCID40298

> <qc_level>
DSSTox_Low

> <Canonical_QSARr>
ClC1C=CC=CC=1

> <InChI_Code_QSARr>
InChI=1S/C6H5Cl/c7-6-4-2-1-3-5-6/h1-5H

> <InChI Key_QSARr>
MVPPADPHJFYWMZ-UHFFFAOYSA-N

> <Salt_Solvent>


> <Salt_Solvent_ID>
0

> <MPID>
18907

> <LogKOA_Ref>
Su,Y et al. (2002)

> <LogKOA>
3.31

> <Tr_1_Tst_0>
0

$$$$
100094
  Mrv171c012251910582D          

  7  7  0  0  0  0            999 V2000
    2.1298   -0.5375    0.0000 C   0  0  0  0  0  0  0  0  0  0  0  0
    1.4153   -0.1250    0.0000 C   0  0  0  0  0  0  0  0  0  0  0  0
    1.4153    0.7000    0.0000 O   0  0  0  0  0  0  0  0  0  0  0  0
    0.7009   -0.5375    0.0000 C   0  0  0  0  0  0  0  0  0  0  0  0
    0.7009   -1.3625    0.0000 C   0  0  0  0  0  0  0  0  0  0  0  0
    1.4153   -1.7750    0.0000 C   0  0  0  0  0  0  0  0  0  0  0  0
    2.1298   -1.3625    0.0000 C   0  0  0  0  0  0  0  0  0  0  0  0
  2  1  1  0  0  0  0
  2  3  1  0  0  0  0
  4  2  1  0  0  0  0
  5  4  1  0  0  0  0
  6  5  1  0  0  0  0
  7  6  1  0  0  0  0
  1  7  1  0  0  0  0
M  END
> <ChemID>
100094

> <CAS>
108-93-0

> <Original_SMILES>
OC1CCCCC1

> <preferred_name>
Cyclohexanol

> <dsstox_substance_id>
DTXSID4021894

> <dsstox_compound_id>
DTXCID001894

> <qc_level>
DSSTox_Low

> <Canonical_QSARr>
OC1CCCCC1

> <InChI_Code_QSARr>
InChI=1S/C6H12O/c7-6-4-2-1-3-5-6/h6-7H,1-5H2

> <InChI Key_QSARr>
HPXRVTGHNJAIIH-UHFFFAOYSA-N

> <Salt_Solvent>


> <Salt_Solvent_ID>
0

> <MPID>
18908

> <LogKOA_Ref>
Abraham,MH et al. (2001)

> <LogKOA>
5.18

> <Tr_1_Tst_0>
1

$$$$
100095
  Mrv171c012251910582D          

  7  6  0  0  0  0            999 V2000
    0.3083   -1.2379    0.0000 C   0  0  0  0  0  0  0  0  0  0  0  0
    1.0228   -0.8254    0.0000 C   0  0  0  0  0  0  0  0  0  0  0  0
    1.7373   -1.2379    0.0000 O   0  0  0  0  0  0  0  0  0  0  0  0
    2.4517   -0.8254    0.0000 C   0  0  0  0  0  0  0  0  0  0  0  0
    3.1662   -1.2379    0.0000 C   0  0  0  0  0  0  0  0  0  0  0  0
    3.8807   -0.8254    0.0000 C   0  0  0  0  0  0  0  0  0  0  0  0
    1.0228   -0.0004    0.0000 O   0  0  0  0  0  0  0  0  0  0  0  0
  1  2  1  0  0  0  0
  2  3  1  0  0  0  0
  3  4  1  0  0  0  0
  4  5  1  0  0  0  0
  5  6  1  0  0  0  0
  2  7  2  0  0  0  0
M  END
> <ChemID>
100095

> <CAS>
109-60-4

> <Original_SMILES>
CCCOC(C)=O

> <preferred_name>
Propyl acetate

> <dsstox_substance_id>
DTXSID6021901

> <dsstox_compound_id>
DTXCID301901

> <qc_level>
DSSTox_Low

> <Canonical_QSARr>
CCCOC(C)=O

> <InChI_Code_QSARr>
InChI=1S/C5H10O2/c1-3-4-7-5(2)6/h3-4H2,1-2H3

> <InChI Key_QSARr>
YKYONYBAUNKHLG-UHFFFAOYSA-N

> <Salt_Solvent>


> <Salt_Solvent_ID>
0

> <MPID>
18909

> <LogKOA_Ref>
Abraham,MH et al. (2001)

> <LogKOA>
3.17

> <Tr_1_Tst_0>
1

$$$$
100096
  Mrv171c012251910582D          

  5  4  0  0  0  0            999 V2000
    2.1723   -0.3899    0.0000 C   0  0  0  0  0  0  0  0  0  0  0  0
    2.5848   -1.1044    0.0000 C   0  0  0  0  0  0  0  0  0  0  0  0
    1.3473   -0.3899    0.0000 C   0  0  0  0  0  0  0  0  0  0  0  0
    0.9348    0.3245    0.0000 C   0  0  0  0  0  0  0  0  0  0  0  0
    0.1098    0.3245    0.0000 C   0  0  0  0  0  0  0  0  0  0  0  0
  1  2  1  0  0  0  0
  1  3  1  0  0  0  0
  3  4  1  0  0  0  0
  4  5  1  0  0  0  0
M  END
> <ChemID>
100096

> <CAS>
109-66-0

> <Original_SMILES>
CCCCC

> <preferred_name>
Pentane

> <dsstox_substance_id>
DTXSID2025846

> <dsstox_compound_id>
DTXCID705846

> <qc_level>
DSSTox_Low

> <Canonical_QSARr>
CCCCC

> <InChI_Code_QSARr>
InChI=1S/C5H12/c1-3-5-4-2/h3-5H2,1-2H3

> <InChI Key_QSARr>
OFBQJSOFQDEBGM-UHFFFAOYSA-N

> <Salt_Solvent>


> <Salt_Solvent_ID>
0

> <MPID>
18910

> <LogKOA_Ref>
Gruber,D et al. (1997)

> <LogKOA>
1.96

> <Tr_1_Tst_0>
1

$$$$
100097
  Mrv171c012251910582D          

  5  4  0  0  0  0            999 V2000
    0.9348    0.3245    0.0000 C   0  0  0  0  0  0  0  0  0  0  0  0
    1.3473   -0.3899    0.0000 C   0  0  0  0  0  0  0  0  0  0  0  0
    2.1723   -0.3899    0.0000 C   0  0  0  0  0  0  0  0  0  0  0  0
    2.5848   -1.1044    0.0000 C   0  0  0  0  0  0  0  0  0  0  0  0
    0.1098    0.3245    0.0000 C   0  0  0  0  0  0  0  0  0  0  0  0
  1  2  1  0  0  0  0
  2  3  1  0  0  0  0
  3  4  1  0  0  0  0
  1  5  2  0  0  0  0
M  END
> <ChemID>
100097

> <CAS>
109-67-1

> <Original_SMILES>
CCCC=C

> <preferred_name>
1-Pentene

> <dsstox_substance_id>
DTXSID7025849

> <dsstox_compound_id>
DTXCID905849

> <qc_level>
DSSTox_High

> <Canonical_QSARr>
CCCC=C

> <InChI_Code_QSARr>
InChI=1S/C5H10/c1-3-5-4-2/h3H,1,4-5H2,2H3

> <InChI Key_QSARr>
YWAKXRMUMFPDSH-UHFFFAOYSA-N

> <Salt_Solvent>


> <Salt_Solvent_ID>
0

> <MPID>
18911

> <LogKOA_Ref>
Gruber,D et al. (1997)

> <LogKOA>
1.93

> <Tr_1_Tst_0>
0

$$$$
100098
  Mrv171c012251910582D          

  5  4  0  0  0  0            999 V2000
    2.5848   -1.1044    0.0000 C   0  0  0  0  0  0  0  0  0  0  0  0
    2.1723   -0.3899    0.0000 C   0  0  0  0  0  0  0  0  0  0  0  0
    1.3473   -0.3899    0.0000 C   0  0  0  0  0  0  0  0  0  0  0  0
    0.9348    0.3245    0.0000 C   0  0  0  0  0  0  0  0  0  0  0  0
    0.1098    0.3245    0.0000 Cl  0  0  0  0  0  0  0  0  0  0  0  0
  1  2  1  0  0  0  0
  2  3  1  0  0  0  0
  3  4  1  0  0  0  0
  4  5  1  0  0  0  0
M  END
> <ChemID>
100098

> <CAS>
109-69-3

> <Original_SMILES>
CCCCCl

> <preferred_name>
1-Chlorobutane

> <dsstox_substance_id>
DTXSID8020206

> <dsstox_compound_id>
DTXCID00206

> <qc_level>
DSSTox_Low

> <Canonical_QSARr>
CCCCCl

> <InChI_Code_QSARr>
InChI=1S/C4H9Cl/c1-2-3-4-5/h2-4H2,1H3

> <InChI Key_QSARr>
VFWCMGCRMGJXDK-UHFFFAOYSA-N

> <Salt_Solvent>


> <Salt_Solvent_ID>
0

> <MPID>
18912

> <LogKOA_Ref>
Abraham,MH et al. (2001)

> <LogKOA>
2.72

> <Tr_1_Tst_0>
1

$$$$
100099
  Mrv171c012251910582D          

  5  4  0  0  0  0            999 V2000
    2.5848   -1.1044    0.0000 C   0  0  0  0  0  0  0  0  0  0  0  0
    2.1723   -0.3899    0.0000 C   0  0  0  0  0  0  0  0  0  0  0  0
    1.3473   -0.3899    0.0000 C   0  0  0  0  0  0  0  0  0  0  0  0
    0.9348    0.3245    0.0000 C   0  0  0  0  0  0  0  0  0  0  0  0
    0.1098    0.3245    0.0000 N   0  0  0  0  0  0  0  0  0  0  0  0
  1  2  1  0  0  0  0
  2  3  1  0  0  0  0
  3  4  1  0  0  0  0
  4  5  1  0  0  0  0
M  END
> <ChemID>
100099

> <CAS>
109-73-9

> <Original_SMILES>
CCCCN

> <preferred_name>
Butylamine

> <dsstox_substance_id>
DTXSID1021904

> <dsstox_compound_id>
DTXCID501904

> <qc_level>
DSSTox_High

> <Canonical_QSARr>
CCCCN

> <InChI_Code_QSARr>
InChI=1S/C4H11N/c1-2-3-4-5/h2-5H2,1H3

> <InChI Key_QSARr>
HQABUPZFAYXKJW-UHFFFAOYSA-N

> <Salt_Solvent>


> <Salt_Solvent_ID>
0

> <MPID>
18913

> <LogKOA_Ref>
Abraham,MH et al. (2001)

> <LogKOA>
3.61

> <Tr_1_Tst_0>
1

$$$$
100100
  Mrv171c012251910582D          

  5  4  0  0  0  0            999 V2000
    2.1438   -0.5685    0.0000 C   0  0  0  0  0  0  0  0  0  0  0  0
    2.9688   -0.5685    0.0000 N   0  0  0  0  0  0  0  0  0  0  0  0
    1.3188   -0.5685    0.0000 C   0  0  0  0  0  0  0  0  0  0  0  0
    0.9063    0.1460    0.0000 C   0  0  0  0  0  0  0  0  0  0  0  0
    0.0813    0.1460    0.0000 C   0  0  0  0  0  0  0  0  0  0  0  0
  1  2  3  0  0  0  0
  1  3  1  0  0  0  0
  3  4  1  0  0  0  0
  4  5  1  0  0  0  0
M  END
> <ChemID>
100100

> <CAS>
109-74-0

> <Original_SMILES>
CCCC#N

> <preferred_name>
Butanenitrile

> <dsstox_substance_id>
DTXSID1026823

> <dsstox_compound_id>
DTXCID006823

> <qc_level>
DSSTox_Low

> <Canonical_QSARr>
CCCC#N

> <InChI_Code_QSARr>
InChI=1S/C4H7N/c1-2-3-4-5/h2-3H2,1H3

> <InChI Key_QSARr>
KVNRLNFWIYMESJ-UHFFFAOYSA-N

> <Salt_Solvent>


> <Salt_Solvent_ID>
0

> <MPID>
18914

> <LogKOA_Ref>
Abraham,MH et al. (2001)

> <LogKOA>
3.12

> <Tr_1_Tst_0>
1

$$$$
100101
  Mrv171c012251910582D          

  5  4  0  0  0  0            999 V2000
    0.9349    0.3245    0.0000 C   0  0  0  0  0  0  0  0  0  0  0  0
    1.3474   -0.3900    0.0000 O   0  0  0  0  0  0  0  0  0  0  0  0
    2.1724   -0.3900    0.0000 C   0  0  0  0  0  0  0  0  0  0  0  0
    2.5849   -1.1045    0.0000 C   0  0  0  0  0  0  0  0  0  0  0  0
    0.1099    0.3245    0.0000 O   0  0  0  0  0  0  0  0  0  0  0  0
  1  2  1  0  0  0  0
  2  3  1  0  0  0  0
  3  4  1  0  0  0  0
  1  5  2  0  0  0  0
M  END
> <ChemID>
100101

> <CAS>
109-94-4

> <Original_SMILES>
CCOC=O

> <preferred_name>
Ethyl formate

> <dsstox_substance_id>
DTXSID6040117

> <dsstox_compound_id>
DTXCID4020117

> <qc_level>
DSSTox_Low

> <Canonical_QSARr>
CCOC=O

> <InChI_Code_QSARr>
InChI=1S/C3H6O2/c1-2-5-3-4/h3H,2H2,1H3

> <InChI Key_QSARr>
WBJINCZRORDGAQ-UHFFFAOYSA-N

> <Salt_Solvent>


> <Salt_Solvent_ID>
0

> <MPID>
18915

> <LogKOA_Ref>
Abraham,MH et al. (2001)

> <LogKOA>
2.19

> <Tr_1_Tst_0>
0

$$$$
100102
  Mrv171c012251910582D          

  5  5  0  0  0  0            999 V2000
    1.3286   -0.4612    0.0000 O   0  0  0  0  0  0  0  0  0  0  0  0
    0.6612    0.0237    0.0000 C   0  0  0  0  0  0  0  0  0  0  0  0
   -0.0062   -0.4612    0.0000 C   0  0  0  0  0  0  0  0  0  0  0  0
    0.2487   -1.2458    0.0000 C   0  0  0  0  0  0  0  0  0  0  0  0
    1.0737   -1.2458    0.0000 C   0  0  0  0  0  0  0  0  0  0  0  0
  2  1  1  0  0  0  0
  3  2  1  0  0  0  0
  4  3  1  0  0  0  0
  5  4  1  0  0  0  0
  1  5  1  0  0  0  0
M  END
> <ChemID>
100102

> <CAS>
109-99-9

> <Original_SMILES>
C1CCCO1

> <preferred_name>
Tetrahydrofuran

> <dsstox_substance_id>
DTXSID1021328

> <dsstox_compound_id>
DTXCID501328

> <qc_level>
DSSTox_Low

> <Canonical_QSARr>
C1CCCO1

> <InChI_Code_QSARr>
InChI=1S/C4H8O/c1-2-4-5-3-1/h1-4H2

> <InChI Key_QSARr>
WYURNTSHIVDZCO-UHFFFAOYSA-N

> <Salt_Solvent>


> <Salt_Solvent_ID>
0

> <MPID>
18916

> <LogKOA_Ref>
Abraham,MH et al. (2001)

> <LogKOA>
2.86

> <Tr_1_Tst_0>
1

$$$$
100103
  Mrv171c012251910582D          

  8  7  0  0  0  0            999 V2000
    0.7125   -0.8250    0.0000 C   0  0  0  0  0  0  0  0  0  0  0  0
   -0.0020   -1.2375    0.0000 C   0  0  0  0  0  0  0  0  0  0  0  0
    1.4270   -1.2375    0.0000 O   0  0  0  0  0  0  0  0  0  0  0  0
    2.1415   -0.8250    0.0000 C   0  0  0  0  0  0  0  0  0  0  0  0
    2.8559   -1.2375    0.0000 C   0  0  0  0  0  0  0  0  0  0  0  0
    3.5704   -0.8250    0.0000 C   0  0  0  0  0  0  0  0  0  0  0  0
    2.8559   -2.0625    0.0000 C   0  0  0  0  0  0  0  0  0  0  0  0
    0.7125   -0.0000    0.0000 O   0  0  0  0  0  0  0  0  0  0  0  0
  1  2  1  0  0  0  0
  1  3  1  0  0  0  0
  3  4  1  0  0  0  0
  4  5  1  0  0  0  0
  5  6  1  0  0  0  0
  5  7  1  0  0  0  0
  1  8  2  0  0  0  0
M  END
> <ChemID>
100103

> <CAS>
110-19-0

> <Original_SMILES>
CC(C)COC(C)=O

> <preferred_name>
Isobutyl acetate

> <dsstox_substance_id>
DTXSID5026837

> <dsstox_compound_id>
DTXCID906837

> <qc_level>
DSSTox_Low

> <Canonical_QSARr>
CC(C)COC(C)=O

> <InChI_Code_QSARr>
InChI=1S/C6H12O2/c1-5(2)4-8-6(3)7/h5H,4H2,1-3H3

> <InChI Key_QSARr>
GJRQTCIYDGXPES-UHFFFAOYSA-N

> <Salt_Solvent>


> <Salt_Solvent_ID>
0

> <MPID>
18917

> <LogKOA_Ref>
Abraham,MH et al. (2001)

> <LogKOA>
3.45

> <Tr_1_Tst_0>
1

$$$$
100104
  Mrv171c012251910582D          

  8  7  0  0  0  0            999 V2000
   -0.0022   -0.6195    0.0000 C   0  0  0  0  0  0  0  0  0  0  0  0
    0.7122   -1.0320    0.0000 C   0  0  0  0  0  0  0  0  0  0  0  0
    1.4267   -0.6195    0.0000 C   0  0  0  0  0  0  0  0  0  0  0  0
    2.1412   -1.0320    0.0000 C   0  0  0  0  0  0  0  0  0  0  0  0
    2.8556   -0.6195    0.0000 C   0  0  0  0  0  0  0  0  0  0  0  0
    3.5701   -1.0320    0.0000 C   0  0  0  0  0  0  0  0  0  0  0  0
    4.2846   -0.6195    0.0000 C   0  0  0  0  0  0  0  0  0  0  0  0
    3.5701   -1.8570    0.0000 O   0  0  0  0  0  0  0  0  0  0  0  0
  1  2  1  0  0  0  0
  2  3  1  0  0  0  0
  3  4  1  0  0  0  0
  4  5  1  0  0  0  0
  5  6  1  0  0  0  0
  6  7  1  0  0  0  0
  6  8  2  0  0  0  0
M  END
> <ChemID>
100104

> <CAS>
110-43-0

> <Original_SMILES>
CCCCCC(C)=O

> <preferred_name>
2-Heptanone

> <dsstox_substance_id>
DTXSID5021916

> <dsstox_compound_id>
DTXCID601916

> <qc_level>
DSSTox_Low

> <Canonical_QSARr>
CCCCCC(C)=O

> <InChI_Code_QSARr>
InChI=1S/C7H14O/c1-3-4-5-6-7(2)8/h3-6H2,1-2H3

> <InChI Key_QSARr>
CATSNJVOTSVZJV-UHFFFAOYSA-N

> <Salt_Solvent>


> <Salt_Solvent_ID>
0

> <MPID>
18918

> <LogKOA_Ref>
Abraham,MH et al. (2001)

> <LogKOA>
4.15

> <Tr_1_Tst_0>
1

$$$$
100105
  Mrv171c012251910582D          

  6  5  0  0  0  0            999 V2000
    0.0018   -0.4119    0.0000 C   0  0  0  0  0  0  0  0  0  0  0  0
    0.7163    0.0006    0.0000 C   0  0  0  0  0  0  0  0  0  0  0  0
    1.4307   -0.4119    0.0000 C   0  0  0  0  0  0  0  0  0  0  0  0
    2.1452    0.0006    0.0000 C   0  0  0  0  0  0  0  0  0  0  0  0
    2.8597   -0.4119    0.0000 C   0  0  0  0  0  0  0  0  0  0  0  0
    3.5741    0.0006    0.0000 C   0  0  0  0  0  0  0  0  0  0  0  0
  1  2  1  0  0  0  0
  2  3  1  0  0  0  0
  3  4  1  0  0  0  0
  4  5  1  0  0  0  0
  5  6  1  0  0  0  0
M  END
> <ChemID>
100105

> <CAS>
110-54-3

> <Original_SMILES>
CCCCCC

> <preferred_name>
Hexane

> <dsstox_substance_id>
DTXSID0021917

> <dsstox_compound_id>
DTXCID001917

> <qc_level>
DSSTox_Low

> <Canonical_QSARr>
CCCCCC

> <InChI_Code_QSARr>
InChI=1S/C6H14/c1-3-5-6-4-2/h3-6H2,1-2H3

> <InChI Key_QSARr>
VLKZOEOYAKHREP-UHFFFAOYSA-N

> <Salt_Solvent>


> <Salt_Solvent_ID>
0

> <MPID>
18919

> <LogKOA_Ref>
Gruber,D et al. (1997)

> <LogKOA>
2.4

> <Tr_1_Tst_0>
0

$$$$
100106
  Mrv171c012251910582D          

  6  5  0  0  0  0            999 V2000
    0.0018   -0.0015    0.0000 N   0  0  0  0  0  0  0  0  0  0  0  0
    0.7163   -0.4140    0.0000 C   0  0  0  0  0  0  0  0  0  0  0  0
    1.4308   -0.8265    0.0000 C   0  0  0  0  0  0  0  0  0  0  0  0
    2.1453   -0.4140    0.0000 C   0  0  0  0  0  0  0  0  0  0  0  0
    2.8597   -0.8265    0.0000 C   0  0  0  0  0  0  0  0  0  0  0  0
    3.5742   -0.4140    0.0000 C   0  0  0  0  0  0  0  0  0  0  0  0
  1  2  3  0  0  0  0
  2  3  1  0  0  0  0
  3  4  1  0  0  0  0
  4  5  1  0  0  0  0
  5  6  1  0  0  0  0
M  END
> <ChemID>
100106

> <CAS>
110-59-8

> <Original_SMILES>
CCCCC#N

> <preferred_name>
Valeronitrile

> <dsstox_substance_id>
DTXSID3026275

> <dsstox_compound_id>
DTXCID106275

> <qc_level>
DSSTox_Low

> <Canonical_QSARr>
CCCCC#N

> <InChI_Code_QSARr>
InChI=1S/C5H9N/c1-2-3-4-5-6/h2-4H2,1H3

> <InChI Key_QSARr>
RFFFKMOABOFIDF-UHFFFAOYSA-N

> <Salt_Solvent>


> <Salt_Solvent_ID>
0

> <MPID>
18920

> <LogKOA_Ref>
Abraham,MH et al. (2001)

> <LogKOA>
3.6

> <Tr_1_Tst_0>
1

$$$$
100107
  Mrv171c012251910582D          

  6  5  0  0  0  0            999 V2000
    1.2375    0.7145    0.0000 C   0  0  0  0  0  0  0  0  0  0  0  0
    0.5230    1.1270    0.0000 C   0  0  0  0  0  0  0  0  0  0  0  0
   -0.1915    0.7145    0.0000 C   0  0  0  0  0  0  0  0  0  0  0  0
    1.9519    1.1270    0.0000 O   0  0  0  0  0  0  0  0  0  0  0  0
    2.6664    0.7145    0.0000 C   0  0  0  0  0  0  0  0  0  0  0  0
    3.3809    1.1270    0.0000 O   0  0  0  0  0  0  0  0  0  0  0  0
  1  2  1  0  0  0  0
  2  3  1  0  0  0  0
  1  4  1  0  0  0  0
  4  5  1  0  0  0  0
  5  6  2  0  0  0  0
M  END
> <ChemID>
100107

> <CAS>
110-74-7

> <Original_SMILES>
CCCOC=O

> <preferred_name>
Formic acid, propyl ester

> <dsstox_substance_id>
DTXSID3059391

> <dsstox_compound_id>
DTXCID6033166

> <qc_level>
Public_High

> <Canonical_QSARr>
CCCOC=O

> <InChI_Code_QSARr>
InChI=1S/C4H8O2/c1-2-3-6-4-5/h4H,2-3H2,1H3

> <InChI Key_QSARr>
KFNNIILCVOLYIR-UHFFFAOYSA-N

> <Salt_Solvent>


> <Salt_Solvent_ID>
0

> <MPID>
18921

> <LogKOA_Ref>
Abraham,MH et al. (2001)

> <LogKOA>
2.66

> <Tr_1_Tst_0>
1

$$$$
100108
  Mrv171c012251910582D          

  6  6  0  0  0  0            999 V2000
    1.4289   -0.4125    0.0000 C   0  0  0  0  0  0  0  0  0  0  0  0
    0.7145    0.0000    0.0000 C   0  0  0  0  0  0  0  0  0  0  0  0
    0.0000   -0.4125    0.0000 C   0  0  0  0  0  0  0  0  0  0  0  0
    0.0000   -1.2375    0.0000 C   0  0  0  0  0  0  0  0  0  0  0  0
    0.7145   -1.6500    0.0000 C   0  0  0  0  0  0  0  0  0  0  0  0
    1.4289   -1.2375    0.0000 C   0  0  0  0  0  0  0  0  0  0  0  0
  2  1  1  0  0  0  0
  3  2  1  0  0  0  0
  4  3  1  0  0  0  0
  5  4  1  0  0  0  0
  6  5  1  0  0  0  0
  1  6  1  0  0  0  0
M  END
> <ChemID>
100108

> <CAS>
110-82-7

> <Original_SMILES>
C1CCCCC1

> <preferred_name>
Cyclohexane

> <dsstox_substance_id>
DTXSID4021923

> <dsstox_compound_id>
DTXCID701923

> <qc_level>
DSSTox_Low

> <Canonical_QSARr>
C1CCCCC1

> <InChI_Code_QSARr>
InChI=1S/C6H12/c1-2-4-6-5-3-1/h1-6H2

> <InChI Key_QSARr>
XDTMQSROBMDMFD-UHFFFAOYSA-N

> <Salt_Solvent>


> <Salt_Solvent_ID>
0

> <MPID>
18922

> <LogKOA_Ref>
Gruber,D et al. (1997)

> <LogKOA>
2.74

> <Tr_1_Tst_0>
1

$$$$
100109
  Mrv171c012251910582D          

  6  6  0  0  0  0            999 V2000
    1.5292   -0.2943    0.0000 C   0  0  0  0  0  0  0  0  0  0  0  0
    0.8148    0.1182    0.0000 C   0  0  0  0  0  0  0  0  0  0  0  0
    0.1003   -0.2943    0.0000 C   0  0  0  0  0  0  0  0  0  0  0  0
    0.1003   -1.1193    0.0000 C   0  0  0  0  0  0  0  0  0  0  0  0
    0.8148   -1.5318    0.0000 C   0  0  0  0  0  0  0  0  0  0  0  0
    1.5292   -1.1193    0.0000 C   0  0  0  0  0  0  0  0  0  0  0  0
  2  1  1  0  0  0  0
  3  2  1  0  0  0  0
  4  3  1  0  0  0  0
  5  4  1  0  0  0  0
  6  5  1  0  0  0  0
  1  6  2  0  0  0  0
M  END
> <ChemID>
100109

> <CAS>
110-83-8

> <Original_SMILES>
C1CCCC=C1

> <preferred_name>
Cyclohexene

> <dsstox_substance_id>
DTXSID9038717

> <dsstox_compound_id>
DTXCID7018717

> <qc_level>
DSSTox_Low

> <Canonical_QSARr>
C1CCCC=C1

> <InChI_Code_QSARr>
InChI=1S/C6H10/c1-2-4-6-5-3-1/h1-2H,3-6H2

> <InChI Key_QSARr>
HGCIXCUEYOPUTN-UHFFFAOYSA-N

> <Salt_Solvent>


> <Salt_Solvent_ID>
0

> <MPID>
18923

> <LogKOA_Ref>
Abraham,MH et al. (2001)

> <LogKOA>
2.83

> <Tr_1_Tst_0>
0

$$$$
100110
  Mrv171c012251910582D          

  6  6  0  0  0  0            999 V2000
    1.4289   -0.4125    0.0000 C   0  0  0  0  0  0  0  0  0  0  0  0
    0.7145    0.0000    0.0000 C   0  0  0  0  0  0  0  0  0  0  0  0
    0.0000   -0.4125    0.0000 C   0  0  0  0  0  0  0  0  0  0  0  0
    0.0000   -1.2375    0.0000 N   0  0  0  0  0  0  0  0  0  0  0  0
    0.7145   -1.6500    0.0000 C   0  0  0  0  0  0  0  0  0  0  0  0
    1.4289   -1.2375    0.0000 C   0  0  0  0  0  0  0  0  0  0  0  0
  2  1  1  0  0  0  0
  3  2  1  0  0  0  0
  4  3  1  0  0  0  0
  5  4  1  0  0  0  0
  6  5  1  0  0  0  0
  1  6  1  0  0  0  0
M  END
> <ChemID>
100110

> <CAS>
110-89-4

> <Original_SMILES>
C1CCCCN1

> <preferred_name>
Piperidine

> <dsstox_substance_id>
DTXSID6021165

> <dsstox_compound_id>
DTXCID101165

> <qc_level>
DSSTox_Low

> <Canonical_QSARr>
C1CCCCN1

> <InChI_Code_QSARr>
InChI=1S/C5H11N/c1-2-4-6-5-3-1/h6H,1-5H2

> <InChI Key_QSARr>
NQRYJNQNLNOLGT-UHFFFAOYSA-N

> <Salt_Solvent>


> <Salt_Solvent_ID>
0

> <MPID>
18924

> <LogKOA_Ref>
Abraham,MH et al. (2001)

> <LogKOA>
4.04

> <Tr_1_Tst_0>
1

$$$$
100111
  Mrv171c012251910582D          

  7  6  0  0  0  0            999 V2000
   -0.0018   -0.0582    0.0000 C   0  0  0  0  0  0  0  0  0  0  0  0
    0.7127   -0.4707    0.0000 C   0  0  0  0  0  0  0  0  0  0  0  0
    1.4272   -0.0582    0.0000 C   0  0  0  0  0  0  0  0  0  0  0  0
    2.1416   -0.4707    0.0000 C   0  0  0  0  0  0  0  0  0  0  0  0
    2.8561   -0.0582    0.0000 C   0  0  0  0  0  0  0  0  0  0  0  0
    3.5706   -0.4707    0.0000 C   0  0  0  0  0  0  0  0  0  0  0  0
    4.2850   -0.0582    0.0000 O   0  0  0  0  0  0  0  0  0  0  0  0
  1  2  1  0  0  0  0
  2  3  1  0  0  0  0
  3  4  1  0  0  0  0
  4  5  1  0  0  0  0
  5  6  1  0  0  0  0
  6  7  1  0  0  0  0
M  END
> <ChemID>
100111

> <CAS>
111-27-3

> <Original_SMILES>
CCCCCCO

> <preferred_name>
1-Hexanol

> <dsstox_substance_id>
DTXSID8021931

> <dsstox_compound_id>
DTXCID201931

> <qc_level>
DSSTox_Low

> <Canonical_QSARr>
CCCCCCO

> <InChI_Code_QSARr>
InChI=1S/C6H14O/c1-2-3-4-5-6-7/h7H,2-6H2,1H3

> <InChI Key_QSARr>
ZSIAUFGUXNUGDI-UHFFFAOYSA-N

> <Salt_Solvent>


> <Salt_Solvent_ID>
0

> <MPID>
18925

> <LogKOA_Ref>
Abraham,MH et al. (2001)

> <LogKOA>
5.18

> <Tr_1_Tst_0>
1

$$$$
100112
  Mrv171c012251910582D          

  7  6  0  0  0  0            999 V2000
    2.1471   -0.4105    0.0000 O   0  0  0  0  0  0  0  0  0  0  0  0
    1.4326    0.0020    0.0000 C   0  0  0  0  0  0  0  0  0  0  0  0
    0.7181   -0.4105    0.0000 C   0  0  0  0  0  0  0  0  0  0  0  0
    0.0036    0.0020    0.0000 C   0  0  0  0  0  0  0  0  0  0  0  0
    2.8615    0.0020    0.0000 C   0  0  0  0  0  0  0  0  0  0  0  0
    3.5760   -0.4105    0.0000 C   0  0  0  0  0  0  0  0  0  0  0  0
    4.2905    0.0020    0.0000 C   0  0  0  0  0  0  0  0  0  0  0  0
  1  2  1  0  0  0  0
  2  3  1  0  0  0  0
  3  4  1  0  0  0  0
  1  5  1  0  0  0  0
  5  6  1  0  0  0  0
  6  7  1  0  0  0  0
M  END
> <ChemID>
100112

> <CAS>
111-43-3

> <Original_SMILES>
CCCOCCC

> <preferred_name>
Propyl ether

> <dsstox_substance_id>
DTXSID8042343

> <dsstox_compound_id>
DTXCID6022343

> <qc_level>
DSSTox_Low

> <Canonical_QSARr>
CCCOCCC

> <InChI_Code_QSARr>
InChI=1S/C6H14O/c1-3-5-7-6-4-2/h3-6H2,1-2H3

> <InChI Key_QSARr>
POLCUAVZOMRGSN-UHFFFAOYSA-N

> <Salt_Solvent>


> <Salt_Solvent_ID>
0

> <MPID>
18926

> <LogKOA_Ref>
Abraham,MH et al. (2001)

> <LogKOA>
2.97

> <Tr_1_Tst_0>
1

$$$$
100113
  Mrv171c012251910582D          

  8  7  0  0  0  0            999 V2000
   -0.0057   -0.4133    0.0000 C   0  0  0  0  0  0  0  0  0  0  0  0
    0.7088   -0.0008    0.0000 C   0  0  0  0  0  0  0  0  0  0  0  0
    1.4233   -0.4133    0.0000 C   0  0  0  0  0  0  0  0  0  0  0  0
    2.1378   -0.0008    0.0000 C   0  0  0  0  0  0  0  0  0  0  0  0
    2.8522   -0.4133    0.0000 C   0  0  0  0  0  0  0  0  0  0  0  0
    3.5667   -0.0008    0.0000 C   0  0  0  0  0  0  0  0  0  0  0  0
    4.2812   -0.4133    0.0000 C   0  0  0  0  0  0  0  0  0  0  0  0
    4.9956   -0.0008    0.0000 C   0  0  0  0  0  0  0  0  0  0  0  0
  1  2  1  0  0  0  0
  2  3  1  0  0  0  0
  3  4  1  0  0  0  0
  4  5  1  0  0  0  0
  5  6  1  0  0  0  0
  6  7  1  0  0  0  0
  7  8  1  0  0  0  0
M  END
> <ChemID>
100113

> <CAS>
111-65-9

> <Original_SMILES>
CCCCCCCC

> <preferred_name>
Octane

> <dsstox_substance_id>
DTXSID0026882

> <dsstox_compound_id>
DTXCID406882

> <qc_level>
DSSTox_Low

> <Canonical_QSARr>
CCCCCCCC

> <InChI_Code_QSARr>
InChI=1S/C8H18/c1-3-5-7-8-6-4-2/h3-8H2,1-2H3

> <InChI Key_QSARr>
TVMXDCGIABBOFY-UHFFFAOYSA-N

> <Salt_Solvent>


> <Salt_Solvent_ID>
0

> <MPID>
18927

> <LogKOA_Ref>
Gruber,D et al. (1997)

> <LogKOA>
3.35

> <Tr_1_Tst_0>
0

$$$$
100114
  Mrv171c012251910582D          

  8  7  0  0  0  0            999 V2000
    0.0018   -0.4115    0.0000 C   0  0  0  0  0  0  0  0  0  0  0  0
    0.7163    0.0010    0.0000 C   0  0  0  0  0  0  0  0  0  0  0  0
    1.4308   -0.4115    0.0000 C   0  0  0  0  0  0  0  0  0  0  0  0
    2.1452    0.0010    0.0000 C   0  0  0  0  0  0  0  0  0  0  0  0
    2.8597   -0.4115    0.0000 C   0  0  0  0  0  0  0  0  0  0  0  0
    3.5742    0.0010    0.0000 C   0  0  0  0  0  0  0  0  0  0  0  0
    4.2887   -0.4115    0.0000 C   0  0  0  0  0  0  0  0  0  0  0  0
    5.0031    0.0010    0.0000 C   0  0  0  0  0  0  0  0  0  0  0  0
  1  2  1  0  0  0  0
  2  3  1  0  0  0  0
  3  4  1  0  0  0  0
  4  5  1  0  0  0  0
  5  6  1  0  0  0  0
  6  7  1  0  0  0  0
  7  8  2  0  0  0  0
M  END
> <ChemID>
100114

> <CAS>
111-66-0

> <Original_SMILES>
CCCCCCC=C

> <preferred_name>
1-Octene

> <dsstox_substance_id>
DTXSID6025804

> <dsstox_compound_id>
DTXCID705804

> <qc_level>
DSSTox_Low

> <Canonical_QSARr>
CCCCCCC=C

> <InChI_Code_QSARr>
InChI=1S/C8H16/c1-3-5-7-8-6-4-2/h3H,1,4-8H2,2H3

> <InChI Key_QSARr>
KWKAKUADMBZCLK-UHFFFAOYSA-N

> <Salt_Solvent>


> <Salt_Solvent_ID>
0

> <MPID>
18928

> <LogKOA_Ref>
Abraham,MH et al. (2001)

> <LogKOA>
3.35

> <Tr_1_Tst_0>
1

$$$$
100115
  Mrv171c012251910582D          

  9  8  0  0  0  0            999 V2000
    0.0017   -0.0454    0.0000 C   0  0  0  0  0  0  0  0  0  0  0  0
    0.7161   -0.4579    0.0000 C   0  0  0  0  0  0  0  0  0  0  0  0
    1.4306   -0.0454    0.0000 C   0  0  0  0  0  0  0  0  0  0  0  0
    2.1451   -0.4579    0.0000 C   0  0  0  0  0  0  0  0  0  0  0  0
    2.8595   -0.0454    0.0000 C   0  0  0  0  0  0  0  0  0  0  0  0
    3.5740   -0.4579    0.0000 C   0  0  0  0  0  0  0  0  0  0  0  0
    4.2885   -0.0454    0.0000 C   0  0  0  0  0  0  0  0  0  0  0  0
    5.0030   -0.4579    0.0000 C   0  0  0  0  0  0  0  0  0  0  0  0
    5.7174   -0.0454    0.0000 O   0  0  0  0  0  0  0  0  0  0  0  0
  1  2  1  0  0  0  0
  2  3  1  0  0  0  0
  3  4  1  0  0  0  0
  4  5  1  0  0  0  0
  5  6  1  0  0  0  0
  6  7  1  0  0  0  0
  7  8  1  0  0  0  0
  8  9  1  0  0  0  0
M  END
> <ChemID>
100115

> <CAS>
111-87-5

> <Original_SMILES>
CCCCCCCCO

> <preferred_name>
1-Octanol

> <dsstox_substance_id>
DTXSID7021940

> <dsstox_compound_id>
DTXCID101940

> <qc_level>
DSSTox_Low

> <Canonical_QSARr>
CCCCCCCCO

> <InChI_Code_QSARr>
InChI=1S/C8H18O/c1-2-3-4-5-6-7-8-9/h9H,2-8H2,1H3

> <InChI Key_QSARr>
KBPLFHHGFOOTCA-UHFFFAOYSA-N

> <Salt_Solvent>


> <Salt_Solvent_ID>
0

> <MPID>
18929

> <LogKOA_Ref>
Abraham,MH et al. (2001)

> <LogKOA>
6.03

> <Tr_1_Tst_0>
1

$$$$
100116
  Mrv171c012251910582D          

 19 18  0  0  0  0            999 V2000
    0.6799   -0.4110    0.0000 C   0  0  0  0  0  0  0  0  0  0  0  0
   -0.0346    0.0015    0.0000 O   0  0  0  0  0  0  0  0  0  0  0  0
    1.3943    0.0015    0.0000 C   0  0  0  0  0  0  0  0  0  0  0  0
    2.1088   -0.4110    0.0000 C   0  0  0  0  0  0  0  0  0  0  0  0
    2.8233    0.0015    0.0000 C   0  0  0  0  0  0  0  0  0  0  0  0
    3.5377   -0.4110    0.0000 C   0  0  0  0  0  0  0  0  0  0  0  0
    4.2522    0.0015    0.0000 C   0  0  0  0  0  0  0  0  0  0  0  0
    4.9667   -0.4110    0.0000 C   0  0  0  0  0  0  0  0  0  0  0  0
    5.6812    0.0015    0.0000 C   0  0  0  0  0  0  0  0  0  0  0  0
    6.3956   -0.4110    0.0000 C   0  0  0  0  0  0  0  0  0  0  0  0
    7.1101    0.0015    0.0000 C   0  0  0  0  0  0  0  0  0  0  0  0
    7.8246   -0.4110    0.0000 C   0  0  0  0  0  0  0  0  0  0  0  0
    8.5390    0.0015    0.0000 C   0  0  0  0  0  0  0  0  0  0  0  0
    9.2535   -0.4110    0.0000 C   0  0  0  0  0  0  0  0  0  0  0  0
    9.9680    0.0015    0.0000 C   0  0  0  0  0  0  0  0  0  0  0  0
   10.6825   -0.4110    0.0000 C   0  0  0  0  0  0  0  0  0  0  0  0
   11.3969    0.0015    0.0000 C   0  0  0  0  0  0  0  0  0  0  0  0
   12.1114   -0.4110    0.0000 C   0  0  0  0  0  0  0  0  0  0  0  0
   12.8259    0.0015    0.0000 C   0  0  0  0  0  0  0  0  0  0  0  0
  1  2  1  0  0  0  0
  1  3  1  0  0  0  0
  3  4  1  0  0  0  0
  4  5  1  0  0  0  0
  5  6  1  0  0  0  0
  6  7  1  0  0  0  0
  7  8  1  0  0  0  0
  8  9  1  0  0  0  0
  9 10  1  0  0  0  0
 10 11  1  0  0  0  0
 11 12  1  0  0  0  0
 12 13  1  0  0  0  0
 13 14  1  0  0  0  0
 14 15  1  0  0  0  0
 15 16  1  0  0  0  0
 16 17  1  0  0  0  0
 17 18  1  0  0  0  0
 18 19  1  0  0  0  0
M  END
> <ChemID>
100116

> <CAS>
112-92-5

> <Original_SMILES>
CCCCCCCCCCCCCCCCCCO

> <preferred_name>
1-Octadecanol

> <dsstox_substance_id>
DTXSID8026935

> <dsstox_compound_id>
DTXCID306935

> <qc_level>
DSSTox_High

> <Canonical_QSARr>
CCCCCCCCCCCCCCCCCCO

> <InChI_Code_QSARr>
InChI=1S/C18H38O/c1-2-3-4-5-6-7-8-9-10-11-12-13-14-15-16-17-18-19/h19H,2-18H2,1H3

> <InChI Key_QSARr>
GLDOVTGHNKAZLK-UHFFFAOYSA-N

> <Salt_Solvent>


> <Salt_Solvent_ID>
0

> <MPID>
18930

> <LogKOA_Ref>
Abraham,MH et al. (2001)

> <LogKOA>
10.93

> <Tr_1_Tst_0>
1

$$$$
100117
  Mrv171c012251910582D          

  3  2  0  0  0  0            999 V2000
    0.0004   -0.1370    0.0000 C   0  0  0  0  0  0  0  0  0  0  0  0
    0.7149   -0.5495    0.0000 O   0  0  0  0  0  0  0  0  0  0  0  0
    1.4294   -0.1370    0.0000 C   0  0  0  0  0  0  0  0  0  0  0  0
  1  2  1  0  0  0  0
  2  3  1  0  0  0  0
M  END
> <ChemID>
100117

> <CAS>
115-10-6

> <Original_SMILES>
COC

> <preferred_name>
Dimethyl ether

> <dsstox_substance_id>
DTXSID8026937

> <dsstox_compound_id>
DTXCID106937

> <qc_level>
DSSTox_Low

> <Canonical_QSARr>
COC

> <InChI_Code_QSARr>
InChI=1S/C2H6O/c1-3-2/h1-2H3

> <InChI Key_QSARr>
LCGLNKUTAGEVQW-UHFFFAOYSA-N

> <Salt_Solvent>


> <Salt_Solvent_ID>
0

> <MPID>
18931

> <LogKOA_Ref>
Abraham,MH et al. (2001)

> <LogKOA>
1.37

> <Tr_1_Tst_0>
0

$$$$
100118
  Mrv171c012251910582D          

 12 12  0  0  0  0            999 V2000
    3.0761   -0.6015    0.0000 Cl  0  0  0  0  0  0  0  0  0  0  0  0
    2.3616   -1.0140    0.0000 C   0  0  0  0  0  0  0  0  0  0  0  0
    1.6472   -0.6015    0.0000 C   0  0  0  0  0  0  0  0  0  0  0  0
    1.6472    0.2235    0.0000 Cl  0  0  0  0  0  0  0  0  0  0  0  0
    0.9327   -1.0140    0.0000 C   0  0  0  0  0  0  0  0  0  0  0  0
    0.2182   -0.6015    0.0000 Cl  0  0  0  0  0  0  0  0  0  0  0  0
    0.9327   -1.8390    0.0000 C   0  0  0  0  0  0  0  0  0  0  0  0
    0.2182   -2.2515    0.0000 Cl  0  0  0  0  0  0  0  0  0  0  0  0
    1.6472   -2.2515    0.0000 C   0  0  0  0  0  0  0  0  0  0  0  0
    1.6472   -3.0765    0.0000 Cl  0  0  0  0  0  0  0  0  0  0  0  0
    2.3616   -1.8390    0.0000 C   0  0  0  0  0  0  0  0  0  0  0  0
    3.0761   -2.2515    0.0000 Cl  0  0  0  0  0  0  0  0  0  0  0  0
  1  2  1  0  0  0  0
  3  2  1  0  0  0  0
  3  4  1  0  0  0  0
  5  3  2  0  0  0  0
  5  6  1  0  0  0  0
  7  5  1  0  0  0  0
  7  8  1  0  0  0  0
  9  7  2  0  0  0  0
  9 10  1  0  0  0  0
 11  9  1  0  0  0  0
  2 11  2  0  0  0  0
 11 12  1  0  0  0  0
M  END
> <ChemID>
100118

> <CAS>
118-74-1

> <Original_SMILES>
Clc1c(Cl)c(Cl)c(Cl)c(Cl)c1Cl

> <preferred_name>
Hexachlorobenzene

> <dsstox_substance_id>
DTXSID2020682

> <dsstox_compound_id>
DTXCID80682

> <qc_level>
DSSTox_Low

> <Canonical_QSARr>
ClC1C(Cl)=C(Cl)C(Cl)=C(Cl)C=1Cl

> <InChI_Code_QSARr>
InChI=1S/C6Cl6/c7-1-2(8)4(10)6(12)5(11)3(1)9

> <InChI Key_QSARr>
CKAPSXZOOQJIBF-UHFFFAOYSA-N

> <Salt_Solvent>


> <Salt_Solvent_ID>
0

> <MPID>
18932

> <LogKOA_Ref>
Shoeib,M & Harner,T (2002)

> <LogKOA>
7.38

> <Tr_1_Tst_0>
1

$$$$
100119
  Mrv171c012251910582D          

 14 16  0  0  0  0            999 V2000
    2.1385   -0.0041    0.0000 C   0  0  0  0  0  0  0  0  0  0  0  0
    2.8530   -0.4166    0.0000 C   0  0  0  0  0  0  0  0  0  0  0  0
    3.5675   -0.0041    0.0000 C   0  0  0  0  0  0  0  0  0  0  0  0
    4.2819   -0.4166    0.0000 C   0  0  0  0  0  0  0  0  0  0  0  0
    4.2819   -1.2416    0.0000 C   0  0  0  0  0  0  0  0  0  0  0  0
    3.5675   -1.6541    0.0000 C   0  0  0  0  0  0  0  0  0  0  0  0
    2.8530   -1.2416    0.0000 C   0  0  0  0  0  0  0  0  0  0  0  0
    2.1385   -1.6541    0.0000 C   0  0  0  0  0  0  0  0  0  0  0  0
    1.4240   -1.2416    0.0000 C   0  0  0  0  0  0  0  0  0  0  0  0
    0.7096   -1.6541    0.0000 C   0  0  0  0  0  0  0  0  0  0  0  0
   -0.0049   -1.2416    0.0000 C   0  0  0  0  0  0  0  0  0  0  0  0
   -0.0049   -0.4166    0.0000 C   0  0  0  0  0  0  0  0  0  0  0  0
    0.7096   -0.0041    0.0000 C   0  0  0  0  0  0  0  0  0  0  0  0
    1.4240   -0.4166    0.0000 C   0  0  0  0  0  0  0  0  0  0  0  0
  2  1  2  0  0  0  0
  2  3  1  0  0  0  0
  3  4  2  0  0  0  0
  4  5  1  0  0  0  0
  5  6  2  0  0  0  0
  6  7  1  0  0  0  0
  7  2  1  0  0  0  0
  8  7  2  0  0  0  0
  9  8  1  0  0  0  0
  9 10  1  0  0  0  0
 10 11  2  0  0  0  0
 11 12  1  0  0  0  0
 12 13  2  0  0  0  0
 13 14  1  0  0  0  0
  1 14  1  0  0  0  0
 14  9  2  0  0  0  0
M  END
> <ChemID>
100119

> <CAS>
120-12-7

> <Original_SMILES>
c1c2ccccc2cc2ccccc21

> <preferred_name>
Anthracene

> <dsstox_substance_id>
DTXSID0023878

> <dsstox_compound_id>
DTXCID203878

> <qc_level>
DSSTox_Low

> <Canonical_QSARr>
C1=C2C=CC=CC2=CC2C=CC=CC=21

> <InChI_Code_QSARr>
InChI=1S/C14H10/c1-2-6-12-10-14-8-4-3-7-13(14)9-11(12)5-1/h1-10H

> <InChI Key_QSARr>
MWPLVEDNUUSJAV-UHFFFAOYSA-N

> <Salt_Solvent>


> <Salt_Solvent_ID>
0

> <MPID>
18933

> <LogKOA_Ref>
Abraham,MH et al. (2001)

> <LogKOA>
7.55

> <Tr_1_Tst_0>
1

$$$$
100120
  Mrv171c012251910582D          

  9  9  0  0  0  0            999 V2000
    1.7473   -2.4749    0.0000 Cl  0  0  0  0  0  0  0  0  0  0  0  0
    1.7473   -1.6499    0.0000 C   0  0  0  0  0  0  0  0  0  0  0  0
    2.4618   -1.2374    0.0000 C   0  0  0  0  0  0  0  0  0  0  0  0
    2.4618   -0.4124    0.0000 C   0  0  0  0  0  0  0  0  0  0  0  0
    1.7473    0.0001    0.0000 C   0  0  0  0  0  0  0  0  0  0  0  0
    1.7473    0.8251    0.0000 Cl  0  0  0  0  0  0  0  0  0  0  0  0
    1.0328   -0.4124    0.0000 C   0  0  0  0  0  0  0  0  0  0  0  0
    1.0328   -1.2374    0.0000 C   0  0  0  0  0  0  0  0  0  0  0  0
    0.3184   -1.6499    0.0000 Cl  0  0  0  0  0  0  0  0  0  0  0  0
  1  2  1  0  0  0  0
  3  2  1  0  0  0  0
  4  3  2  0  0  0  0
  5  4  1  0  0  0  0
  5  6  1  0  0  0  0
  7  5  2  0  0  0  0
  8  7  1  0  0  0  0
  2  8  2  0  0  0  0
  8  9  1  0  0  0  0
M  END
> <ChemID>
100120

> <CAS>
120-82-1

> <Original_SMILES>
Clc1cc(Cl)c(Cl)cc1

> <preferred_name>
1,2,4-Trichlorobenzene

> <dsstox_substance_id>
DTXSID0021965

> <dsstox_compound_id>
DTXCID701965

> <qc_level>
DSSTox_High

> <Canonical_QSARr>
ClC1=CC(Cl)=C(Cl)C=C1

> <InChI_Code_QSARr>
InChI=1S/C6H3Cl3/c7-4-1-2-5(8)6(9)3-4/h1-3H

> <InChI Key_QSARr>
PBKONEOXTCPAFI-UHFFFAOYSA-N

> <Salt_Solvent>


> <Salt_Solvent_ID>
0

> <MPID>
18934

> <LogKOA_Ref>
Su,Y et al. (2002)

> <LogKOA>
4.95

> <Tr_1_Tst_0>
1

$$$$
100121
  Mrv171c012251910582D          

  6  6  0  0  0  0            999 V2000
    0.6463   -0.7917    0.0000 C   0  0  0  0  0  0  0  0  0  0  0  0
    0.6463    0.0333    0.0000 O   0  0  0  0  0  0  0  0  0  0  0  0
   -0.0211   -1.2766    0.0000 C   0  0  0  0  0  0  0  0  0  0  0  0
    0.2338   -2.0612    0.0000 C   0  0  0  0  0  0  0  0  0  0  0  0
    1.0588   -2.0612    0.0000 C   0  0  0  0  0  0  0  0  0  0  0  0
    1.3137   -1.2766    0.0000 C   0  0  0  0  0  0  0  0  0  0  0  0
  1  2  2  0  0  0  0
  3  1  1  0  0  0  0
  4  3  1  0  0  0  0
  5  4  1  0  0  0  0
  6  5  1  0  0  0  0
  1  6  1  0  0  0  0
M  END
> <ChemID>
100121

> <CAS>
120-92-3

> <Original_SMILES>
O=C1CCCC1

> <preferred_name>
Cyclopentanone

> <dsstox_substance_id>
DTXSID3029154

> <dsstox_compound_id>
DTXCID209154

> <qc_level>
DSSTox_Low

> <Canonical_QSARr>
O=C1CCCC1

> <InChI_Code_QSARr>
InChI=1S/C5H8O/c6-5-3-1-2-4-5/h1-4H2

> <InChI Key_QSARr>
BGTOWKSIORTVQH-UHFFFAOYSA-N

> <Salt_Solvent>


> <Salt_Solvent_ID>
0

> <MPID>
18935

> <LogKOA_Ref>
Abraham,MH et al. (2001)

> <LogKOA>
3.67

> <Tr_1_Tst_0>
0

$$$$
100122
  Mrv171c012251910582D          

  6  6  0  0  0  0            999 V2000
    0.6680   -0.8208    0.0000 N   0  0  0  0  0  0  0  0  0  0  0  0
    0.6680    0.0042    0.0000 C   0  0  0  0  0  0  0  0  0  0  0  0
    0.0006   -1.3058    0.0000 C   0  0  0  0  0  0  0  0  0  0  0  0
    0.2555   -2.0904    0.0000 C   0  0  0  0  0  0  0  0  0  0  0  0
    1.0805   -2.0904    0.0000 C   0  0  0  0  0  0  0  0  0  0  0  0
    1.3355   -1.3058    0.0000 C   0  0  0  0  0  0  0  0  0  0  0  0
  1  2  1  0  0  0  0
  3  1  1  0  0  0  0
  4  3  1  0  0  0  0
  5  4  1  0  0  0  0
  6  5  1  0  0  0  0
  1  6  1  0  0  0  0
M  END
> <ChemID>
100122

> <CAS>
120-94-5

> <Original_SMILES>
CN1CCCC1

> <preferred_name>
N-Methylpyrrolidine

> <dsstox_substance_id>
DTXSID8042210

> <dsstox_compound_id>
DTXCID6022210

> <qc_level>
DSSTox_Low

> <Canonical_QSARr>
CN1CCCC1

> <InChI_Code_QSARr>
InChI=1S/C5H11N/c1-6-4-2-3-5-6/h2-5H2,1H3

> <InChI Key_QSARr>
AVFZOVWCLRSYKC-UHFFFAOYSA-N

> <Salt_Solvent>


> <Salt_Solvent_ID>
0

> <MPID>
18936

> <LogKOA_Ref>
Abraham,MH et al. (2001)

> <LogKOA>
3.64

> <Tr_1_Tst_0>
1

$$$$
100123
  Mrv171c012251910582D          

 13 14  0  0  0  0            999 V2000
    3.5155   -1.7446    0.0000 C   0  0  0  0  0  0  0  0  0  0  0  0
    2.8010   -1.3321    0.0000 C   0  0  0  0  0  0  0  0  0  0  0  0
    2.8010   -0.5071    0.0000 N   0  0  0  0  0  0  0  0  0  0  0  0
    2.0865   -0.0946    0.0000 C   0  0  0  0  0  0  0  0  0  0  0  0
    2.0865    0.7304    0.0000 C   0  0  0  0  0  0  0  0  0  0  0  0
    1.3721    1.1429    0.0000 C   0  0  0  0  0  0  0  0  0  0  0  0
    0.6576    0.7304    0.0000 C   0  0  0  0  0  0  0  0  0  0  0  0
    0.6576   -0.0946    0.0000 C   0  0  0  0  0  0  0  0  0  0  0  0
    1.3721   -0.5071    0.0000 C   0  0  0  0  0  0  0  0  0  0  0  0
    2.0865   -1.7446    0.0000 C   0  0  0  0  0  0  0  0  0  0  0  0
    2.0865   -2.5696    0.0000 C   0  0  0  0  0  0  0  0  0  0  0  0
    2.8010   -2.9821    0.0000 C   0  0  0  0  0  0  0  0  0  0  0  0
    3.5155   -2.5696    0.0000 C   0  0  0  0  0  0  0  0  0  0  0  0
  2  1  1  0  0  0  0
  2  3  1  0  0  0  0
  3  4  1  0  0  0  0
  5  4  1  0  0  0  0
  6  5  2  0  0  0  0
  7  6  1  0  0  0  0
  8  7  2  0  0  0  0
  9  8  1  0  0  0  0
  4  9  2  0  0  0  0
 10  2  2  0  0  0  0
 11 10  1  0  0  0  0
 12 11  2  0  0  0  0
 13 12  1  0  0  0  0
  1 13  2  0  0  0  0
M  END
> <ChemID>
100123

> <CAS>
122-39-4

> <Original_SMILES>
c1ccccc1Nc1ccccc1

> <preferred_name>
Diphenylamine

> <dsstox_substance_id>
DTXSID4021975

> <dsstox_compound_id>
DTXCID001975

> <qc_level>
DSSTox_Low

> <Canonical_QSARr>
C1=CC=CC=C1NC1C=CC=CC=1

> <InChI_Code_QSARr>
InChI=1S/C12H11N/c1-3-7-11(8-4-1)13-12-9-5-2-6-10-12/h1-10,13H

> <InChI Key_QSARr>
DMBHHRLKUKUOEG-UHFFFAOYSA-N

> <Salt_Solvent>


> <Salt_Solvent_ID>
0

> <MPID>
18937

> <LogKOA_Ref>
Abraham,MH et al. (2001)

> <LogKOA>
7.64

> <Tr_1_Tst_0>
1

$$$$
100124
  Mrv171c012251910582D          

  4  3  0  0  0  0            999 V2000
    2.1043   -0.5633    0.0000 C   0  0  0  0  0  0  0  0  0  0  0  0
    1.2793   -0.5633    0.0000 C   0  0  0  0  0  0  0  0  0  0  0  0
    0.8668    0.1512    0.0000 C   0  0  0  0  0  0  0  0  0  0  0  0
    0.0418    0.1512    0.0000 O   0  0  0  0  0  0  0  0  0  0  0  0
  1  2  1  0  0  0  0
  2  3  1  0  0  0  0
  3  4  2  0  0  0  0
M  END
> <ChemID>
100124

> <CAS>
123-38-6

> <Original_SMILES>
CCC=O

> <preferred_name>
Propanal

> <dsstox_substance_id>
DTXSID2021658

> <dsstox_compound_id>
DTXCID001658

> <qc_level>
DSSTox_Low

> <Canonical_QSARr>
CCC=O

> <InChI_Code_QSARr>
InChI=1S/C3H6O/c1-2-3-4/h3H,2H2,1H3

> <InChI Key_QSARr>
NBBJYMSMWIIQGU-UHFFFAOYSA-N

> <Salt_Solvent>


> <Salt_Solvent_ID>
0

> <MPID>
18938

> <LogKOA_Ref>
Abraham,MH et al. (2001)

> <LogKOA>
3.02

> <Tr_1_Tst_0>
1

$$$$
100125
  Mrv171c012251910582D          

  6  5  0  0  0  0            999 V2000
    1.2739   -1.1327    0.0000 C   0  0  0  0  0  0  0  0  0  0  0  0
    2.0989   -1.1327    0.0000 C   0  0  0  0  0  0  0  0  0  0  0  0
    2.5114   -1.8472    0.0000 C   0  0  0  0  0  0  0  0  0  0  0  0
    2.5114   -0.4182    0.0000 C   0  0  0  0  0  0  0  0  0  0  0  0
    0.8614   -0.4182    0.0000 C   0  0  0  0  0  0  0  0  0  0  0  0
    0.0364   -0.4182    0.0000 O   0  0  0  0  0  0  0  0  0  0  0  0
  1  2  1  0  0  0  0
  2  3  1  0  0  0  0
  2  4  1  0  0  0  0
  1  5  1  0  0  0  0
  5  6  1  0  0  0  0
M  END
> <ChemID>
100125

> <CAS>
123-51-3

> <Original_SMILES>
CC(C)CCO

> <preferred_name>
Isopentyl alcohol

> <dsstox_substance_id>
DTXSID3025469

> <dsstox_compound_id>
DTXCID705469

> <qc_level>
DSSTox_Low

> <Canonical_QSARr>
CC(C)CCO

> <InChI_Code_QSARr>
InChI=1S/C5H12O/c1-5(2)3-4-6/h5-6H,3-4H2,1-2H3

> <InChI Key_QSARr>
PHTQWCKDNZKARW-UHFFFAOYSA-N

> <Salt_Solvent>


> <Salt_Solvent_ID>
0

> <MPID>
18939

> <LogKOA_Ref>
Abraham,MH et al. (2001)

> <LogKOA>
4.52

> <Tr_1_Tst_0>
0

$$$$
100126
  Mrv171c012251910582D          

  5  4  0  0  0  0            999 V2000
    2.5848   -1.1044    0.0000 C   0  0  0  0  0  0  0  0  0  0  0  0
    2.1723   -0.3899    0.0000 C   0  0  0  0  0  0  0  0  0  0  0  0
    1.3473   -0.3899    0.0000 C   0  0  0  0  0  0  0  0  0  0  0  0
    0.9348    0.3245    0.0000 C   0  0  0  0  0  0  0  0  0  0  0  0
    0.1098    0.3245    0.0000 O   0  0  0  0  0  0  0  0  0  0  0  0
  1  2  1  0  0  0  0
  2  3  1  0  0  0  0
  3  4  1  0  0  0  0
  4  5  2  0  0  0  0
M  END
> <ChemID>
100126

> <CAS>
123-72-8

> <Original_SMILES>
CCCC=O

> <preferred_name>
Butyraldehyde

> <dsstox_substance_id>
DTXSID8021513

> <dsstox_compound_id>
DTXCID601513

> <qc_level>
DSSTox_Low

> <Canonical_QSARr>
CCCC=O

> <InChI_Code_QSARr>
InChI=1S/C4H8O/c1-2-3-4-5/h4H,2-3H2,1H3

> <InChI Key_QSARr>
ZTQSAGDEMFDKMZ-UHFFFAOYSA-N

> <Salt_Solvent>


> <Salt_Solvent_ID>
0

> <MPID>
18940

> <LogKOA_Ref>
Abraham,MH et al. (2001)

> <LogKOA>
3.39

> <Tr_1_Tst_0>
1

$$$$
100127
  Mrv171c012251910582D          

  5  5  0  0  0  0            999 V2000
    1.2352    0.6294    0.0000 C   0  0  0  0  0  0  0  0  0  0  0  0
    0.5678    1.1143    0.0000 C   0  0  0  0  0  0  0  0  0  0  0  0
   -0.0997    0.6294    0.0000 N   0  0  0  0  0  0  0  0  0  0  0  0
    0.1553   -0.1553    0.0000 C   0  0  0  0  0  0  0  0  0  0  0  0
    0.9803   -0.1553    0.0000 C   0  0  0  0  0  0  0  0  0  0  0  0
  2  1  1  0  0  0  0
  3  2  1  0  0  0  0
  4  3  1  0  0  0  0
  5  4  1  0  0  0  0
  1  5  1  0  0  0  0
M  END
> <ChemID>
100127

> <CAS>
123-75-1

> <Original_SMILES>
C1CCCN1

> <preferred_name>
Pyrrolidine

> <dsstox_substance_id>
DTXSID3059559

> <dsstox_compound_id>
DTXCID6033796

> <qc_level>
Public_High

> <Canonical_QSARr>
C1CCCN1

> <InChI_Code_QSARr>
InChI=1S/C4H9N/c1-2-4-5-3-1/h5H,1-4H2

> <InChI Key_QSARr>
RWRDLPDLKQPQOW-UHFFFAOYSA-N

> <Salt_Solvent>


> <Salt_Solvent_ID>
0

> <MPID>
18941

> <LogKOA_Ref>
Abraham,MH et al. (2001)

> <LogKOA>
4.07

> <Tr_1_Tst_0>
1

$$$$
100128
  Mrv171c012251910582D          

  8  7  0  0  0  0            999 V2000
   -0.1066   -0.4070    0.0000 C   0  0  0  0  0  0  0  0  0  0  0  0
    0.6078   -0.8195    0.0000 C   0  0  0  0  0  0  0  0  0  0  0  0
    1.3223   -0.4070    0.0000 O   0  0  0  0  0  0  0  0  0  0  0  0
    2.0368   -0.8195    0.0000 C   0  0  0  0  0  0  0  0  0  0  0  0
    2.7512   -0.4070    0.0000 C   0  0  0  0  0  0  0  0  0  0  0  0
    3.4657   -0.8195    0.0000 C   0  0  0  0  0  0  0  0  0  0  0  0
    4.1802   -0.4070    0.0000 C   0  0  0  0  0  0  0  0  0  0  0  0
    0.6078   -1.6445    0.0000 O   0  0  0  0  0  0  0  0  0  0  0  0
  1  2  1  0  0  0  0
  2  3  1  0  0  0  0
  3  4  1  0  0  0  0
  4  5  1  0  0  0  0
  5  6  1  0  0  0  0
  6  7  1  0  0  0  0
  2  8  2  0  0  0  0
M  END
> <ChemID>
100128

> <CAS>
123-86-4

> <Original_SMILES>
CCCCOC(C)=O

> <preferred_name>
Butyl acetate

> <dsstox_substance_id>
DTXSID3021982

> <dsstox_compound_id>
DTXCID101982

> <qc_level>
DSSTox_Low

> <Canonical_QSARr>
CCCCOC(C)=O

> <InChI_Code_QSARr>
InChI=1S/C6H12O2/c1-3-4-5-8-6(2)7/h3-5H2,1-2H3

> <InChI Key_QSARr>
DKPFZGUDAPQIHT-UHFFFAOYSA-N

> <Salt_Solvent>


> <Salt_Solvent_ID>
0

> <MPID>
18942

> <LogKOA_Ref>
Abraham,MH et al. (2001)

> <LogKOA>
3.65

> <Tr_1_Tst_0>
1

$$$$
100129
  Mrv171c012251910582D          

  6  6  0  0  0  0            999 V2000
    1.4289   -0.4125    0.0000 C   0  0  0  0  0  0  0  0  0  0  0  0
    0.7145    0.0000    0.0000 O   0  0  0  0  0  0  0  0  0  0  0  0
    0.0000   -0.4125    0.0000 C   0  0  0  0  0  0  0  0  0  0  0  0
    0.0000   -1.2375    0.0000 C   0  0  0  0  0  0  0  0  0  0  0  0
    0.7145   -1.6500    0.0000 O   0  0  0  0  0  0  0  0  0  0  0  0
    1.4289   -1.2375    0.0000 C   0  0  0  0  0  0  0  0  0  0  0  0
  2  1  1  0  0  0  0
  3  2  1  0  0  0  0
  4  3  1  0  0  0  0
  5  4  1  0  0  0  0
  6  5  1  0  0  0  0
  1  6  1  0  0  0  0
M  END
> <ChemID>
100129

> <CAS>
123-91-1

> <Original_SMILES>
C1COCCO1

> <preferred_name>
1,4-Dioxane

> <dsstox_substance_id>
DTXSID4020533

> <dsstox_compound_id>
DTXCID00533

> <qc_level>
DSSTox_Low

> <Canonical_QSARr>
C1COCCO1

> <InChI_Code_QSARr>
InChI=1S/C4H8O2/c1-2-6-4-3-5-1/h1-4H2

> <InChI Key_QSARr>
RYHBNJHYFVUHQT-UHFFFAOYSA-N

> <Salt_Solvent>


> <Salt_Solvent_ID>
0

> <MPID>
18943

> <LogKOA_Ref>
Park,JH et al. (1987)

> <LogKOA>
3.18

> <Tr_1_Tst_0>
0

$$$$
100130
  Mrv171c012251910582D          

  9  8  0  0  0  0            999 V2000
    2.1414   -0.8256    0.0000 C   0  0  0  0  0  0  0  0  0  0  0  0
    1.4269   -0.4131    0.0000 O   0  0  0  0  0  0  0  0  0  0  0  0
    0.7124   -0.8256    0.0000 C   0  0  0  0  0  0  0  0  0  0  0  0
   -0.0020   -0.4131    0.0000 O   0  0  0  0  0  0  0  0  0  0  0  0
    0.7124   -1.6506    0.0000 C   0  0  0  0  0  0  0  0  0  0  0  0
    2.8558   -0.4131    0.0000 C   0  0  0  0  0  0  0  0  0  0  0  0
    3.5703   -0.8256    0.0000 C   0  0  0  0  0  0  0  0  0  0  0  0
    4.2848   -0.4131    0.0000 C   0  0  0  0  0  0  0  0  0  0  0  0
    3.5703   -1.6506    0.0000 C   0  0  0  0  0  0  0  0  0  0  0  0
  1  2  1  0  0  0  0
  2  3  1  0  0  0  0
  3  4  2  0  0  0  0
  3  5  1  0  0  0  0
  1  6  1  0  0  0  0
  6  7  1  0  0  0  0
  7  8  1  0  0  0  0
  7  9  1  0  0  0  0
M  END
> <ChemID>
100130

> <CAS>
123-92-2

> <Original_SMILES>
CC(C)CCOC(C)=O

> <preferred_name>
3-Methylbutyl acetate

> <dsstox_substance_id>
DTXSID9025453

> <dsstox_compound_id>
DTXCID005453

> <qc_level>
DSSTox_High

> <Canonical_QSARr>
CC(C)CCOC(C)=O

> <InChI_Code_QSARr>
InChI=1S/C7H14O2/c1-6(2)4-5-9-7(3)8/h6H,4-5H2,1-3H3

> <InChI Key_QSARr>
MLFHJEHSLIIPHL-UHFFFAOYSA-N

> <Salt_Solvent>


> <Salt_Solvent_ID>
0

> <MPID>
18944

> <LogKOA_Ref>
Abraham,MH et al. (2001)

> <LogKOA>
3.94

> <Tr_1_Tst_0>
1

$$$$
100131
  Mrv171c012251910582D          

  9  8  0  0  0  0            999 V2000
    5.8558    2.5559    0.0000 C   0  0  0  0  0  0  0  0  0  0  0  0
    5.1414    2.1434    0.0000 C   0  0  0  0  0  0  0  0  0  0  0  0
    4.4269    2.5559    0.0000 C   0  0  0  0  0  0  0  0  0  0  0  0
    3.7124    2.1434    0.0000 C   0  0  0  0  0  0  0  0  0  0  0  0
    2.9980    2.5559    0.0000 C   0  0  0  0  0  0  0  0  0  0  0  0
    6.5703    2.1434    0.0000 C   0  0  0  0  0  0  0  0  0  0  0  0
    7.2848    2.5559    0.0000 C   0  0  0  0  0  0  0  0  0  0  0  0
    7.9992    2.1434    0.0000 C   0  0  0  0  0  0  0  0  0  0  0  0
    8.7137    2.5559    0.0000 C   0  0  0  0  0  0  0  0  0  0  0  0
  1  2  1  0  0  0  0
  2  3  1  0  0  0  0
  3  4  1  0  0  0  0
  4  5  2  0  0  0  0
  1  6  1  0  0  0  0
  6  7  1  0  0  0  0
  7  8  1  0  0  0  0
  8  9  1  0  0  0  0
M  END
> <ChemID>
100131

> <CAS>
124-11-8

> <Original_SMILES>
CCCCCCCC=C

> <preferred_name>
1-Nonene

> <dsstox_substance_id>
DTXSID2059562

> <dsstox_compound_id>
DTXCID3033806

> <qc_level>
Public_High

> <Canonical_QSARr>
CCCCCCCC=C

> <InChI_Code_QSARr>
InChI=1S/C9H18/c1-3-5-7-9-8-6-4-2/h3H,1,4-9H2,2H3

> <InChI Key_QSARr>
JRZJOMJEPLMPRA-UHFFFAOYSA-N

> <Salt_Solvent>


> <Salt_Solvent_ID>
0

> <MPID>
18945

> <LogKOA_Ref>
Abraham,MH et al. (2001)

> <LogKOA>
3.83

> <Tr_1_Tst_0>
1

$$$$
100132
  Mrv171c012251910582D          

  9  8  0  0  0  0            999 V2000
    0.0017   -0.0454    0.0000 C   0  0  0  0  0  0  0  0  0  0  0  0
    0.7161   -0.4579    0.0000 C   0  0  0  0  0  0  0  0  0  0  0  0
    1.4306   -0.0454    0.0000 C   0  0  0  0  0  0  0  0  0  0  0  0
    2.1451   -0.4579    0.0000 C   0  0  0  0  0  0  0  0  0  0  0  0
    2.8595   -0.0454    0.0000 C   0  0  0  0  0  0  0  0  0  0  0  0
    3.5740   -0.4579    0.0000 C   0  0  0  0  0  0  0  0  0  0  0  0
    4.2885   -0.0454    0.0000 C   0  0  0  0  0  0  0  0  0  0  0  0
    5.0030   -0.4579    0.0000 C   0  0  0  0  0  0  0  0  0  0  0  0
    5.7174   -0.0454    0.0000 O   0  0  0  0  0  0  0  0  0  0  0  0
  1  2  1  0  0  0  0
  2  3  1  0  0  0  0
  3  4  1  0  0  0  0
  4  5  1  0  0  0  0
  5  6  1  0  0  0  0
  6  7  1  0  0  0  0
  7  8  1  0  0  0  0
  8  9  2  0  0  0  0
M  END
> <ChemID>
100132

> <CAS>
124-13-0

> <Original_SMILES>
CCCCCCCC=O

> <preferred_name>
Octanal

> <dsstox_substance_id>
DTXSID3021643

> <dsstox_compound_id>
DTXCID701643

> <qc_level>
DSSTox_Low

> <Canonical_QSARr>
CCCCCCCC=O

> <InChI_Code_QSARr>
InChI=1S/C8H16O/c1-2-3-4-5-6-7-8-9/h8H,2-7H2,1H3

> <InChI Key_QSARr>
NUJGJRNETVAIRJ-UHFFFAOYSA-N

> <Salt_Solvent>


> <Salt_Solvent_ID>
0

> <MPID>
18946

> <LogKOA_Ref>
Abraham,MH et al. (2001)

> <LogKOA>
5.36

> <Tr_1_Tst_0>
1

$$$$
100133
  Mrv171c012251910582D          

  3  2  0  0  0  0            999 V2000
   -0.0269   -0.3388    0.0000 C   0  0  0  0  0  0  0  0  0  0  0  0
    0.6876   -0.7513    0.0000 N   0  0  0  0  0  0  0  0  0  0  0  0
    1.4020   -0.3388    0.0000 C   0  0  0  0  0  0  0  0  0  0  0  0
  1  2  1  0  0  0  0
  2  3  1  0  0  0  0
M  END
> <ChemID>
100133

> <CAS>
124-40-3

> <Original_SMILES>
CNC

> <preferred_name>
Dimethylamine

> <dsstox_substance_id>
DTXSID5024057

> <dsstox_compound_id>
DTXCID704057

> <qc_level>
DSSTox_High

> <Canonical_QSARr>
CNC

> <InChI_Code_QSARr>
InChI=1S/C2H7N/c1-3-2/h3H,1-2H3

> <InChI Key_QSARr>
ROSDSFDQCJNGOL-UHFFFAOYSA-N

> <Salt_Solvent>


> <Salt_Solvent_ID>
0

> <MPID>
18947

> <LogKOA_Ref>
Abraham,MH et al. (2001)

> <LogKOA>
2.0

> <Tr_1_Tst_0>
0

$$$$
100134
  Mrv171c012251910582D          

  4  3  0  0  0  0            999 V2000
    1.2371    0.0002    0.0000 Cl  0  0  0  0  0  0  0  0  0  0  0  0
    0.8246   -0.7143    0.0000 C   0  0  0  0  0  0  0  0  0  0  0  0
    1.2371   -1.4287    0.0000 Br  0  0  0  0  0  0  0  0  0  0  0  0
   -0.0004   -0.7143    0.0000 Br  0  0  0  0  0  0  0  0  0  0  0  0
  1  2  1  0  0  0  0
  2  3  1  0  0  0  0
  2  4  1  0  0  0  0
M  END
> <ChemID>
100134

> <CAS>
124-48-1

> <Original_SMILES>
ClC(Br)Br

> <preferred_name>
Chlorodibromomethane

> <dsstox_substance_id>
DTXSID1020300

> <dsstox_compound_id>
DTXCID30300

> <qc_level>
DSSTox_Low

> <Canonical_QSARr>
ClC(Br)Br

> <InChI_Code_QSARr>
InChI=1S/CHBr2Cl/c2-1(3)4/h1H

> <InChI Key_QSARr>
GATVIKZLVQHOMN-UHFFFAOYSA-N

> <Salt_Solvent>


> <Salt_Solvent_ID>
0

> <MPID>
18948

> <LogKOA_Ref>
Abraham,MH et al. (2001)

> <LogKOA>
3.59

> <Tr_1_Tst_0>
1

$$$$
100135
  Mrv171c012251910582D          

  6  5  0  0  0  0            999 V2000
    1.8554   -1.7855    0.0000 Cl  0  0  0  0  0  0  0  0  0  0  0  0
    1.4429   -1.0710    0.0000 C   0  0  0  0  0  0  0  0  0  0  0  0
    1.8554   -0.3566    0.0000 Cl  0  0  0  0  0  0  0  0  0  0  0  0
    0.6179   -1.0710    0.0000 C   0  0  0  0  0  0  0  0  0  0  0  0
    0.2054   -1.7855    0.0000 Cl  0  0  0  0  0  0  0  0  0  0  0  0
    0.2054   -0.3566    0.0000 Cl  0  0  0  0  0  0  0  0  0  0  0  0
  1  2  1  0  0  0  0
  2  3  1  0  0  0  0
  2  4  2  0  0  0  0
  4  5  1  0  0  0  0
  4  6  1  0  0  0  0
M  END
> <ChemID>
100135

> <CAS>
127-18-4

> <Original_SMILES>
ClC(Cl)=C(Cl)Cl

> <preferred_name>
Tetrachloroethylene

> <dsstox_substance_id>
DTXSID2021319

> <dsstox_compound_id>
DTXCID601319

> <qc_level>
DSSTox_Low

> <Canonical_QSARr>
ClC(Cl)=C(Cl)Cl

> <InChI_Code_QSARr>
InChI=1S/C2Cl4/c3-1(4)2(5)6

> <InChI Key_QSARr>
CYTYCFOTNPOANT-UHFFFAOYSA-N

> <Salt_Solvent>


> <Salt_Solvent_ID>
0

> <MPID>
18949

> <LogKOA_Ref>
Abraham,MH et al. (2001)

> <LogKOA>
3.48

> <Tr_1_Tst_0>
1

$$$$
100136
  Mrv171c012251910582D          

  6  5  0  0  0  0            999 V2000
    1.2751   -0.6739    0.0000 C   0  0  0  0  0  0  0  0  0  0  0  0
    0.8626    0.0406    0.0000 C   0  0  0  0  0  0  0  0  0  0  0  0
    2.1001   -0.6739    0.0000 O   0  0  0  0  0  0  0  0  0  0  0  0
    0.8626   -1.3883    0.0000 N   0  0  0  0  0  0  0  0  0  0  0  0
    1.2751   -2.1028    0.0000 C   0  0  0  0  0  0  0  0  0  0  0  0
    0.0376   -1.3883    0.0000 C   0  0  0  0  0  0  0  0  0  0  0  0
  1  2  1  0  0  0  0
  1  3  2  0  0  0  0
  1  4  1  0  0  0  0
  4  5  1  0  0  0  0
  4  6  1  0  0  0  0
M  END
> <ChemID>
100136

> <CAS>
127-19-5

> <Original_SMILES>
CC(=O)N(C)C

> <preferred_name>
N,N-Dimethylacetamide

> <dsstox_substance_id>
DTXSID5020499

> <dsstox_compound_id>
DTXCID90499

> <qc_level>
DSSTox_Low

> <Canonical_QSARr>
CC(=O)N(C)C

> <InChI_Code_QSARr>
InChI=1S/C4H9NO/c1-4(6)5(2)3/h1-3H3

> <InChI Key_QSARr>
FXHOOIRPVKKKFG-UHFFFAOYSA-N

> <Salt_Solvent>


> <Salt_Solvent_ID>
0

> <MPID>
18950

> <LogKOA_Ref>
Abraham,MH et al. (2001)

> <LogKOA>
5.33

> <Tr_1_Tst_0>
0

$$$$
100137
  Mrv171c012251910582D          

 16 19  0  0  0  0            999 V2000
    2.2044   -1.4429    0.0000 C   0  0  0  0  0  0  0  0  0  0  0  0
    2.6169   -0.7285    0.0000 C   0  0  0  0  0  0  0  0  0  0  0  0
    2.2044   -0.0140    0.0000 C   0  0  0  0  0  0  0  0  0  0  0  0
    1.3794   -0.0140    0.0000 C   0  0  0  0  0  0  0  0  0  0  0  0
    0.9669   -0.7285    0.0000 C   0  0  0  0  0  0  0  0  0  0  0  0
    0.1419   -0.7285    0.0000 C   0  0  0  0  0  0  0  0  0  0  0  0
   -0.2706   -1.4429    0.0000 C   0  0  0  0  0  0  0  0  0  0  0  0
    0.1419   -2.1574    0.0000 C   0  0  0  0  0  0  0  0  0  0  0  0
    0.9669   -2.1574    0.0000 C   0  0  0  0  0  0  0  0  0  0  0  0
    1.3794   -2.8719    0.0000 C   0  0  0  0  0  0  0  0  0  0  0  0
    2.2044   -2.8719    0.0000 C   0  0  0  0  0  0  0  0  0  0  0  0
    2.6169   -2.1574    0.0000 C   0  0  0  0  0  0  0  0  0  0  0  0
    3.4419   -2.1574    0.0000 C   0  0  0  0  0  0  0  0  0  0  0  0
    3.8544   -1.4429    0.0000 C   0  0  0  0  0  0  0  0  0  0  0  0
    3.4419   -0.7285    0.0000 C   0  0  0  0  0  0  0  0  0  0  0  0
    1.3794   -1.4429    0.0000 C   0  0  0  0  0  0  0  0  0  0  0  0
  2  1  1  0  0  0  0
  2  3  1  0  0  0  0
  3  4  2  0  0  0  0
  4  5  1  0  0  0  0
  5  6  2  0  0  0  0
  6  7  1  0  0  0  0
  7  8  2  0  0  0  0
  8  9  1  0  0  0  0
  9 10  1  0  0  0  0
 10 11  2  0  0  0  0
 11 12  1  0  0  0  0
 12  1  2  0  0  0  0
 12 13  1  0  0  0  0
 13 14  2  0  0  0  0
 14 15  1  0  0  0  0
 15  2  2  0  0  0  0
  9 16  2  0  0  0  0
  1 16  1  0  0  0  0
 16  5  1  0  0  0  0
M  END
> <ChemID>
100137

> <CAS>
129-00-0

> <Original_SMILES>
c1cc2cccc3ccc4cccc1c4c32

> <preferred_name>
Pyrene

> <dsstox_substance_id>
DTXSID3024289

> <dsstox_compound_id>
DTXCID804289

> <qc_level>
DSSTox_Low

> <Canonical_QSARr>
C1=CC2C=CC=C3C=CC4=CC=CC1=C4C=23

> <InChI_Code_QSARr>
InChI=1S/C16H10/c1-3-11-7-9-13-5-2-6-14-10-8-12(4-1)15(11)16(13)14/h1-10H

> <InChI Key_QSARr>
BBEAQIROQSPTKN-UHFFFAOYSA-N

> <Salt_Solvent>


> <Salt_Solvent_ID>
0

> <MPID>
18951

> <LogKOA_Ref>
Harner,T & Bidleman,TF (1998)

> <LogKOA>
8.8

> <Tr_1_Tst_0>
1

$$$$
100138
  Mrv171c012251910582D          

  6  5  0  0  0  0            999 V2000
    1.8927    0.4153    0.0000 C   0  0  0  0  0  0  0  0  0  0  0  0
    1.4802   -0.2991    0.0000 C   0  0  0  0  0  0  0  0  0  0  0  0
    1.8927   -1.0136    0.0000 O   0  0  0  0  0  0  0  0  0  0  0  0
    1.4802   -1.7281    0.0000 C   0  0  0  0  0  0  0  0  0  0  0  0
    1.8927   -2.4425    0.0000 C   0  0  0  0  0  0  0  0  0  0  0  0
    0.6552   -0.2991    0.0000 O   0  0  0  0  0  0  0  0  0  0  0  0
  1  2  1  0  0  0  0
  2  3  1  0  0  0  0
  3  4  1  0  0  0  0
  4  5  1  0  0  0  0
  2  6  2  0  0  0  0
M  END
> <ChemID>
100138

> <CAS>
141-78-6

> <Original_SMILES>
CCOC(C)=O

> <preferred_name>
Ethyl acetate

> <dsstox_substance_id>
DTXSID1022001

> <dsstox_compound_id>
DTXCID602001

> <qc_level>
DSSTox_Low

> <Canonical_QSARr>
CCOC(C)=O

> <InChI_Code_QSARr>
InChI=1S/C4H8O2/c1-3-6-4(2)5/h3H2,1-2H3

> <InChI Key_QSARr>
XEKOWRVHYACXOJ-UHFFFAOYSA-N

> <Salt_Solvent>


> <Salt_Solvent_ID>
0

> <MPID>
18952

> <LogKOA_Ref>
Abraham,MH et al. (2001)

> <LogKOA>
2.7

> <Tr_1_Tst_0>
1

$$$$
100139
  Mrv171c012251910582D          

  6  6  0  0  0  0            999 V2000
    1.4289    0.8250    0.0000 C   0  0  0  0  0  0  0  0  0  0  0  0
    0.7145    1.2375    0.0000 C   0  0  0  0  0  0  0  0  0  0  0  0
   -0.0000    0.8250    0.0000 C   0  0  0  0  0  0  0  0  0  0  0  0
   -0.0000    0.0000    0.0000 O   0  0  0  0  0  0  0  0  0  0  0  0
    0.7145   -0.4125    0.0000 C   0  0  0  0  0  0  0  0  0  0  0  0
    1.4289   -0.0000    0.0000 C   0  0  0  0  0  0  0  0  0  0  0  0
  2  1  1  0  0  0  0
  3  2  1  0  0  0  0
  4  3  1  0  0  0  0
  5  4  1  0  0  0  0
  6  5  1  0  0  0  0
  1  6  1  0  0  0  0
M  END
> <ChemID>
100139

> <CAS>
142-68-7

> <Original_SMILES>
C1CCCCO1

> <preferred_name>
Tetrahydropyran

> <dsstox_substance_id>
DTXSID3059719

> <dsstox_compound_id>
DTXCID3034612

> <qc_level>
Public_High

> <Canonical_QSARr>
C1CCCCO1

> <InChI_Code_QSARr>
InChI=1S/C5H10O/c1-2-4-6-5-3-1/h1-5H2

> <InChI Key_QSARr>
DHXVGJBLRPWPCS-UHFFFAOYSA-N

> <Salt_Solvent>


> <Salt_Solvent_ID>
0

> <MPID>
18953

> <LogKOA_Ref>
Abraham,MH et al. (2001)

> <LogKOA>
3.22

> <Tr_1_Tst_0>
1

$$$$
100140
  Mrv171c012251910582D          

  7  6  0  0  0  0            999 V2000
    0.7182   -0.4688    0.0000 C   0  0  0  0  0  0  0  0  0  0  0  0
    0.0038   -0.0563    0.0000 C   0  0  0  0  0  0  0  0  0  0  0  0
    1.4327   -0.0563    0.0000 C   0  0  0  0  0  0  0  0  0  0  0  0
    2.1472   -0.4688    0.0000 C   0  0  0  0  0  0  0  0  0  0  0  0
    2.8617   -0.0563    0.0000 C   0  0  0  0  0  0  0  0  0  0  0  0
    3.5761   -0.4688    0.0000 C   0  0  0  0  0  0  0  0  0  0  0  0
    4.2906   -0.0563    0.0000 C   0  0  0  0  0  0  0  0  0  0  0  0
  1  2  1  0  0  0  0
  1  3  1  0  0  0  0
  3  4  1  0  0  0  0
  4  5  1  0  0  0  0
  5  6  1  0  0  0  0
  6  7  1  0  0  0  0
M  END
> <ChemID>
100140

> <CAS>
142-82-5

> <Original_SMILES>
CCCCCCC

> <preferred_name>
Heptane

> <dsstox_substance_id>
DTXSID6024127

> <dsstox_compound_id>
DTXCID004127

> <qc_level>
DSSTox_Low

> <Canonical_QSARr>
CCCCCCC

> <InChI_Code_QSARr>
InChI=1S/C7H16/c1-3-5-7-6-4-2/h3-7H2,1-2H3

> <InChI Key_QSARr>
IMNFDUFMRHMDMM-UHFFFAOYSA-N

> <Salt_Solvent>


> <Salt_Solvent_ID>
0

> <MPID>
18954

> <LogKOA_Ref>
Gruber,D et al. (1997)

> <LogKOA>
2.95

> <Tr_1_Tst_0>
0

$$$$
100141
  Mrv171c012251910582D          

  7  6  0  0  0  0            999 V2000
    2.1415   -0.4707    0.0000 N   0  0  0  0  0  0  0  0  0  0  0  0
    1.4271   -0.0582    0.0000 C   0  0  0  0  0  0  0  0  0  0  0  0
    0.7126   -0.4707    0.0000 C   0  0  0  0  0  0  0  0  0  0  0  0
   -0.0019   -0.0582    0.0000 C   0  0  0  0  0  0  0  0  0  0  0  0
    2.8560   -0.0582    0.0000 C   0  0  0  0  0  0  0  0  0  0  0  0
    3.5705   -0.4707    0.0000 C   0  0  0  0  0  0  0  0  0  0  0  0
    4.2850   -0.0582    0.0000 C   0  0  0  0  0  0  0  0  0  0  0  0
  1  2  1  0  0  0  0
  2  3  1  0  0  0  0
  3  4  1  0  0  0  0
  1  5  1  0  0  0  0
  5  6  1  0  0  0  0
  6  7  1  0  0  0  0
M  END
> <ChemID>
100141

> <CAS>
142-84-7

> <Original_SMILES>
CCCNCCC

> <preferred_name>
Dipropylamine

> <dsstox_substance_id>
DTXSID2025185

> <dsstox_compound_id>
DTXCID105185

> <qc_level>
DSSTox_Low

> <Canonical_QSARr>
CCCNCCC

> <InChI_Code_QSARr>
InChI=1S/C6H15N/c1-3-5-7-6-4-2/h7H,3-6H2,1-2H3

> <InChI Key_QSARr>
WEHWNAOGRSTTBQ-UHFFFAOYSA-N

> <Salt_Solvent>


> <Salt_Solvent_ID>
0

> <MPID>
18955

> <LogKOA_Ref>
Abraham,MH et al. (2001)

> <LogKOA>
3.59

> <Tr_1_Tst_0>
1

$$$$
100142
  Mrv171c012251910582D          

 10  9  0  0  0  0            999 V2000
    0.1449   -0.7449    0.0000 C   0  0  0  0  0  0  0  0  0  0  0  0
    0.8594   -1.1574    0.0000 C   0  0  0  0  0  0  0  0  0  0  0  0
    1.5738   -0.7449    0.0000 O   0  0  0  0  0  0  0  0  0  0  0  0
    2.2883   -1.1574    0.0000 C   0  0  0  0  0  0  0  0  0  0  0  0
    3.0028   -0.7449    0.0000 C   0  0  0  0  0  0  0  0  0  0  0  0
    3.7172   -1.1574    0.0000 C   0  0  0  0  0  0  0  0  0  0  0  0
    4.4317   -0.7449    0.0000 C   0  0  0  0  0  0  0  0  0  0  0  0
    5.1462   -1.1574    0.0000 C   0  0  0  0  0  0  0  0  0  0  0  0
    5.8607   -0.7449    0.0000 C   0  0  0  0  0  0  0  0  0  0  0  0
    0.8594   -1.9824    0.0000 O   0  0  0  0  0  0  0  0  0  0  0  0
  1  2  1  0  0  0  0
  2  3  1  0  0  0  0
  3  4  1  0  0  0  0
  4  5  1  0  0  0  0
  5  6  1  0  0  0  0
  6  7  1  0  0  0  0
  7  8  1  0  0  0  0
  8  9  1  0  0  0  0
  2 10  2  0  0  0  0
M  END
> <ChemID>
100142

> <CAS>
142-92-7

> <Original_SMILES>
CCCCCCOC(C)=O

> <preferred_name>
Hexyl acetate

> <dsstox_substance_id>
DTXSID6022006

> <dsstox_compound_id>
DTXCID602006

> <qc_level>
DSSTox_Low

> <Canonical_QSARr>
CCCCCCOC(C)=O

> <InChI_Code_QSARr>
InChI=1S/C8H16O2/c1-3-4-5-6-7-10-8(2)9/h3-7H2,1-2H3

> <InChI Key_QSARr>
AOGQPLXWSUTHQB-UHFFFAOYSA-N

> <Salt_Solvent>


> <Salt_Solvent_ID>
0

> <MPID>
18956

> <LogKOA_Ref>
Abraham,MH et al. (2001)

> <LogKOA>
4.58

> <Tr_1_Tst_0>
1

$$$$
100143
  Mrv171c012251910582D          

  9  8  0  0  0  0            999 V2000
    0.0017   -0.0454    0.0000 C   0  0  0  0  0  0  0  0  0  0  0  0
    0.7161   -0.4579    0.0000 C   0  0  0  0  0  0  0  0  0  0  0  0
    1.4306   -0.0454    0.0000 C   0  0  0  0  0  0  0  0  0  0  0  0
    2.1451   -0.4579    0.0000 C   0  0  0  0  0  0  0  0  0  0  0  0
    2.8595   -0.0454    0.0000 O   0  0  0  0  0  0  0  0  0  0  0  0
    3.5740   -0.4579    0.0000 C   0  0  0  0  0  0  0  0  0  0  0  0
    4.2885   -0.0454    0.0000 C   0  0  0  0  0  0  0  0  0  0  0  0
    5.0030   -0.4579    0.0000 C   0  0  0  0  0  0  0  0  0  0  0  0
    5.7174   -0.0454    0.0000 C   0  0  0  0  0  0  0  0  0  0  0  0
  1  2  1  0  0  0  0
  2  3  1  0  0  0  0
  3  4  1  0  0  0  0
  4  5  1  0  0  0  0
  5  6  1  0  0  0  0
  6  7  1  0  0  0  0
  7  8  1  0  0  0  0
  8  9  1  0  0  0  0
M  END
> <ChemID>
100143

> <CAS>
142-96-1

> <Original_SMILES>
CCCCOCCCC

> <preferred_name>
Butyl ether

> <dsstox_substance_id>
DTXSID1022007

> <dsstox_compound_id>
DTXCID002007

> <qc_level>
DSSTox_Low

> <Canonical_QSARr>
CCCCOCCCC

> <InChI_Code_QSARr>
InChI=1S/C8H18O/c1-3-5-7-9-8-6-4-2/h3-8H2,1-2H3

> <InChI Key_QSARr>
DURPTKYDGMDSBL-UHFFFAOYSA-N

> <Salt_Solvent>


> <Salt_Solvent_ID>
0

> <MPID>
18957

> <LogKOA_Ref>
Abraham,MH et al. (2001)

> <LogKOA>
3.89

> <Tr_1_Tst_0>
1

$$$$
100144
  Mrv171c012251910582D          

  4  3  0  0  0  0            999 V2000
    1.2375    0.7145    0.0000 Cl  0  0  0  0  0  0  0  0  0  0  0  0
    0.8250    0.0000    0.0000 C   0  0  0  0  0  0  0  0  0  0  0  0
    0.0000    0.0000    0.0000 C   0  0  0  0  0  0  0  0  0  0  0  0
   -0.4125   -0.7145    0.0000 Cl  0  0  0  0  0  0  0  0  0  0  0  0
  2  1  1  4  0  0  0
  2  3  2  0  0  0  0
  3  4  1  0  0  0  0
M  END
> <ChemID>
100144

> <CAS>
156-59-2

> <Original_SMILES>
Cl/C=C\Cl

> <preferred_name>
(Z)-1,2-Dichloroethylene

> <dsstox_substance_id>
DTXSID2024030

> <dsstox_compound_id>
DTXCID304030

> <qc_level>
DSSTox_Low

> <Canonical_QSARr>
ClC=CCl

> <InChI_Code_QSARr>
InChI=1S/C2H2Cl2/c3-1-2-4/h1-2H

> <InChI Key_QSARr>
KFUSEUYYWQURPO-UHFFFAOYSA-N

> <Salt_Solvent>


> <Salt_Solvent_ID>
0

> <MPID>
18958

> <LogKOA_Ref>
Abraham,MH et al. (2001)

> <LogKOA>
2.56

> <Tr_1_Tst_0>
0

$$$$
100145
  Mrv171c012251910582D          

 16 19  0  0  0  0            999 V2000
    1.7518   -1.4991    0.0000 C   0  0  0  0  0  0  0  0  0  0  0  0
    2.0068   -2.2837    0.0000 C   0  0  0  0  0  0  0  0  0  0  0  0
    2.8318   -2.2837    0.0000 C   0  0  0  0  0  0  0  0  0  0  0  0
    3.0867   -1.4991    0.0000 C   0  0  0  0  0  0  0  0  0  0  0  0
    2.4193   -1.0142    0.0000 C   0  0  0  0  0  0  0  0  0  0  0  0
    2.3330   -0.1937    0.0000 C   0  0  0  0  0  0  0  0  0  0  0  0
    1.5794    0.1419    0.0000 C   0  0  0  0  0  0  0  0  0  0  0  0
    0.9119   -0.3430    0.0000 C   0  0  0  0  0  0  0  0  0  0  0  0
    0.9449   -1.3276    0.0000 C   0  0  0  0  0  0  0  0  0  0  0  0
    0.3928   -1.9407    0.0000 C   0  0  0  0  0  0  0  0  0  0  0  0
    0.6478   -2.7253    0.0000 C   0  0  0  0  0  0  0  0  0  0  0  0
    1.4547   -2.8968    0.0000 C   0  0  0  0  0  0  0  0  0  0  0  0
    3.8937   -1.3276    0.0000 C   0  0  0  0  0  0  0  0  0  0  0  0
    4.4457   -1.9407    0.0000 C   0  0  0  0  0  0  0  0  0  0  0  0
    4.1908   -2.7253    0.0000 C   0  0  0  0  0  0  0  0  0  0  0  0
    3.3838   -2.8968    0.0000 C   0  0  0  0  0  0  0  0  0  0  0  0
  2  1  1  0  0  0  0
  2  3  1  0  0  0  0
  4  3  2  0  0  0  0
  4  5  1  0  0  0  0
  5  1  2  0  0  0  0
  5  6  1  0  0  0  0
  6  7  2  0  0  0  0
  7  8  1  0  0  0  0
  8  9  2  0  0  0  0
  1  9  1  0  0  0  0
  9 10  1  0  0  0  0
 10 11  2  0  0  0  0
 11 12  1  0  0  0  0
 12  2  2  0  0  0  0
 13  4  1  0  0  0  0
 14 13  2  0  0  0  0
 15 14  1  0  0  0  0
 16 15  2  0  0  0  0
  3 16  1  0  0  0  0
M  END
> <ChemID>
100145

> <CAS>
206-44-0

> <Original_SMILES>
c1ccc2c3c(cccc31)-c1ccccc1-2

> <preferred_name>
Fluoranthene

> <dsstox_substance_id>
DTXSID3024104

> <dsstox_compound_id>
DTXCID204104

> <qc_level>
DSSTox_Low

> <Canonical_QSARr>
C1=CC=C2C3=C(C=CC=C31)C1C=CC=CC=12

> <InChI_Code_QSARr>
InChI=1S/C16H10/c1-2-8-13-12(7-1)14-9-3-5-11-6-4-10-15(13)16(11)14/h1-10H

> <InChI Key_QSARr>
GVEPBJHOBDJJJI-UHFFFAOYSA-N

> <Salt_Solvent>


> <Salt_Solvent_ID>
0

> <MPID>
18959

> <LogKOA_Ref>
Harner,T & Bidleman,TF (1998)

> <LogKOA>
8.88

> <Tr_1_Tst_0>
1

$$$$
100146
  Mrv171c012251910582D          

 18 21  0  0  0  0            999 V2000
   -0.3589    0.4477    0.0000 C   0  0  0  0  0  0  0  0  0  0  0  0
    0.4683    0.8300    0.0000 C   0  0  0  0  0  0  0  0  0  0  0  0
    0.6746    0.0050    0.0000 C   0  0  0  0  0  0  0  0  0  0  0  0
    0.0262    0.8109    0.0000 Cl  0  0  0  0  0  0  0  0  0  0  0  0
    0.0153   -0.8830    0.0000 Cl  0  0  0  0  0  0  0  0  0  0  0  0
    0.4683   -0.8200    0.0000 C   0  0  0  0  0  0  0  0  0  0  0  0
    0.6568   -1.6979    0.0000 Cl  0  0  0  0  0  0  0  0  0  0  0  0
    1.1828   -0.4075    0.0000 C   0  0  0  0  0  0  0  0  0  0  0  0
    1.1828    0.4175    0.0000 C   0  0  0  0  0  0  0  0  0  0  0  0
    1.9390    0.8445    0.0000 Cl  0  0  0  0  0  0  0  0  0  0  0  0
    1.9455   -0.8253    0.0000 Cl  0  0  0  0  0  0  0  0  0  0  0  0
   -0.2462   -0.4075    0.0000 C   0  0  0  0  0  0  0  0  0  0  0  0
   -0.9606   -0.8200    0.0000 C   0  0  0  0  0  0  0  0  0  0  0  0
   -1.1669    0.0050    0.0000 C   0  0  0  0  0  0  0  0  0  0  0  0
   -0.9606    0.8300    0.0000 C   0  0  0  0  0  0  0  0  0  0  0  0
   -1.6751    0.4175    0.0000 C   0  0  0  0  0  0  0  0  0  0  0  0
   -1.6751   -0.4075    0.0000 C   0  0  0  0  0  0  0  0  0  0  0  0
    0.5213    1.7138    0.0000 Cl  0  0  0  0  0  0  0  0  0  0  0  0
  2  1  1  0  0  0  0
  2  3  1  0  0  0  0
  3  4  1  0  0  0  0
  3  5  1  0  0  0  0
  3  6  1  0  0  0  0
  6  7  1  0  0  0  0
  6  8  1  0  0  0  0
  8  9  2  0  0  0  0
  9  2  1  0  0  0  0
  9 10  1  0  0  0  0
  8 11  1  0  0  0  0
 12  6  1  0  0  0  0
 12  1  1  0  0  0  0
 13 12  1  0  0  0  0
 13 14  1  0  0  0  0
 14 15  1  0  0  0  0
  1 15  1  0  0  0  0
 15 16  1  0  0  0  0
 16 17  2  0  0  0  0
 17 13  1  0  0  0  0
  2 18  1  0  0  0  0
M  END
> <ChemID>
100146

> <CAS>
309-00-2

> <Original_SMILES>
ClC1(Cl)[C@@]2(Cl)[C@@H]3[C@@H]4C[C@@H](C=C4)[C@@H]3[C@]1(Cl)C(Cl)=C2Cl

> <preferred_name>
Aldrin

> <dsstox_substance_id>
DTXSID8020040

> <dsstox_compound_id>
DTXCID10819882

> <qc_level>
DSSTox_High

> <Canonical_QSARr>
ClC1(Cl)C2(Cl)C3C4CC(C=C4)C3C1(Cl)C(Cl)=C2Cl

> <InChI_Code_QSARr>
InChI=1S/C12H8Cl6/c13-8-9(14)11(16)7-5-2-1-4(3-5)6(7)10(8,15)12(11,17)18/h1-2,4-7H,3H2

> <InChI Key_QSARr>
QBYJBZPUGVGKQQ-UHFFFAOYSA-N

> <Salt_Solvent>


> <Salt_Solvent_ID>
0

> <MPID>
18960

> <LogKOA_Ref>
Shoeib,M & Harner,T (2002)

> <LogKOA>
8.08

> <Tr_1_Tst_0>
1

$$$$
100150
  Mrv171c012251910582D          

  4  3  0  0  0  0            999 V2000
    1.2962   -0.5987    0.0000 C   0  0  0  0  0  0  0  0  0  0  0  0
    2.1212   -0.5987    0.0000 Cl  0  0  0  0  0  0  0  0  0  0  0  0
    0.8837    0.1158    0.0000 C   0  0  0  0  0  0  0  0  0  0  0  0
    0.0587    0.1158    0.0000 C   0  0  0  0  0  0  0  0  0  0  0  0
  1  2  1  0  0  0  0
  1  3  1  0  0  0  0
  3  4  1  0  0  0  0
M  END
> <ChemID>
100150

> <CAS>
540-54-5

> <Original_SMILES>
CCCCl

> <preferred_name>
1-Chloropropane

> <dsstox_substance_id>
DTXSID3051462

> <dsstox_compound_id>
DTXCID708459

> <qc_level>
DSSTox_High

> <Canonical_QSARr>
CCCCl

> <InChI_Code_QSARr>
InChI=1S/C3H7Cl/c1-2-3-4/h2-3H2,1H3

> <InChI Key_QSARr>
SNMVRZFUUCLYTO-UHFFFAOYSA-N

> <Salt_Solvent>


> <Salt_Solvent_ID>
0

> <MPID>
18964

> <LogKOA_Ref>
Abraham,MH et al. (2001)

> <LogKOA>
2.24

> <Tr_1_Tst_0>
1

$$$$
100151
  Mrv171c012251910582D          

  8  8  0  0  0  0            999 V2000
    0.1795   -1.9594    0.0000 Cl  0  0  0  0  0  0  0  0  0  0  0  0
    0.8940   -1.5469    0.0000 C   0  0  0  0  0  0  0  0  0  0  0  0
    1.6084   -1.9594    0.0000 C   0  0  0  0  0  0  0  0  0  0  0  0
    2.3229   -1.5469    0.0000 C   0  0  0  0  0  0  0  0  0  0  0  0
    2.3229   -0.7219    0.0000 C   0  0  0  0  0  0  0  0  0  0  0  0
    1.6084   -0.3094    0.0000 C   0  0  0  0  0  0  0  0  0  0  0  0
    1.6084    0.5156    0.0000 Cl  0  0  0  0  0  0  0  0  0  0  0  0
    0.8940   -0.7219    0.0000 C   0  0  0  0  0  0  0  0  0  0  0  0
  1  2  1  0  0  0  0
  3  2  1  0  0  0  0
  4  3  2  0  0  0  0
  5  4  1  0  0  0  0
  6  5  2  0  0  0  0
  6  7  1  0  0  0  0
  8  6  1  0  0  0  0
  2  8  2  0  0  0  0
M  END
> <ChemID>
100151

> <CAS>
541-73-1

> <Original_SMILES>
Clc1cc(Cl)ccc1

> <preferred_name>
1,3-Dichlorobenzene

> <dsstox_substance_id>
DTXSID6022056

> <dsstox_compound_id>
DTXCID102056

> <qc_level>
DSSTox_Low

> <Canonical_QSARr>
ClC1=CC(Cl)=CC=C1

> <InChI_Code_QSARr>
InChI=1S/C6H4Cl2/c7-5-2-1-3-6(8)4-5/h1-4H

> <InChI Key_QSARr>
ZPQOPVIELGIULI-UHFFFAOYSA-N

> <Salt_Solvent>


> <Salt_Solvent_ID>
0

> <MPID>
18965

> <LogKOA_Ref>
Su,Y et al. (2002)

> <LogKOA>
4.12

> <Tr_1_Tst_0>
0

$$$$
100152
  Mrv171c012251910582D          

  6  5  0  0  0  0            999 V2000
    1.2370   -2.1431    0.0000 C   0  0  0  0  0  0  0  0  0  0  0  0
    0.8245   -1.4286    0.0000 C   0  0  0  0  0  0  0  0  0  0  0  0
    1.2370   -0.7141    0.0000 C   0  0  0  0  0  0  0  0  0  0  0  0
    0.8245    0.0003    0.0000 C   0  0  0  0  0  0  0  0  0  0  0  0
    2.0620   -0.7141    0.0000 C   0  0  0  0  0  0  0  0  0  0  0  0
   -0.0005   -1.4286    0.0000 O   0  0  0  0  0  0  0  0  0  0  0  0
  1  2  1  0  0  0  0
  2  3  1  0  0  0  0
  3  4  1  0  0  0  0
  3  5  1  0  0  0  0
  2  6  2  0  0  0  0
M  END
> <ChemID>
100152

> <CAS>
563-80-4

> <Original_SMILES>
CC(C)C(C)=O

> <preferred_name>
3-Methyl-2-butanone

> <dsstox_substance_id>
DTXSID0022062

> <dsstox_compound_id>
DTXCID802062

> <qc_level>
DSSTox_Low

> <Canonical_QSARr>
CC(C)C(C)=O

> <InChI_Code_QSARr>
InChI=1S/C5H10O/c1-4(2)5(3)6/h4H,1-3H3

> <InChI Key_QSARr>
SYBYTAAJFKOIEJ-UHFFFAOYSA-N

> <Salt_Solvent>


> <Salt_Solvent_ID>
0

> <MPID>
18966

> <LogKOA_Ref>
Abraham,MH et al. (2001)

> <LogKOA>
3.04

> <Tr_1_Tst_0>
1

$$$$
100153
  Mrv171c012251910582D          

  7  6  0  0  0  0            999 V2000
    0.0021   -0.9433    0.0000 C   0  0  0  0  0  0  0  0  0  0  0  0
    0.7166   -0.5308    0.0000 C   0  0  0  0  0  0  0  0  0  0  0  0
    1.4311   -0.9433    0.0000 C   0  0  0  0  0  0  0  0  0  0  0  0
    2.1455   -0.5308    0.0000 C   0  0  0  0  0  0  0  0  0  0  0  0
    2.8600   -0.9433    0.0000 C   0  0  0  0  0  0  0  0  0  0  0  0
    3.5745   -0.5308    0.0000 C   0  0  0  0  0  0  0  0  0  0  0  0
    2.8600   -1.7683    0.0000 O   0  0  0  0  0  0  0  0  0  0  0  0
  1  2  1  0  0  0  0
  2  3  1  0  0  0  0
  3  4  1  0  0  0  0
  4  5  1  0  0  0  0
  5  6  1  0  0  0  0
  5  7  2  0  0  0  0
M  END
> <ChemID>
100153

> <CAS>
591-78-6

> <Original_SMILES>
CCCCC(C)=O

> <preferred_name>
2-Hexanone

> <dsstox_substance_id>
DTXSID0022068

> <dsstox_compound_id>
DTXCID202068

> <qc_level>
DSSTox_Low

> <Canonical_QSARr>
CCCCC(C)=O

> <InChI_Code_QSARr>
InChI=1S/C6H12O/c1-3-4-5-6(2)7/h3-5H2,1-2H3

> <InChI Key_QSARr>
QQZOPKMRPOGIEB-UHFFFAOYSA-N

> <Salt_Solvent>


> <Salt_Solvent_ID>
0

> <MPID>
18967

> <LogKOA_Ref>
Abraham,MH et al. (2001)

> <LogKOA>
3.68

> <Tr_1_Tst_0>
1

$$$$
100154
  Mrv171c012251910582D          

  6  5  0  0  0  0            999 V2000
    2.1452    0.0006    0.0000 C   0  0  0  0  0  0  0  0  0  0  0  0
    1.4307   -0.4119    0.0000 C   0  0  0  0  0  0  0  0  0  0  0  0
    0.7163    0.0006    0.0000 C   0  0  0  0  0  0  0  0  0  0  0  0
    0.0018   -0.4119    0.0000 C   0  0  0  0  0  0  0  0  0  0  0  0
    2.8597   -0.4119    0.0000 C   0  0  0  0  0  0  0  0  0  0  0  0
    3.5741    0.0006    0.0000 C   0  0  0  0  0  0  0  0  0  0  0  0
  1  2  1  0  0  0  0
  2  3  1  0  0  0  0
  3  4  2  0  0  0  0
  1  5  1  0  0  0  0
  5  6  1  0  0  0  0
M  END
> <ChemID>
100154

> <CAS>
592-41-6

> <Original_SMILES>
CCCCC=C

> <preferred_name>
1-Hexene

> <dsstox_substance_id>
DTXSID4025402

> <dsstox_compound_id>
DTXCID105402

> <qc_level>
DSSTox_Low

> <Canonical_QSARr>
CCCCC=C

> <InChI_Code_QSARr>
InChI=1S/C6H12/c1-3-5-6-4-2/h3H,1,4-6H2,2H3

> <InChI Key_QSARr>
LIKMAJRDDDTEIG-UHFFFAOYSA-N

> <Salt_Solvent>


> <Salt_Solvent_ID>
0

> <MPID>
18968

> <LogKOA_Ref>
Gruber,D et al. (1997)

> <LogKOA>
2.41

> <Tr_1_Tst_0>
1

$$$$
100156
  Mrv171c012251910582D          

 11 11  0  0  0  0            999 V2000
    2.2661   -1.3099    0.0000 C   0  0  0  0  0  0  0  0  0  0  0  0
    2.9805   -1.7224    0.0000 Cl  0  0  0  0  0  0  0  0  0  0  0  0
    2.2661   -0.4849    0.0000 C   0  0  0  0  0  0  0  0  0  0  0  0
    1.5516   -0.0724    0.0000 C   0  0  0  0  0  0  0  0  0  0  0  0
    1.5516    0.7526    0.0000 Cl  0  0  0  0  0  0  0  0  0  0  0  0
    0.8371   -0.4849    0.0000 C   0  0  0  0  0  0  0  0  0  0  0  0
    0.1226   -0.0724    0.0000 Cl  0  0  0  0  0  0  0  0  0  0  0  0
    0.8371   -1.3099    0.0000 C   0  0  0  0  0  0  0  0  0  0  0  0
    0.1226   -1.7224    0.0000 Cl  0  0  0  0  0  0  0  0  0  0  0  0
    1.5516   -1.7224    0.0000 C   0  0  0  0  0  0  0  0  0  0  0  0
    1.5516   -2.5474    0.0000 Cl  0  0  0  0  0  0  0  0  0  0  0  0
  1  2  1  0  0  0  0
  3  1  2  0  0  0  0
  4  3  1  0  0  0  0
  4  5  1  0  0  0  0
  6  4  2  0  0  0  0
  6  7  1  0  0  0  0
  8  6  1  0  0  0  0
  8  9  1  0  0  0  0
 10  8  2  0  0  0  0
  1 10  1  0  0  0  0
 10 11  1  0  0  0  0
M  END
> <ChemID>
100156

> <CAS>
608-93-5

> <Original_SMILES>
Clc1c(Cl)c(Cl)cc(Cl)c1Cl

> <preferred_name>
Pentachlorobenzene

> <dsstox_substance_id>
DTXSID7024247

> <dsstox_compound_id>
DTXCID804247

> <qc_level>
DSSTox_Low

> <Canonical_QSARr>
ClC1=CC(Cl)=C(Cl)C(Cl)=C1Cl

> <InChI_Code_QSARr>
InChI=1S/C6HCl5/c7-2-1-3(8)5(10)6(11)4(2)9/h1H

> <InChI Key_QSARr>
CEOCDNVZRAIOQZ-UHFFFAOYSA-N

> <Salt_Solvent>


> <Salt_Solvent_ID>
0

> <MPID>
18969

> <LogKOA_Ref>
Abraham,MH et al. (2001)

> <LogKOA>
6.49

> <Tr_1_Tst_0>
0

$$$$
100157
  Mrv171c012251910582D          

  9  8  0  0  0  0            999 V2000
    2.4750   -1.4289    0.0000 C   0  0  0  0  0  0  0  0  0  0  0  0
    1.7605   -1.0164    0.0000 C   0  0  0  0  0  0  0  0  0  0  0  0
    2.4750   -2.2539    0.0000 C   0  0  0  0  0  0  0  0  0  0  0  0
    3.1894   -1.0164    0.0000 C   0  0  0  0  0  0  0  0  0  0  0  0
    3.9039   -1.4289    0.0000 O   0  0  0  0  0  0  0  0  0  0  0  0
    4.6184   -1.0164    0.0000 C   0  0  0  0  0  0  0  0  0  0  0  0
    5.3328   -1.4289    0.0000 C   0  0  0  0  0  0  0  0  0  0  0  0
    6.0473   -1.0164    0.0000 C   0  0  0  0  0  0  0  0  0  0  0  0
    5.3328   -2.2539    0.0000 C   0  0  0  0  0  0  0  0  0  0  0  0
  1  2  1  0  0  0  0
  1  3  1  0  0  0  0
  1  4  1  0  0  0  0
  4  5  1  0  0  0  0
  5  6  1  0  0  0  0
  6  7  1  0  0  0  0
  7  8  1  0  0  0  0
  7  9  1  0  0  0  0
M  END
> <ChemID>
100157

> <CAS>
628-55-7

> <Original_SMILES>
CC(C)COCC(C)C

> <preferred_name>
Propane, 1,1'-oxybis[2-methyl-

> <dsstox_substance_id>
DTXSID0060856

> <dsstox_compound_id>
DTXCID6043549

> <qc_level>
Public_High

> <Canonical_QSARr>
CC(C)COCC(C)C

> <InChI_Code_QSARr>
InChI=1S/C8H18O/c1-7(2)5-9-6-8(3)4/h7-8H,5-6H2,1-4H3

> <InChI Key_QSARr>
SZNYYWIUQFZLLT-UHFFFAOYSA-N

> <Salt_Solvent>


> <Salt_Solvent_ID>
0

> <MPID>
18970

> <LogKOA_Ref>
Abraham,MH et al. (2001)

> <LogKOA>
3.4

> <Tr_1_Tst_0>
1

$$$$
100158
  Mrv171c012251910582D          

  9  8  0  0  0  0            999 V2000
    0.7022   -0.2317    0.0000 C   0  0  0  0  0  0  0  0  0  0  0  0
   -0.0122   -0.6442    0.0000 C   0  0  0  0  0  0  0  0  0  0  0  0
    1.4167   -0.6442    0.0000 O   0  0  0  0  0  0  0  0  0  0  0  0
    2.1312   -0.2317    0.0000 C   0  0  0  0  0  0  0  0  0  0  0  0
    2.8456   -0.6442    0.0000 C   0  0  0  0  0  0  0  0  0  0  0  0
    3.5601   -0.2317    0.0000 C   0  0  0  0  0  0  0  0  0  0  0  0
    4.2746   -0.6442    0.0000 C   0  0  0  0  0  0  0  0  0  0  0  0
    4.9891   -0.2317    0.0000 C   0  0  0  0  0  0  0  0  0  0  0  0
    0.7022    0.5933    0.0000 O   0  0  0  0  0  0  0  0  0  0  0  0
  1  2  1  0  0  0  0
  1  3  1  0  0  0  0
  3  4  1  0  0  0  0
  4  5  1  0  0  0  0
  5  6  1  0  0  0  0
  6  7  1  0  0  0  0
  7  8  1  0  0  0  0
  1  9  2  0  0  0  0
M  END
> <ChemID>
100158

> <CAS>
628-63-7

> <Original_SMILES>
CCCCCOC(C)=O

> <preferred_name>
Pentyl acetate

> <dsstox_substance_id>
DTXSID1027263

> <dsstox_compound_id>
DTXCID107263

> <qc_level>
DSSTox_Low

> <Canonical_QSARr>
CCCCCOC(C)=O

> <InChI_Code_QSARr>
InChI=1S/C7H14O2/c1-3-4-5-6-9-7(2)8/h3-6H2,1-2H3

> <InChI Key_QSARr>
PGMYKACGEOXYJE-UHFFFAOYSA-N

> <Salt_Solvent>


> <Salt_Solvent_ID>
0

> <MPID>
18971

> <LogKOA_Ref>
Abraham,MH et al. (2001)

> <LogKOA>
4.12

> <Tr_1_Tst_0>
1

$$$$
100159
  Mrv171c012251910582D          

  7  6  0  0  0  0            999 V2000
    2.4749    1.4289    0.0000 C   0  0  0  0  0  0  0  0  0  0  0  0
    1.7605    1.0164    0.0000 N   0  0  0  0  0  0  0  0  0  0  0  0
    3.1894    1.8414    0.0000 C   0  0  0  0  0  0  0  0  0  0  0  0
    3.9039    1.4289    0.0000 C   0  0  0  0  0  0  0  0  0  0  0  0
    4.6184    1.8414    0.0000 C   0  0  0  0  0  0  0  0  0  0  0  0
    5.3328    1.4289    0.0000 C   0  0  0  0  0  0  0  0  0  0  0  0
    6.0473    1.8414    0.0000 C   0  0  0  0  0  0  0  0  0  0  0  0
  1  2  3  0  0  0  0
  1  3  1  0  0  0  0
  3  4  1  0  0  0  0
  4  5  1  0  0  0  0
  5  6  1  0  0  0  0
  6  7  1  0  0  0  0
M  END
> <ChemID>
100159

> <CAS>
628-73-9

> <Original_SMILES>
CCCCCC#N

> <preferred_name>
Hexanenitrile

> <dsstox_substance_id>
DTXSID0060858

> <dsstox_compound_id>
DTXCID0043551

> <qc_level>
Public_High

> <Canonical_QSARr>
CCCCCC#N

> <InChI_Code_QSARr>
InChI=1S/C6H11N/c1-2-3-4-5-6-7/h2-5H2,1H3

> <InChI Key_QSARr>
AILKHAQXUAOOFU-UHFFFAOYSA-N

> <Salt_Solvent>


> <Salt_Solvent_ID>
0

> <MPID>
18972

> <LogKOA_Ref>
Abraham,MH et al. (2001)

> <LogKOA>
4.08

> <Tr_1_Tst_0>
1

$$$$
100160
  Mrv171c012251910582D          

 21 20  0  0  0  0            999 V2000
    0.8288   -0.4214    0.0000 C   0  0  0  0  0  0  0  0  0  0  0  0
    0.1144   -0.0089    0.0000 O   0  0  0  0  0  0  0  0  0  0  0  0
    1.5433   -0.0089    0.0000 C   0  0  0  0  0  0  0  0  0  0  0  0
    2.2578   -0.4214    0.0000 C   0  0  0  0  0  0  0  0  0  0  0  0
    2.9722   -0.0089    0.0000 C   0  0  0  0  0  0  0  0  0  0  0  0
    3.6867   -0.4214    0.0000 C   0  0  0  0  0  0  0  0  0  0  0  0
    4.4012   -0.0089    0.0000 C   0  0  0  0  0  0  0  0  0  0  0  0
    5.1157   -0.4214    0.0000 C   0  0  0  0  0  0  0  0  0  0  0  0
    5.8301   -0.0089    0.0000 C   0  0  0  0  0  0  0  0  0  0  0  0
    6.5446   -0.4214    0.0000 C   0  0  0  0  0  0  0  0  0  0  0  0
    7.2591   -0.0089    0.0000 C   0  0  0  0  0  0  0  0  0  0  0  0
    7.9735   -0.4214    0.0000 C   0  0  0  0  0  0  0  0  0  0  0  0
    8.6880   -0.0089    0.0000 C   0  0  0  0  0  0  0  0  0  0  0  0
    9.4025   -0.4214    0.0000 C   0  0  0  0  0  0  0  0  0  0  0  0
   10.1170   -0.0089    0.0000 C   0  0  0  0  0  0  0  0  0  0  0  0
   10.8314   -0.4214    0.0000 C   0  0  0  0  0  0  0  0  0  0  0  0
   11.5459   -0.0089    0.0000 C   0  0  0  0  0  0  0  0  0  0  0  0
   12.2604   -0.4214    0.0000 C   0  0  0  0  0  0  0  0  0  0  0  0
   12.9748   -0.0089    0.0000 C   0  0  0  0  0  0  0  0  0  0  0  0
   13.6893   -0.4214    0.0000 C   0  0  0  0  0  0  0  0  0  0  0  0
   14.4038   -0.0089    0.0000 C   0  0  0  0  0  0  0  0  0  0  0  0
  1  2  1  0  0  0  0
  1  3  1  0  0  0  0
  3  4  1  0  0  0  0
  4  5  1  0  0  0  0
  5  6  1  0  0  0  0
  6  7  1  0  0  0  0
  7  8  1  0  0  0  0
  8  9  1  0  0  0  0
  9 10  1  0  0  0  0
 10 11  1  0  0  0  0
 11 12  1  0  0  0  0
 12 13  1  0  0  0  0
 13 14  1  0  0  0  0
 14 15  1  0  0  0  0
 15 16  1  0  0  0  0
 16 17  1  0  0  0  0
 17 18  1  0  0  0  0
 18 19  1  0  0  0  0
 19 20  1  0  0  0  0
 20 21  1  0  0  0  0
M  END
> <ChemID>
100160

> <CAS>
629-96-9

> <Original_SMILES>
CCCCCCCCCCCCCCCCCCCCO

> <preferred_name>
1-Eicosanol

> <dsstox_substance_id>
DTXSID0027272

> <dsstox_compound_id>
DTXCID007272

> <qc_level>
DSSTox_Low

> <Canonical_QSARr>
CCCCCCCCCCCCCCCCCCCCO

> <InChI_Code_QSARr>
InChI=1S/C20H42O/c1-2-3-4-5-6-7-8-9-10-11-12-13-14-15-16-17-18-19-20-21/h21H,2-20H2,1H3

> <InChI Key_QSARr>
BTFJIXJJCSYFAL-UHFFFAOYSA-N

> <Salt_Solvent>


> <Salt_Solvent_ID>
0

> <MPID>
18973

> <LogKOA_Ref>
Abraham,MH et al. (2001)

> <LogKOA>
12.06

> <Tr_1_Tst_0>
0

$$$$
100161
  Mrv171c012251910582D          

 10 10  0  0  0  0            999 V2000
    2.9360   -0.5675    0.0000 Cl  0  0  0  0  0  0  0  0  0  0  0  0
    2.2215   -0.9800    0.0000 C   0  0  0  0  0  0  0  0  0  0  0  0
    1.5071   -0.5675    0.0000 C   0  0  0  0  0  0  0  0  0  0  0  0
    1.5071    0.2575    0.0000 Cl  0  0  0  0  0  0  0  0  0  0  0  0
    0.7926   -0.9800    0.0000 C   0  0  0  0  0  0  0  0  0  0  0  0
    0.0781   -0.5675    0.0000 Cl  0  0  0  0  0  0  0  0  0  0  0  0
    0.7926   -1.8050    0.0000 C   0  0  0  0  0  0  0  0  0  0  0  0
    1.5071   -2.2175    0.0000 C   0  0  0  0  0  0  0  0  0  0  0  0
    2.2215   -1.8050    0.0000 C   0  0  0  0  0  0  0  0  0  0  0  0
    2.9360   -2.2175    0.0000 Cl  0  0  0  0  0  0  0  0  0  0  0  0
  1  2  1  0  0  0  0
  3  2  1  0  0  0  0
  3  4  1  0  0  0  0
  5  3  2  0  0  0  0
  5  6  1  0  0  0  0
  7  5  1  0  0  0  0
  8  7  2  0  0  0  0
  9  8  1  0  0  0  0
  2  9  2  0  0  0  0
  9 10  1  0  0  0  0
M  END
> <ChemID>
100161

> <CAS>
634-66-2

> <Original_SMILES>
Clc1ccc(Cl)c(Cl)c1Cl

> <preferred_name>
1,2,3,4-Tetrachlorobenzene

> <dsstox_substance_id>
DTXSID6026088

> <dsstox_compound_id>
DTXCID206088

> <qc_level>
DSSTox_Low

> <Canonical_QSARr>
ClC1C=CC(Cl)=C(Cl)C=1Cl

> <InChI_Code_QSARr>
InChI=1S/C6H2Cl4/c7-3-1-2-4(8)6(10)5(3)9/h1-2H

> <InChI Key_QSARr>
GBDZXPJXOMHESU-UHFFFAOYSA-N

> <Salt_Solvent>


> <Salt_Solvent_ID>
0

> <MPID>
18974

> <LogKOA_Ref>
Harner,T & Mackay,D (1995)

> <LogKOA>
5.64

> <Tr_1_Tst_0>
1

$$$$
100162
  Mrv171c012251910582D          

 10 10  0  0  0  0            999 V2000
    3.0980   -0.6840    0.0000 Cl  0  0  0  0  0  0  0  0  0  0  0  0
    2.3835   -1.0965    0.0000 C   0  0  0  0  0  0  0  0  0  0  0  0
    1.6691   -0.6840    0.0000 C   0  0  0  0  0  0  0  0  0  0  0  0
    1.6691    0.1410    0.0000 Cl  0  0  0  0  0  0  0  0  0  0  0  0
    0.9546   -1.0965    0.0000 C   0  0  0  0  0  0  0  0  0  0  0  0
    0.9546   -1.9215    0.0000 C   0  0  0  0  0  0  0  0  0  0  0  0
    0.2401   -2.3340    0.0000 Cl  0  0  0  0  0  0  0  0  0  0  0  0
    1.6691   -2.3340    0.0000 C   0  0  0  0  0  0  0  0  0  0  0  0
    2.3835   -1.9215    0.0000 C   0  0  0  0  0  0  0  0  0  0  0  0
    3.0980   -2.3340    0.0000 Cl  0  0  0  0  0  0  0  0  0  0  0  0
  1  2  1  0  0  0  0
  3  2  1  0  0  0  0
  3  4  1  0  0  0  0
  5  3  2  0  0  0  0
  6  5  1  0  0  0  0
  6  7  1  0  0  0  0
  8  6  2  0  0  0  0
  9  8  1  0  0  0  0
  2  9  2  0  0  0  0
  9 10  1  0  0  0  0
M  END
> <ChemID>
100162

> <CAS>
634-90-2

> <Original_SMILES>
Clc1cc(Cl)c(Cl)c(Cl)c1

> <preferred_name>
1,2,3,5-Tetrachlorobenzene

> <dsstox_substance_id>
DTXSID1026089

> <dsstox_compound_id>
DTXCID606089

> <qc_level>
DSSTox_Low

> <Canonical_QSARr>
ClC1C=C(Cl)C=C(Cl)C=1Cl

> <InChI_Code_QSARr>
InChI=1S/C6H2Cl4/c7-3-1-4(8)6(10)5(9)2-3/h1-2H

> <InChI Key_QSARr>
QZYNWJQFTJXIRN-UHFFFAOYSA-N

> <Salt_Solvent>


> <Salt_Solvent_ID>
0

> <MPID>
18975

> <LogKOA_Ref>
Abraham,MH et al. (2001)

> <LogKOA>
5.55

> <Tr_1_Tst_0>
1

$$$$
100163
  Mrv171c012251910582D          

 11 10  0  0  0  0            999 V2000
   -0.0041   -0.0383    0.0000 C   0  0  0  0  0  0  0  0  0  0  0  0
    0.7104   -0.4508    0.0000 C   0  0  0  0  0  0  0  0  0  0  0  0
    1.4248   -0.0383    0.0000 C   0  0  0  0  0  0  0  0  0  0  0  0
    2.1393   -0.4508    0.0000 C   0  0  0  0  0  0  0  0  0  0  0  0
    2.8538   -0.0383    0.0000 C   0  0  0  0  0  0  0  0  0  0  0  0
    3.5682   -0.4508    0.0000 O   0  0  0  0  0  0  0  0  0  0  0  0
    4.2827   -0.0383    0.0000 C   0  0  0  0  0  0  0  0  0  0  0  0
    4.9972   -0.4508    0.0000 C   0  0  0  0  0  0  0  0  0  0  0  0
    5.7117   -0.0383    0.0000 C   0  0  0  0  0  0  0  0  0  0  0  0
    6.4261   -0.4508    0.0000 C   0  0  0  0  0  0  0  0  0  0  0  0
    7.1406   -0.0383    0.0000 C   0  0  0  0  0  0  0  0  0  0  0  0
  1  2  1  0  0  0  0
  2  3  1  0  0  0  0
  3  4  1  0  0  0  0
  4  5  1  0  0  0  0
  5  6  1  0  0  0  0
  6  7  1  0  0  0  0
  7  8  1  0  0  0  0
  8  9  1  0  0  0  0
  9 10  1  0  0  0  0
 10 11  1  0  0  0  0
M  END
> <ChemID>
100163

> <CAS>
693-65-2

> <Original_SMILES>
CCCCCOCCCCC

> <preferred_name>
Pentyl ether

> <dsstox_substance_id>
DTXSID4022105

> <dsstox_compound_id>
DTXCID402105

> <qc_level>
DSSTox_Low

> <Canonical_QSARr>
CCCCCOCCCCC

> <InChI_Code_QSARr>
InChI=1S/C10H22O/c1-3-5-7-9-11-10-8-6-4-2/h3-10H2,1-2H3

> <InChI Key_QSARr>
AOPDRZXCEAKHHW-UHFFFAOYSA-N

> <Salt_Solvent>


> <Salt_Solvent_ID>
0

> <MPID>
18976

> <LogKOA_Ref>
Abraham,MH et al. (2001)

> <LogKOA>
4.8

> <Tr_1_Tst_0>
1

$$$$
100164
  Mrv171c012251910582D          

 19 20  0  0  0  0            999 V2000
    3.9097   -3.2576    0.0000 C   0  0  0  0  0  0  0  0  0  0  0  0
    3.1952   -2.8451    0.0000 C   0  0  0  0  0  0  0  0  0  0  0  0
    3.1952   -2.0201    0.0000 C   0  0  0  0  0  0  0  0  0  0  0  0
    2.4807   -1.6076    0.0000 C   0  0  0  0  0  0  0  0  0  0  0  0
    2.4807   -0.7826    0.0000 C   0  0  0  0  0  0  0  0  0  0  0  0
    1.7662   -0.3701    0.0000 C   0  0  0  0  0  0  0  0  0  0  0  0
    1.0518   -0.7826    0.0000 C   0  0  0  0  0  0  0  0  0  0  0  0
    0.3373   -0.3701    0.0000 Cl  0  0  0  0  0  0  0  0  0  0  0  0
    1.0518   -1.6076    0.0000 C   0  0  0  0  0  0  0  0  0  0  0  0
    1.7662   -2.0201    0.0000 C   0  0  0  0  0  0  0  0  0  0  0  0
    3.9097   -1.6076    0.0000 C   0  0  0  0  0  0  0  0  0  0  0  0
    4.6241   -1.1951    0.0000 Cl  0  0  0  0  0  0  0  0  0  0  0  0
    3.4972   -0.8932    0.0000 Cl  0  0  0  0  0  0  0  0  0  0  0  0
    4.3222   -2.3221    0.0000 Cl  0  0  0  0  0  0  0  0  0  0  0  0
    2.4807   -3.2576    0.0000 C   0  0  0  0  0  0  0  0  0  0  0  0
    1.7662   -2.8451    0.0000 Cl  0  0  0  0  0  0  0  0  0  0  0  0
    2.4807   -4.0826    0.0000 C   0  0  0  0  0  0  0  0  0  0  0  0
    3.1952   -4.4951    0.0000 C   0  0  0  0  0  0  0  0  0  0  0  0
    3.9097   -4.0826    0.0000 C   0  0  0  0  0  0  0  0  0  0  0  0
  2  1  2  0  0  0  0
  2  3  1  0  0  0  0
  3  4  1  0  0  0  0
  5  4  1  0  0  0  0
  6  5  2  0  0  0  0
  7  6  1  0  0  0  0
  7  8  1  0  0  0  0
  9  7  2  0  0  0  0
 10  9  1  0  0  0  0
  4 10  2  0  0  0  0
  3 11  1  0  0  0  0
 11 12  1  0  0  0  0
 11 13  1  0  0  0  0
 11 14  1  0  0  0  0
 15  2  1  0  0  0  0
 15 16  1  0  0  0  0
 17 15  2  0  0  0  0
 18 17  1  0  0  0  0
 19 18  2  0  0  0  0
  1 19  1  0  0  0  0
M  END
> <ChemID>
100164

> <CAS>
789-02-6

> <Original_SMILES>
Clc1ccc(cc1)C(c1ccccc1Cl)C(Cl)(Cl)Cl

> <preferred_name>
o,p'-DDT

> <dsstox_substance_id>
DTXSID6022345

> <dsstox_compound_id>
DTXCID002345

> <qc_level>
DSSTox_Low

> <Canonical_QSARr>
ClC1C=CC(=CC=1)C(C1=CC=CC=C1Cl)C(Cl)(Cl)Cl

> <InChI_Code_QSARr>
InChI=1S/C14H9Cl5/c15-10-7-5-9(6-8-10)13(14(17,18)19)11-3-1-2-4-12(11)16/h1-8,13H

> <InChI Key_QSARr>
CVUGPAFCQJIYDT-UHFFFAOYSA-N

> <Salt_Solvent>


> <Salt_Solvent_ID>
0

> <MPID>
18977

> <LogKOA_Ref>
Shoeib,M & Harner,T (2002)

> <LogKOA>
9.45

> <Tr_1_Tst_0>
0

$$$$
100165
  Mrv171c012251910582D          

 19 21  0  0  0  0            999 V2000
    2.7993   -2.3911    0.0000 C   0  0  0  0  0  0  0  0  0  0  0  0
    3.4529   -3.2426    0.0000 Cl  0  0  0  0  0  0  0  0  0  0  0  0
    3.4448   -1.5676    0.0000 Cl  0  0  0  0  0  0  0  0  0  0  0  0
    3.0055   -3.2161    0.0000 C   0  0  0  0  0  0  0  0  0  0  0  0
    3.7200   -2.8036    0.0000 C   0  0  0  0  0  0  0  0  0  0  0  0
    4.3650   -3.3179    0.0000 C   0  0  0  0  0  0  0  0  0  0  0  0
    5.1693   -3.1344    0.0000 O   0  0  0  0  0  0  0  0  0  0  0  0
    5.5273   -2.3911    0.0000 S   0  0  0  0  0  0  0  0  0  0  0  0
    6.3871   -2.3749    0.0000 O   0  0  0  0  0  0  0  0  0  0  0  0
    5.1693   -1.6478    0.0000 O   0  0  0  0  0  0  0  0  0  0  0  0
    4.3650   -1.4642    0.0000 C   0  0  0  0  0  0  0  0  0  0  0  0
    3.7200   -1.9786    0.0000 C   0  0  0  0  0  0  0  0  0  0  0  0
    3.0055   -1.5661    0.0000 C   0  0  0  0  0  0  0  0  0  0  0  0
    2.6647   -0.7089    0.0000 Cl  0  0  0  0  0  0  0  0  0  0  0  0
    2.2910   -1.9786    0.0000 C   0  0  0  0  0  0  0  0  0  0  0  0
    1.5179   -1.5811    0.0000 Cl  0  0  0  0  0  0  0  0  0  0  0  0
    2.2910   -2.8036    0.0000 C   0  0  0  0  0  0  0  0  0  0  0  0
    1.5058   -3.1761    0.0000 Cl  0  0  0  0  0  0  0  0  0  0  0  0
    2.6603   -4.0404    0.0000 Cl  0  0  0  0  0  0  0  0  0  0  0  0
  1  2  1  0  0  0  0
  1  3  1  0  0  0  0
  4  1  1  0  0  0  0
  4  5  1  0  0  0  0
  6  5  1  0  0  0  0
  7  6  1  0  0  0  0
  8  7  1  0  0  0  0
  8  9  2  0  0  0  0
 10  8  1  0  0  0  0
 11 10  1  0  0  0  0
 12 11  1  0  0  0  0
  5 12  1  0  0  0  0
 12 13  1  0  0  0  0
  1 13  1  0  0  0  0
 13 14  1  0  0  0  0
 13 15  1  0  0  0  0
 15 16  1  0  0  0  0
 15 17  2  0  0  0  0
 17  4  1  0  0  0  0
 17 18  1  0  0  0  0
  4 19  1  0  0  0  0
M  END
> <ChemID>
100165

> <CAS>
959-98-8

> <Original_SMILES>
O=S1OC[C@@H]2[C@H](CO1)[C@]1(Cl)C(Cl)=C(Cl)[C@@]2(Cl)C1(Cl)Cl

> <preferred_name>
Endosulfan I

> <dsstox_substance_id>
DTXSID9037539

> <dsstox_compound_id>
DTXCID7017539

> <qc_level>
DSSTox_High

> <Canonical_QSARr>
O=S1OCC2C(CO1)C1(Cl)C(Cl)=C(Cl)C2(Cl)C1(Cl)Cl

> <InChI_Code_QSARr>
InChI=1S/C9H6Cl6O3S/c10-5-6(11)8(13)4-2-18-19(16)17-1-3(4)7(5,12)9(8,14)15/h3-4H,1-2H2

> <InChI Key_QSARr>
RDYMFSUJUZBWLH-UHFFFAOYSA-N

> <Salt_Solvent>


> <Salt_Solvent_ID>
0

> <MPID>
18978

> <LogKOA_Ref>
Shoeib,M & Harner,T (2002)

> <LogKOA>
8.64

> <Tr_1_Tst_0>
1

$$$$
100166
  Mrv171c012251910582D          

  6  5  0  0  0  0            999 V2000
    1.5715   -1.5488    0.0000 C   0  0  0  0  0  0  0  0  0  0  0  0
    1.1590   -0.8343    0.0000 C   0  0  0  0  0  0  0  0  0  0  0  0
    1.8735   -0.4218    0.0000 C   0  0  0  0  0  0  0  0  0  0  0  0
    0.4446   -1.2468    0.0000 C   0  0  0  0  0  0  0  0  0  0  0  0
    0.7465   -0.1198    0.0000 O   0  0  0  0  0  0  0  0  0  0  0  0
   -0.0785   -0.1198    0.0000 C   0  0  0  0  0  0  0  0  0  0  0  0
  1  2  1  0  0  0  0
  2  3  1  0  0  0  0
  2  4  1  0  0  0  0
  2  5  1  0  0  0  0
  5  6  1  0  0  0  0
M  END
> <ChemID>
100166

> <CAS>
1634-04-4

> <Original_SMILES>
COC(C)(C)C

> <preferred_name>
Methyl tert-butyl ether

> <dsstox_substance_id>
DTXSID3020833

> <dsstox_compound_id>
DTXCID30833

> <qc_level>
DSSTox_Low

> <Canonical_QSARr>
COC(C)(C)C

> <InChI_Code_QSARr>
InChI=1S/C5H12O/c1-5(2,3)6-4/h1-4H3

> <InChI Key_QSARr>
BZLVMXJERCGZMT-UHFFFAOYSA-N

> <Salt_Solvent>


> <Salt_Solvent_ID>
0

> <MPID>
18979

> <LogKOA_Ref>
Abraham,MH et al. (2001)

> <LogKOA>
2.58

> <Tr_1_Tst_0>
1

$$$$
100167
  Mrv171c012251910582D          

 18 20  0  0  0  0            999 V2000
    0.0016   -0.0014    0.0000 Cl  0  0  0  0  0  0  0  0  0  0  0  0
    0.7161   -0.4139    0.0000 C   0  0  0  0  0  0  0  0  0  0  0  0
    0.7161   -1.2389    0.0000 C   0  0  0  0  0  0  0  0  0  0  0  0
    0.0016   -1.6514    0.0000 Cl  0  0  0  0  0  0  0  0  0  0  0  0
    1.4305   -1.6514    0.0000 C   0  0  0  0  0  0  0  0  0  0  0  0
    2.1450   -1.2389    0.0000 C   0  0  0  0  0  0  0  0  0  0  0  0
    2.8595   -1.6514    0.0000 O   0  0  0  0  0  0  0  0  0  0  0  0
    3.5740   -1.2389    0.0000 C   0  0  0  0  0  0  0  0  0  0  0  0
    4.2884   -1.6514    0.0000 C   0  0  0  0  0  0  0  0  0  0  0  0
    5.0029   -1.2389    0.0000 C   0  0  0  0  0  0  0  0  0  0  0  0
    5.7174   -1.6514    0.0000 Cl  0  0  0  0  0  0  0  0  0  0  0  0
    5.0029   -0.4139    0.0000 C   0  0  0  0  0  0  0  0  0  0  0  0
    5.7174   -0.0014    0.0000 Cl  0  0  0  0  0  0  0  0  0  0  0  0
    4.2884   -0.0014    0.0000 C   0  0  0  0  0  0  0  0  0  0  0  0
    3.5740   -0.4139    0.0000 C   0  0  0  0  0  0  0  0  0  0  0  0
    2.8595   -0.0014    0.0000 O   0  0  0  0  0  0  0  0  0  0  0  0
    2.1450   -0.4139    0.0000 C   0  0  0  0  0  0  0  0  0  0  0  0
    1.4305   -0.0014    0.0000 C   0  0  0  0  0  0  0  0  0  0  0  0
  1  2  1  0  0  0  0
  3  2  1  0  0  0  0
  3  4  1  0  0  0  0
  5  3  2  0  0  0  0
  6  5  1  0  0  0  0
  6  7  1  0  0  0  0
  7  8  1  0  0  0  0
  9  8  1  0  0  0  0
 10  9  2  0  0  0  0
 10 11  1  0  0  0  0
 12 10  1  0  0  0  0
 12 13  1  0  0  0  0
 14 12  2  0  0  0  0
 15 14  1  0  0  0  0
  8 15  2  0  0  0  0
 15 16  1  0  0  0  0
 16 17  1  0  0  0  0
 17  6  2  0  0  0  0
 18 17  1  0  0  0  0
  2 18  2  0  0  0  0
M  END
> <ChemID>
100167

> <CAS>
1746-01-6

> <Original_SMILES>
Clc1cc2Oc3cc(Cl)c(Cl)cc3Oc2cc1Cl

> <preferred_name>
2,3,7,8-Tetrachlorodibenzo-p-dioxin

> <dsstox_substance_id>
DTXSID2021315

> <dsstox_compound_id>
DTXCID001315

> <qc_level>
DSSTox_Low

> <Canonical_QSARr>
ClC1=CC2OC3C=C(Cl)C(Cl)=CC=3OC=2C=C1Cl

> <InChI_Code_QSARr>
InChI=1S/C12H4Cl4O2/c13-5-1-9-10(2-6(5)14)18-12-4-8(16)7(15)3-11(12)17-9/h1-4H

> <InChI Key_QSARr>
HGUFODBRKLSHSI-UHFFFAOYSA-N

> <Salt_Solvent>


> <Salt_Solvent_ID>
0

> <MPID>
18980

> <LogKOA_Ref>
Harner,T et al. (2000)

> <LogKOA>
10.05

> <Tr_1_Tst_0>
1

$$$$
100168
  Mrv171c012251910582D          

 12 13  0  0  0  0            999 V2000
    0.7145   -0.4125    0.0000 C   0  0  0  0  0  0  0  0  0  0  0  0
   -0.0000    0.0000    0.0000 C   0  0  0  0  0  0  0  0  0  0  0  0
   -0.0000    0.8250    0.0000 Cl  0  0  0  0  0  0  0  0  0  0  0  0
   -0.7145   -0.4125    0.0000 C   0  0  0  0  0  0  0  0  0  0  0  0
   -0.7145   -1.2375    0.0000 C   0  0  0  0  0  0  0  0  0  0  0  0
   -0.0000   -1.6500    0.0000 C   0  0  0  0  0  0  0  0  0  0  0  0
    0.7145   -1.2375    0.0000 C   0  0  0  0  0  0  0  0  0  0  0  0
    1.4289   -1.6500    0.0000 C   0  0  0  0  0  0  0  0  0  0  0  0
    1.4289   -2.4750    0.0000 Cl  0  0  0  0  0  0  0  0  0  0  0  0
    2.1434   -1.2375    0.0000 C   0  0  0  0  0  0  0  0  0  0  0  0
    2.1434   -0.4125    0.0000 C   0  0  0  0  0  0  0  0  0  0  0  0
    1.4289    0.0000    0.0000 C   0  0  0  0  0  0  0  0  0  0  0  0
  2  1  1  0  0  0  0
  2  3  1  0  0  0  0
  4  2  2  0  0  0  0
  5  4  1  0  0  0  0
  6  5  2  0  0  0  0
  7  6  1  0  0  0  0
  7  1  1  0  0  0  0
  8  7  2  0  0  0  0
  8  9  1  0  0  0  0
 10  8  1  0  0  0  0
 11 10  2  0  0  0  0
 12 11  1  0  0  0  0
  1 12  2  0  0  0  0
M  END
> <ChemID>
100168

> <CAS>
1825-30-5

> <Original_SMILES>
Clc1cccc2c1cccc2Cl

> <preferred_name>
Naphthalene, 1,5-dichloro-

> <dsstox_substance_id>
DTXSID1061998

> <dsstox_compound_id>
DTXCID2035801

> <qc_level>
Public_High

> <Canonical_QSARr>
ClC1C=CC=C2C=1C=CC=C2Cl

> <InChI_Code_QSARr>
InChI=1S/C10H6Cl2/c11-9-5-1-3-7-8(9)4-2-6-10(7)12/h1-6H

> <InChI Key_QSARr>
ZBQZXTBAGBTUAD-UHFFFAOYSA-N

> <Salt_Solvent>


> <Salt_Solvent_ID>
0

> <MPID>
18981

> <LogKOA_Ref>
Su,Y et al. (2002)

> <LogKOA>
6.65

> <Tr_1_Tst_0>
0

$$$$
100169
  Mrv171c012251910582D          

 12 13  0  0  0  0            999 V2000
    0.4763   -0.4125    0.0000 C   0  0  0  0  0  0  0  0  0  0  0  0
   -0.2382    0.0000    0.0000 C   0  0  0  0  0  0  0  0  0  0  0  0
   -0.9526   -0.4125    0.0000 C   0  0  0  0  0  0  0  0  0  0  0  0
   -0.9526   -1.2375    0.0000 C   0  0  0  0  0  0  0  0  0  0  0  0
   -0.2382   -1.6500    0.0000 C   0  0  0  0  0  0  0  0  0  0  0  0
    0.4763   -1.2375    0.0000 C   0  0  0  0  0  0  0  0  0  0  0  0
    1.1908   -1.6500    0.0000 C   0  0  0  0  0  0  0  0  0  0  0  0
    1.1908   -2.4750    0.0000 Cl  0  0  0  0  0  0  0  0  0  0  0  0
    1.9052   -1.2375    0.0000 C   0  0  0  0  0  0  0  0  0  0  0  0
    1.9052   -0.4125    0.0000 C   0  0  0  0  0  0  0  0  0  0  0  0
    1.1908    0.0000    0.0000 C   0  0  0  0  0  0  0  0  0  0  0  0
    1.1908    0.8250    0.0000 Cl  0  0  0  0  0  0  0  0  0  0  0  0
  2  1  1  0  0  0  0
  3  2  2  0  0  0  0
  4  3  1  0  0  0  0
  5  4  2  0  0  0  0
  6  5  1  0  0  0  0
  6  1  1  0  0  0  0
  7  6  2  0  0  0  0
  7  8  1  0  0  0  0
  9  7  1  0  0  0  0
 10  9  2  0  0  0  0
 11 10  1  0  0  0  0
  1 11  2  0  0  0  0
 11 12  1  0  0  0  0
M  END
> <ChemID>
100169

> <CAS>
1825-31-6

> <Original_SMILES>
Clc1ccc(Cl)c2ccccc12

> <preferred_name>
Naphthalene, 1,4-dichloro-

> <dsstox_substance_id>
DTXSID6061999

> <dsstox_compound_id>
DTXCID7035802

> <qc_level>
Public_High

> <Canonical_QSARr>
ClC1C=CC(Cl)=C2C=CC=CC=12

> <InChI_Code_QSARr>
InChI=1S/C10H6Cl2/c11-9-5-6-10(12)8-4-2-1-3-7(8)9/h1-6H

> <InChI Key_QSARr>
JDPKCYMVSKDOGS-UHFFFAOYSA-N

> <Salt_Solvent>


> <Salt_Solvent_ID>
0

> <MPID>
18982

> <LogKOA_Ref>
Wania,F et al. (2002)

> <LogKOA>
6.78

> <Tr_1_Tst_0>
1

$$$$
100170
  Mrv171c012251910582D          

 15 16  0  0  0  0            999 V2000
    3.6141   -3.7385    0.0000 Br  0  0  0  0  0  0  0  0  0  0  0  0
    3.6141   -2.9135    0.0000 C   0  0  0  0  0  0  0  0  0  0  0  0
    4.3286   -2.5010    0.0000 C   0  0  0  0  0  0  0  0  0  0  0  0
    4.3286   -1.6760    0.0000 C   0  0  0  0  0  0  0  0  0  0  0  0
    3.6141   -1.2635    0.0000 C   0  0  0  0  0  0  0  0  0  0  0  0
    3.6141   -0.4385    0.0000 O   0  0  0  0  0  0  0  0  0  0  0  0
    2.8996   -0.0260    0.0000 C   0  0  0  0  0  0  0  0  0  0  0  0
    2.8996    0.7990    0.0000 C   0  0  0  0  0  0  0  0  0  0  0  0
    2.1851    1.2115    0.0000 C   0  0  0  0  0  0  0  0  0  0  0  0
    1.4707    0.7990    0.0000 C   0  0  0  0  0  0  0  0  0  0  0  0
    0.7562    1.2115    0.0000 Br  0  0  0  0  0  0  0  0  0  0  0  0
    1.4707   -0.0260    0.0000 C   0  0  0  0  0  0  0  0  0  0  0  0
    2.1851   -0.4385    0.0000 C   0  0  0  0  0  0  0  0  0  0  0  0
    2.8996   -1.6760    0.0000 C   0  0  0  0  0  0  0  0  0  0  0  0
    2.8996   -2.5010    0.0000 C   0  0  0  0  0  0  0  0  0  0  0  0
  1  2  1  0  0  0  0
  3  2  2  0  0  0  0
  4  3  1  0  0  0  0
  5  4  2  0  0  0  0
  5  6  1  0  0  0  0
  6  7  1  0  0  0  0
  8  7  2  0  0  0  0
  9  8  1  0  0  0  0
 10  9  2  0  0  0  0
 10 11  1  0  0  0  0
 12 10  1  0  0  0  0
 13 12  2  0  0  0  0
  7 13  1  0  0  0  0
 14  5  1  0  0  0  0
 15 14  2  0  0  0  0
  2 15  1  0  0  0  0
M  END
> <ChemID>
100170

> <CAS>
2050-47-7

> <Original_SMILES>
Brc1ccc(cc1)Oc1ccc(Br)cc1

> <preferred_name>
4,4'-Dibromodiphenyl ether

> <dsstox_substance_id>
DTXSID9024015

> <dsstox_compound_id>
DTXCID704015

> <qc_level>
DSSTox_Low

> <Canonical_QSARr>
BrC1C=CC(=CC=1)OC1C=CC(Br)=CC=1

> <InChI_Code_QSARr>
InChI=1S/C12H8Br2O/c13-9-1-5-11(6-2-9)15-12-7-3-10(14)4-8-12/h1-8H

> <InChI Key_QSARr>
YAWIAFUBXXPJMQ-UHFFFAOYSA-N

> <Salt_Solvent>


> <Salt_Solvent_ID>
0

> <MPID>
18983

> <LogKOA_Ref>
Wania,F et al. (2002)

> <LogKOA>
8.64

> <Tr_1_Tst_0>
1

$$$$
100171
  Mrv171c012251910582D          

 14 15  0  0  0  0            999 V2000
    2.8871   -0.2994    0.0000 C   0  0  0  0  0  0  0  0  0  0  0  0
    3.6016    0.1131    0.0000 C   0  0  0  0  0  0  0  0  0  0  0  0
    3.6016    0.9381    0.0000 C   0  0  0  0  0  0  0  0  0  0  0  0
    2.8871    1.3506    0.0000 C   0  0  0  0  0  0  0  0  0  0  0  0
    2.8871    2.1756    0.0000 Cl  0  0  0  0  0  0  0  0  0  0  0  0
    2.1726    0.9381    0.0000 C   0  0  0  0  0  0  0  0  0  0  0  0
    2.1726    0.1131    0.0000 C   0  0  0  0  0  0  0  0  0  0  0  0
    2.8871   -1.1244    0.0000 C   0  0  0  0  0  0  0  0  0  0  0  0
    2.1726   -1.5369    0.0000 C   0  0  0  0  0  0  0  0  0  0  0  0
    2.1726   -2.3619    0.0000 C   0  0  0  0  0  0  0  0  0  0  0  0
    2.8871   -2.7744    0.0000 C   0  0  0  0  0  0  0  0  0  0  0  0
    2.8871   -3.5994    0.0000 Cl  0  0  0  0  0  0  0  0  0  0  0  0
    3.6016   -2.3619    0.0000 C   0  0  0  0  0  0  0  0  0  0  0  0
    3.6016   -1.5369    0.0000 C   0  0  0  0  0  0  0  0  0  0  0  0
  2  1  2  0  0  0  0
  3  2  1  0  0  0  0
  4  3  2  0  0  0  0
  4  5  1  0  0  0  0
  6  4  1  0  0  0  0
  7  6  2  0  0  0  0
  1  7  1  0  0  0  0
  1  8  1  0  0  0  0
  9  8  1  0  0  0  0
 10  9  2  0  0  0  0
 11 10  1  0  0  0  0
 11 12  1  0  0  0  0
 13 11  2  0  0  0  0
 14 13  1  0  0  0  0
  8 14  2  0  0  0  0
M  END
> <ChemID>
100171

> <CAS>
2050-68-2

> <Original_SMILES>
Clc1ccc(cc1)-c1ccc(Cl)cc1

> <preferred_name>
4,4'-Dichlorobiphenyl

> <dsstox_substance_id>
DTXSID0022515

> <dsstox_compound_id>
DTXCID502515

> <qc_level>
DSSTox_High

> <Canonical_QSARr>
ClC1C=CC(=CC=1)C1C=CC(Cl)=CC=1

> <InChI_Code_QSARr>
InChI=1S/C12H8Cl2/c13-11-5-1-9(2-6-11)10-3-7-12(14)8-4-10/h1-8H

> <InChI Key_QSARr>
YTBRNEUEFCNVHC-UHFFFAOYSA-N

> <Salt_Solvent>


> <Salt_Solvent_ID>
0

> <MPID>
18984

> <LogKOA_Ref>
Wania,F et al. (2002)

> <LogKOA>
7.68

> <Tr_1_Tst_0>
1

$$$$
100172
  Mrv171c012251910582D          

 12 13  0  0  0  0            999 V2000
    0.2381   -0.8250    0.0000 C   0  0  0  0  0  0  0  0  0  0  0  0
   -0.4763   -0.4125    0.0000 C   0  0  0  0  0  0  0  0  0  0  0  0
   -1.1908   -0.8250    0.0000 C   0  0  0  0  0  0  0  0  0  0  0  0
   -1.1908   -1.6500    0.0000 C   0  0  0  0  0  0  0  0  0  0  0  0
   -0.4763   -2.0625    0.0000 C   0  0  0  0  0  0  0  0  0  0  0  0
    0.2381   -1.6500    0.0000 C   0  0  0  0  0  0  0  0  0  0  0  0
    0.9526   -2.0625    0.0000 C   0  0  0  0  0  0  0  0  0  0  0  0
    1.6671   -1.6500    0.0000 C   0  0  0  0  0  0  0  0  0  0  0  0
    1.6671   -0.8250    0.0000 C   0  0  0  0  0  0  0  0  0  0  0  0
    2.3816   -0.4125    0.0000 Cl  0  0  0  0  0  0  0  0  0  0  0  0
    0.9526   -0.4125    0.0000 C   0  0  0  0  0  0  0  0  0  0  0  0
    0.9526    0.4125    0.0000 Cl  0  0  0  0  0  0  0  0  0  0  0  0
  2  1  1  0  0  0  0
  3  2  2  0  0  0  0
  4  3  1  0  0  0  0
  5  4  2  0  0  0  0
  6  5  1  0  0  0  0
  6  1  1  0  0  0  0
  7  6  2  0  0  0  0
  8  7  1  0  0  0  0
  9  8  2  0  0  0  0
  9 10  1  0  0  0  0
 11  9  1  0  0  0  0
  1 11  2  0  0  0  0
 11 12  1  0  0  0  0
M  END
> <ChemID>
100172

> <CAS>
2050-69-3

> <Original_SMILES>
Clc1ccc2ccccc2c1Cl

> <preferred_name>
Naphthalene, 1,2-dichloro-

> <dsstox_substance_id>
DTXSID5062136

> <dsstox_compound_id>
DTXCID8036316

> <qc_level>
Public_High

> <Canonical_QSARr>
ClC1=CC=C2C=CC=CC2=C1Cl

> <InChI_Code_QSARr>
InChI=1S/C10H6Cl2/c11-9-6-5-7-3-1-2-4-8(7)10(9)12/h1-6H

> <InChI Key_QSARr>
MOXLHAPKZWTHEX-UHFFFAOYSA-N

> <Salt_Solvent>


> <Salt_Solvent_ID>
0

> <MPID>
18985

> <LogKOA_Ref>
Wania,F et al. (2002)

> <LogKOA>
6.89

> <Tr_1_Tst_0>
0

$$$$
100173
  Mrv171c012251910582D          

 13 14  0  0  0  0            999 V2000
    2.1802   -1.2881    0.0000 C   0  0  0  0  0  0  0  0  0  0  0  0
    2.8947   -1.7006    0.0000 C   0  0  0  0  0  0  0  0  0  0  0  0
    3.6092   -1.2881    0.0000 C   0  0  0  0  0  0  0  0  0  0  0  0
    3.6092   -0.4631    0.0000 C   0  0  0  0  0  0  0  0  0  0  0  0
    2.8947   -0.0506    0.0000 C   0  0  0  0  0  0  0  0  0  0  0  0
    2.8947    0.7744    0.0000 Cl  0  0  0  0  0  0  0  0  0  0  0  0
    2.1802   -0.4631    0.0000 C   0  0  0  0  0  0  0  0  0  0  0  0
    1.4658   -1.7006    0.0000 C   0  0  0  0  0  0  0  0  0  0  0  0
    0.7513   -1.2881    0.0000 C   0  0  0  0  0  0  0  0  0  0  0  0
    0.0368   -1.7006    0.0000 C   0  0  0  0  0  0  0  0  0  0  0  0
    0.0368   -2.5256    0.0000 C   0  0  0  0  0  0  0  0  0  0  0  0
    0.7513   -2.9381    0.0000 C   0  0  0  0  0  0  0  0  0  0  0  0
    1.4658   -2.5256    0.0000 C   0  0  0  0  0  0  0  0  0  0  0  0
  2  1  1  0  0  0  0
  3  2  2  0  0  0  0
  4  3  1  0  0  0  0
  5  4  2  0  0  0  0
  5  6  1  0  0  0  0
  7  5  1  0  0  0  0
  1  7  2  0  0  0  0
  1  8  1  0  0  0  0
  9  8  2  0  0  0  0
 10  9  1  0  0  0  0
 11 10  2  0  0  0  0
 12 11  1  0  0  0  0
 13 12  2  0  0  0  0
  8 13  1  0  0  0  0
M  END
> <ChemID>
100173

> <CAS>
2051-61-8

> <Original_SMILES>
Clc1cc(ccc1)-c1ccccc1

> <preferred_name>
3-Chlorobiphenyl

> <dsstox_substance_id>
DTXSID1040299

> <dsstox_compound_id>
DTXCID9020299

> <qc_level>
DSSTox_Low

> <Canonical_QSARr>
ClC1C=C(C=CC=1)C1C=CC=CC=1

> <InChI_Code_QSARr>
InChI=1S/C12H9Cl/c13-12-8-4-7-11(9-12)10-5-2-1-3-6-10/h1-9H

> <InChI Key_QSARr>
NMWSKOLWZZWHPL-UHFFFAOYSA-N

> <Salt_Solvent>


> <Salt_Solvent_ID>
0

> <MPID>
18986

> <LogKOA_Ref>
Harner,T & Bidleman,TF (1996)

> <LogKOA>
6.82

> <Tr_1_Tst_0>
1

$$$$
100174
  Mrv171c012251910582D          

 13 14  0  0  0  0            999 V2000
    2.6609   -0.5244    0.0000 C   0  0  0  0  0  0  0  0  0  0  0  0
    3.3754   -0.1119    0.0000 C   0  0  0  0  0  0  0  0  0  0  0  0
    3.3754    0.7131    0.0000 C   0  0  0  0  0  0  0  0  0  0  0  0
    2.6609    1.1256    0.0000 C   0  0  0  0  0  0  0  0  0  0  0  0
    2.6609    1.9506    0.0000 Cl  0  0  0  0  0  0  0  0  0  0  0  0
    1.9464    0.7131    0.0000 C   0  0  0  0  0  0  0  0  0  0  0  0
    1.9464   -0.1119    0.0000 C   0  0  0  0  0  0  0  0  0  0  0  0
    2.6609   -1.3494    0.0000 C   0  0  0  0  0  0  0  0  0  0  0  0
    1.9464   -1.7619    0.0000 C   0  0  0  0  0  0  0  0  0  0  0  0
    1.9464   -2.5869    0.0000 C   0  0  0  0  0  0  0  0  0  0  0  0
    2.6609   -2.9994    0.0000 C   0  0  0  0  0  0  0  0  0  0  0  0
    3.3754   -2.5869    0.0000 C   0  0  0  0  0  0  0  0  0  0  0  0
    3.3754   -1.7619    0.0000 C   0  0  0  0  0  0  0  0  0  0  0  0
  2  1  1  0  0  0  0
  3  2  2  0  0  0  0
  4  3  1  0  0  0  0
  4  5  1  0  0  0  0
  6  4  2  0  0  0  0
  7  6  1  0  0  0  0
  1  7  2  0  0  0  0
  1  8  1  0  0  0  0
  9  8  1  0  0  0  0
 10  9  2  0  0  0  0
 11 10  1  0  0  0  0
 12 11  2  0  0  0  0
 13 12  1  0  0  0  0
  8 13  2  0  0  0  0
M  END
> <ChemID>
100174

> <CAS>
2051-62-9

> <Original_SMILES>
Clc1ccc(cc1)-c1ccccc1

> <preferred_name>
4-Chlorobiphenyl

> <dsstox_substance_id>
DTXSID3040300

> <dsstox_compound_id>
DTXCID1020300

> <qc_level>
DSSTox_High

> <Canonical_QSARr>
ClC1C=CC(=CC=1)C1C=CC=CC=1

> <InChI_Code_QSARr>
InChI=1S/C12H9Cl/c13-12-8-6-11(7-9-12)10-4-2-1-3-5-10/h1-9H

> <InChI Key_QSARr>
FPWNLURCHDRMHC-UHFFFAOYSA-N

> <Salt_Solvent>


> <Salt_Solvent_ID>
0

> <MPID>
18987

> <LogKOA_Ref>
Wania,F et al. (2002)

> <LogKOA>
6.8

> <Tr_1_Tst_0>
1

$$$$
100175
  Mrv171c012251910582D          

 12 13  0  0  0  0            999 V2000
    0.7145   -0.1375    0.0000 C   0  0  0  0  0  0  0  0  0  0  0  0
   -0.0000    0.2750    0.0000 C   0  0  0  0  0  0  0  0  0  0  0  0
   -0.7145   -0.1375    0.0000 C   0  0  0  0  0  0  0  0  0  0  0  0
   -0.7145   -0.9625    0.0000 C   0  0  0  0  0  0  0  0  0  0  0  0
   -1.4290   -1.3750    0.0000 Cl  0  0  0  0  0  0  0  0  0  0  0  0
   -0.0000   -1.3750    0.0000 C   0  0  0  0  0  0  0  0  0  0  0  0
    0.7145   -0.9625    0.0000 C   0  0  0  0  0  0  0  0  0  0  0  0
    1.4289   -1.3750    0.0000 C   0  0  0  0  0  0  0  0  0  0  0  0
    2.1434   -0.9625    0.0000 C   0  0  0  0  0  0  0  0  0  0  0  0
    2.8579   -1.3750    0.0000 Cl  0  0  0  0  0  0  0  0  0  0  0  0
    2.1434   -0.1375    0.0000 C   0  0  0  0  0  0  0  0  0  0  0  0
    1.4289    0.2750    0.0000 C   0  0  0  0  0  0  0  0  0  0  0  0
  2  1  1  0  0  0  0
  3  2  2  0  0  0  0
  4  3  1  0  0  0  0
  4  5  1  0  0  0  0
  6  4  2  0  0  0  0
  7  6  1  0  0  0  0
  7  1  1  0  0  0  0
  8  7  2  0  0  0  0
  9  8  1  0  0  0  0
  9 10  1  0  0  0  0
 11  9  2  0  0  0  0
 12 11  1  0  0  0  0
  1 12  2  0  0  0  0
M  END
> <ChemID>
100175

> <CAS>
2198-77-8

> <Original_SMILES>
Clc1cc2cc(Cl)ccc2cc1

> <preferred_name>
Naphthalene, 2,7-dichloro-

> <dsstox_substance_id>
DTXSID7062247

> <dsstox_compound_id>
DTXCID2036584

> <qc_level>
Public_High

> <Canonical_QSARr>
ClC1C=C2C=C(Cl)C=CC2=CC=1

> <InChI_Code_QSARr>
InChI=1S/C10H6Cl2/c11-9-3-1-7-2-4-10(12)6-8(7)5-9/h1-6H

> <InChI Key_QSARr>
DWBQZSYTSNYEEJ-UHFFFAOYSA-N

> <Salt_Solvent>


> <Salt_Solvent_ID>
0

> <MPID>
18988

> <LogKOA_Ref>
Su,Y et al. (2002)

> <LogKOA>
6.7

> <Tr_1_Tst_0>
1

$$$$
100176
  Mrv171c012251910582D          

 18 19  0  0  0  0            999 V2000
    2.1490   -1.2439    0.0000 C   0  0  0  0  0  0  0  0  0  0  0  0
    1.4345   -0.8314    0.0000 C   0  0  0  0  0  0  0  0  0  0  0  0
    1.4345   -0.0064    0.0000 Cl  0  0  0  0  0  0  0  0  0  0  0  0
    0.7201   -1.2439    0.0000 C   0  0  0  0  0  0  0  0  0  0  0  0
    0.0056   -0.8314    0.0000 Cl  0  0  0  0  0  0  0  0  0  0  0  0
    0.7201   -2.0689    0.0000 C   0  0  0  0  0  0  0  0  0  0  0  0
    0.0056   -2.4814    0.0000 Cl  0  0  0  0  0  0  0  0  0  0  0  0
    1.4345   -2.4814    0.0000 C   0  0  0  0  0  0  0  0  0  0  0  0
    1.4345   -3.3064    0.0000 Cl  0  0  0  0  0  0  0  0  0  0  0  0
    2.1490   -2.0689    0.0000 C   0  0  0  0  0  0  0  0  0  0  0  0
    2.8635   -2.4814    0.0000 C   0  0  0  0  0  0  0  0  0  0  0  0
    2.8635   -3.3064    0.0000 Cl  0  0  0  0  0  0  0  0  0  0  0  0
    3.5779   -2.0689    0.0000 C   0  0  0  0  0  0  0  0  0  0  0  0
    4.2924   -2.4814    0.0000 Cl  0  0  0  0  0  0  0  0  0  0  0  0
    3.5779   -1.2439    0.0000 C   0  0  0  0  0  0  0  0  0  0  0  0
    4.2924   -0.8314    0.0000 Cl  0  0  0  0  0  0  0  0  0  0  0  0
    2.8635   -0.8314    0.0000 C   0  0  0  0  0  0  0  0  0  0  0  0
    2.8635   -0.0064    0.0000 Cl  0  0  0  0  0  0  0  0  0  0  0  0
  2  1  1  0  0  0  0
  2  3  1  0  0  0  0
  4  2  2  0  0  0  0
  4  5  1  0  0  0  0
  6  4  1  0  0  0  0
  6  7  1  0  0  0  0
  8  6  2  0  0  0  0
  8  9  1  0  0  0  0
 10  8  1  0  0  0  0
 10  1  1  0  0  0  0
 11 10  2  0  0  0  0
 11 12  1  0  0  0  0
 13 11  1  0  0  0  0
 13 14  1  0  0  0  0
 15 13  2  0  0  0  0
 15 16  1  0  0  0  0
 17 15  1  0  0  0  0
  1 17  2  0  0  0  0
 17 18  1  0  0  0  0
M  END
> <ChemID>
100176

> <CAS>
2234-13-1

> <Original_SMILES>
Clc1c2c(c(Cl)c(Cl)c1Cl)c(Cl)c(Cl)c(Cl)c2Cl

> <preferred_name>
Octachloronaphthalene

> <dsstox_substance_id>
DTXSID6025800

> <dsstox_compound_id>
DTXCID105800

> <qc_level>
DSSTox_Low

> <Canonical_QSARr>
ClC1C2C(=C(Cl)C(Cl)=C(Cl)C=2Cl)C(Cl)=C(Cl)C=1Cl

> <InChI_Code_QSARr>
InChI=1S/C10Cl8/c11-3-1-2(5(13)9(17)7(3)15)6(14)10(18)8(16)4(1)12

> <InChI Key_QSARr>
RTNLUFLDZOAXIC-UHFFFAOYSA-N

> <Salt_Solvent>


> <Salt_Solvent_ID>
0

> <MPID>
18989

> <LogKOA_Ref>
Wania,F et al. (2002)

> <LogKOA>
11.05

> <Tr_1_Tst_0>
0

$$$$
100177
  Mrv171c012251910582D          

 22 24  0  0  0  0            999 V2000
    1.4307   -3.2990    0.0000 Cl  0  0  0  0  0  0  0  0  0  0  0  0
    1.4307   -2.4740    0.0000 C   0  0  0  0  0  0  0  0  0  0  0  0
    2.1451   -2.0615    0.0000 C   0  0  0  0  0  0  0  0  0  0  0  0
    2.8596   -2.4740    0.0000 O   0  0  0  0  0  0  0  0  0  0  0  0
    3.5741   -2.0615    0.0000 C   0  0  0  0  0  0  0  0  0  0  0  0
    4.2885   -2.4740    0.0000 C   0  0  0  0  0  0  0  0  0  0  0  0
    4.2885   -3.2990    0.0000 Cl  0  0  0  0  0  0  0  0  0  0  0  0
    5.0030   -2.0615    0.0000 C   0  0  0  0  0  0  0  0  0  0  0  0
    5.7175   -2.4740    0.0000 Cl  0  0  0  0  0  0  0  0  0  0  0  0
    5.0030   -1.2365    0.0000 C   0  0  0  0  0  0  0  0  0  0  0  0
    5.7175   -0.8240    0.0000 Cl  0  0  0  0  0  0  0  0  0  0  0  0
    4.2885   -0.8240    0.0000 C   0  0  0  0  0  0  0  0  0  0  0  0
    4.2885    0.0010    0.0000 Cl  0  0  0  0  0  0  0  0  0  0  0  0
    3.5741   -1.2365    0.0000 C   0  0  0  0  0  0  0  0  0  0  0  0
    2.8596   -0.8240    0.0000 O   0  0  0  0  0  0  0  0  0  0  0  0
    2.1451   -1.2365    0.0000 C   0  0  0  0  0  0  0  0  0  0  0  0
    1.4307   -0.8240    0.0000 C   0  0  0  0  0  0  0  0  0  0  0  0
    1.4307    0.0010    0.0000 Cl  0  0  0  0  0  0  0  0  0  0  0  0
    0.7162   -1.2365    0.0000 C   0  0  0  0  0  0  0  0  0  0  0  0
    0.0017   -0.8240    0.0000 Cl  0  0  0  0  0  0  0  0  0  0  0  0
    0.7162   -2.0615    0.0000 C   0  0  0  0  0  0  0  0  0  0  0  0
    0.0017   -2.4740    0.0000 Cl  0  0  0  0  0  0  0  0  0  0  0  0
  1  2  1  0  0  0  0
  3  2  1  0  0  0  0
  3  4  1  0  0  0  0
  4  5  1  0  0  0  0
  6  5  2  0  0  0  0
  6  7  1  0  0  0  0
  8  6  1  0  0  0  0
  8  9  1  0  0  0  0
 10  8  2  0  0  0  0
 10 11  1  0  0  0  0
 12 10  1  0  0  0  0
 12 13  1  0  0  0  0
 14 12  2  0  0  0  0
  5 14  1  0  0  0  0
 14 15  1  0  0  0  0
 15 16  1  0  0  0  0
 16  3  2  0  0  0  0
 17 16  1  0  0  0  0
 17 18  1  0  0  0  0
 19 17  2  0  0  0  0
 19 20  1  0  0  0  0
 21 19  1  0  0  0  0
  2 21  2  0  0  0  0
 21 22  1  0  0  0  0
M  END
> <ChemID>
100177

> <CAS>
3268-87-9

> <Original_SMILES>
Clc1c2Oc3c(Oc2c(Cl)c(Cl)c1Cl)c(Cl)c(Cl)c(Cl)c3Cl

> <preferred_name>
Octachlorodibenzo-p-dioxin

> <dsstox_substance_id>
DTXSID4025799

> <dsstox_compound_id>
DTXCID205799

> <qc_level>
DSSTox_Low

> <Canonical_QSARr>
ClC1C2OC3C(OC=2C(Cl)=C(Cl)C=1Cl)=C(Cl)C(Cl)=C(Cl)C=3Cl

> <InChI_Code_QSARr>
InChI=1S/C12Cl8O2/c13-1-2(14)6(18)10-9(5(1)17)21-11-7(19)3(15)4(16)8(20)12(11)22-10

> <InChI Key_QSARr>
FOIBFBMSLDGNHL-UHFFFAOYSA-N

> <Salt_Solvent>


> <Salt_Solvent_ID>
0

> <MPID>
18990

> <LogKOA_Ref>
Chen,JW et al. (2001)

> <LogKOA>
12.05

> <Tr_1_Tst_0>
1

$$$$
100178
  Mrv171c012251910582D          

 18 20  0  0  0  0            999 V2000
   -1.2972   -0.0981    0.0000 C   0  0  0  0  0  0  0  0  0  0  0  0
   -2.1538   -0.0770    0.0000 Cl  0  0  0  0  0  0  0  0  0  0  0  0
   -0.8191   -0.7704    0.0000 C   0  0  0  0  0  0  0  0  0  0  0  0
   -1.2996   -1.4927    0.0000 Cl  0  0  0  0  0  0  0  0  0  0  0  0
   -0.1152   -0.6051    0.0000 C   0  0  0  0  0  0  0  0  0  0  0  0
    0.6783   -0.9432    0.0000 C   0  0  0  0  0  0  0  0  0  0  0  0
    0.9714   -1.7769    0.0000 Cl  0  0  0  0  0  0  0  0  0  0  0  0
    0.8929   -0.1203    0.0000 C   0  0  0  0  0  0  0  0  0  0  0  0
    0.2677   -0.9223    0.0000 Cl  0  0  0  0  0  0  0  0  0  0  0  0
    0.2587    0.7370    0.0000 Cl  0  0  0  0  0  0  0  0  0  0  0  0
    0.6951    0.7068    0.0000 C   0  0  0  0  0  0  0  0  0  0  0  0
    0.9410    1.5704    0.0000 Cl  0  0  0  0  0  0  0  0  0  0  0  0
   -0.0235    0.3015    0.0000 C   0  0  0  0  0  0  0  0  0  0  0  0
   -0.8055    0.5644    0.0000 C   0  0  0  0  0  0  0  0  0  0  0  0
    1.4053    0.2870    0.0000 C   0  0  0  0  0  0  0  0  0  0  0  0
    2.1714    0.6927    0.0000 Cl  0  0  0  0  0  0  0  0  0  0  0  0
    1.3970   -0.5379    0.0000 C   0  0  0  0  0  0  0  0  0  0  0  0
    2.1638   -0.9448    0.0000 Cl  0  0  0  0  0  0  0  0  0  0  0  0
  1  2  1  0  0  0  0
  3  1  1  0  0  0  0
  3  4  1  0  0  0  0
  5  3  1  0  0  0  0
  5  6  1  0  0  0  0
  6  7  1  0  0  0  0
  8  6  1  0  0  0  0
  8  9  1  0  0  0  0
  8 10  1  0  0  0  0
 11  8  1  0  0  0  0
 11 12  1  0  0  0  0
 11 13  1  0  0  0  0
 13  5  1  0  0  0  0
 14 13  1  0  0  0  0
  1 14  1  0  0  0  0
 15 11  1  0  0  0  0
 15 16  1  0  0  0  0
 17 15  2  0  0  0  0
  6 17  1  0  0  0  0
 17 18  1  0  0  0  0
M  END
> <ChemID>
100178

> <CAS>
5103-71-9|5103-74-2

> <Original_SMILES>
ClC1(Cl)C2(Cl)[C@@H]3C[C@@H](Cl)[C@@H](Cl)[C@@H]3C1(Cl)C(Cl)=C2Cl

> <preferred_name>
cis-Chlordane|trans-Chlordane

> <dsstox_substance_id>
DTXSID6038326|DTXSID4038346

> <dsstox_compound_id>
DTXCID90809620|DTXCID10809622

> <qc_level>
DSSTox_High

> <Canonical_QSARr>
ClC1(Cl)C2(Cl)C3CC(Cl)C(Cl)C3C1(Cl)C(Cl)=C2Cl

> <InChI_Code_QSARr>
InChI=1S/C10H6Cl8/c11-3-1-2-4(5(3)12)9(16)7(14)6(13)8(2,15)10(9,17)18/h2-5H,1H2

> <InChI Key_QSARr>
BIWJNBZANLAXMG-UHFFFAOYSA-N

> <Salt_Solvent>


> <Salt_Solvent_ID>
0

> <MPID>
18991|18993

> <LogKOA_Ref>
Shoeib,M & Harner,T (2002)

> <LogKOA>
8.895

> <Tr_1_Tst_0>
1

$$$$
100179
  Mrv171c012251910582D          

 19 21  0  0  0  0            999 V2000
    0.9355   -1.6062    0.0000 C   0  0  0  0  0  0  0  0  0  0  0  0
    0.5238   -0.7973    0.0000 Cl  0  0  0  0  0  0  0  0  0  0  0  0
    1.5358   -1.2216    0.0000 C   0  0  0  0  0  0  0  0  0  0  0  0
    1.6512   -0.3608    0.0000 Cl  0  0  0  0  0  0  0  0  0  0  0  0
    2.2519   -1.6314    0.0000 C   0  0  0  0  0  0  0  0  0  0  0  0
    3.0355   -1.3734    0.0000 C   0  0  0  0  0  0  0  0  0  0  0  0
    3.3805   -0.5919    0.0000 Cl  0  0  0  0  0  0  0  0  0  0  0  0
    3.5230   -2.0390    0.0000 C   0  0  0  0  0  0  0  0  0  0  0  0
    4.3750   -2.0358    0.0000 Cl  0  0  0  0  0  0  0  0  0  0  0  0
    3.0406   -2.7083    0.0000 C   0  0  0  0  0  0  0  0  0  0  0  0
    3.3898   -3.4878    0.0000 Cl  0  0  0  0  0  0  0  0  0  0  0  0
    2.2550   -2.4564    0.0000 C   0  0  0  0  0  0  0  0  0  0  0  0
    1.5421   -2.8716    0.0000 C   0  0  0  0  0  0  0  0  0  0  0  0
    1.6280   -3.7326    0.0000 Cl  0  0  0  0  0  0  0  0  0  0  0  0
    1.3327   -2.0474    0.0000 C   0  0  0  0  0  0  0  0  0  0  0  0
    0.3257   -2.2992    0.0000 Cl  0  0  0  0  0  0  0  0  0  0  0  0
    0.3802   -1.6660    0.0000 Cl  0  0  0  0  0  0  0  0  0  0  0  0
    0.8261   -2.4618    0.0000 C   0  0  0  0  0  0  0  0  0  0  0  0
    0.4306   -3.2706    0.0000 Cl  0  0  0  0  0  0  0  0  0  0  0  0
  1  2  1  0  0  0  0
  3  1  1  0  0  0  0
  3  4  1  0  0  0  0
  3  5  1  0  0  0  0
  6  5  1  0  0  0  0
  6  7  1  0  0  0  0
  8  6  1  0  0  0  0
  8  9  1  0  0  0  0
 10  8  1  0  0  0  0
 10 11  1  0  0  0  0
 12 10  1  0  0  0  0
  5 12  1  0  0  0  0
 12 13  1  0  0  0  0
 13 14  1  0  0  0  0
 13 15  1  0  0  0  0
 15  3  1  0  0  0  0
 15 16  1  0  0  0  0
 15 17  1  0  0  0  0
 18 13  1  0  0  0  0
  1 18  2  0  0  0  0
 18 19  1  0  0  0  0
M  END
> <ChemID>
100179

> <CAS>
3734-49-4|39765-80-5

> <Original_SMILES>
ClC1(Cl)C2(Cl)C3C(C(Cl)C(Cl)C3Cl)C1(Cl)C(Cl)=C2Cl

> <preferred_name>
Nonachlor|trans-Nonachlor

> <dsstox_substance_id>
DTXSID8042214|DTXSID5052709

> <dsstox_compound_id>
DTXCID6022214|DTXCID30809624

> <qc_level>
DSSTox_Low

> <Canonical_QSARr>
ClC1(Cl)C2(Cl)C3C(C(Cl)C(Cl)C3Cl)C1(Cl)C(Cl)=C2Cl

> <InChI_Code_QSARr>
InChI=1S/C10H5Cl9/c11-3-1-2(4(12)5(3)13)9(17)7(15)6(14)8(1,16)10(9,18)19/h1-5H

> <InChI Key_QSARr>
OCHOKXCPKDPNQU-UHFFFAOYSA-N

> <Salt_Solvent>


> <Salt_Solvent_ID>
0

> <MPID>
18992|19028

> <LogKOA_Ref>
Shoeib,M & Harner,T (2002)

> <LogKOA>
9.43

> <Tr_1_Tst_0>
1

$$$$
100182
  Mrv171c012251910582D          

 17 18  0  0  0  0            999 V2000
    2.2640   -1.8416    0.0000 O   0  0  0  0  0  0  0  0  0  0  0  0
    2.2640   -1.0166    0.0000 C   0  0  0  0  0  0  0  0  0  0  0  0
    2.9784   -0.6041    0.0000 C   0  0  0  0  0  0  0  0  0  0  0  0
    2.9784    0.2209    0.0000 C   0  0  0  0  0  0  0  0  0  0  0  0
    2.2640    0.6334    0.0000 C   0  0  0  0  0  0  0  0  0  0  0  0
    2.2640    1.4584    0.0000 Br  0  0  0  0  0  0  0  0  0  0  0  0
    1.5495    0.2209    0.0000 C   0  0  0  0  0  0  0  0  0  0  0  0
    1.5495   -0.6041    0.0000 C   0  0  0  0  0  0  0  0  0  0  0  0
    0.8350   -1.0166    0.0000 Br  0  0  0  0  0  0  0  0  0  0  0  0
    2.9784   -2.2541    0.0000 C   0  0  0  0  0  0  0  0  0  0  0  0
    2.9784   -3.0791    0.0000 C   0  0  0  0  0  0  0  0  0  0  0  0
    2.2640   -3.4916    0.0000 Br  0  0  0  0  0  0  0  0  0  0  0  0
    3.6929   -3.4916    0.0000 C   0  0  0  0  0  0  0  0  0  0  0  0
    4.4074   -3.0791    0.0000 C   0  0  0  0  0  0  0  0  0  0  0  0
    5.1219   -3.4916    0.0000 Br  0  0  0  0  0  0  0  0  0  0  0  0
    4.4074   -2.2541    0.0000 C   0  0  0  0  0  0  0  0  0  0  0  0
    3.6929   -1.8416    0.0000 C   0  0  0  0  0  0  0  0  0  0  0  0
  1  2  1  0  0  0  0
  3  2  1  0  0  0  0
  4  3  2  0  0  0  0
  5  4  1  0  0  0  0
  5  6  1  0  0  0  0
  7  5  2  0  0  0  0
  8  7  1  0  0  0  0
  2  8  2  0  0  0  0
  8  9  1  0  0  0  0
  1 10  1  0  0  0  0
 11 10  1  0  0  0  0
 11 12  1  0  0  0  0
 13 11  2  0  0  0  0
 14 13  1  0  0  0  0
 14 15  1  0  0  0  0
 16 14  2  0  0  0  0
 17 16  1  0  0  0  0
 10 17  2  0  0  0  0
M  END
> <ChemID>
100182

> <CAS>
5436-43-1

> <Original_SMILES>
Brc1cc(Br)c(cc1)Oc1ccc(Br)cc1Br

> <preferred_name>
2,2'4,4'-Tetrabromodiphenyl ether

> <dsstox_substance_id>
DTXSID3030056

> <dsstox_compound_id>
DTXCID1010056

> <qc_level>
DSSTox_Low

> <Canonical_QSARr>
BrC1C=C(Br)C=CC=1OC1=CC=C(Br)C=C1Br

> <InChI_Code_QSARr>
InChI=1S/C12H6Br4O/c13-7-1-3-11(9(15)5-7)17-12-4-2-8(14)6-10(12)16/h1-6H

> <InChI Key_QSARr>
XYBSIYMGXVUVGY-UHFFFAOYSA-N

> <Salt_Solvent>


> <Salt_Solvent_ID>
0

> <MPID>
18994

> <LogKOA_Ref>
Harner,T & Shoeib,M (2002)

> <LogKOA>
10.53

> <Tr_1_Tst_0>
0

$$$$
100183
  Mrv171c012251910582D          

 14 15  0  0  0  0            999 V2000
    2.1410   -1.6566    0.0000 C   0  0  0  0  0  0  0  0  0  0  0  0
    2.1410   -2.4816    0.0000 C   0  0  0  0  0  0  0  0  0  0  0  0
    2.8555   -2.8941    0.0000 C   0  0  0  0  0  0  0  0  0  0  0  0
    3.5700   -2.4816    0.0000 C   0  0  0  0  0  0  0  0  0  0  0  0
    3.5700   -1.6566    0.0000 C   0  0  0  0  0  0  0  0  0  0  0  0
    2.8555   -1.2441    0.0000 C   0  0  0  0  0  0  0  0  0  0  0  0
    2.8555   -0.4191    0.0000 Cl  0  0  0  0  0  0  0  0  0  0  0  0
    1.4265   -1.2441    0.0000 C   0  0  0  0  0  0  0  0  0  0  0  0
    1.4265   -0.4191    0.0000 C   0  0  0  0  0  0  0  0  0  0  0  0
    0.7121   -0.0066    0.0000 C   0  0  0  0  0  0  0  0  0  0  0  0
   -0.0024   -0.4191    0.0000 C   0  0  0  0  0  0  0  0  0  0  0  0
   -0.0024   -1.2441    0.0000 C   0  0  0  0  0  0  0  0  0  0  0  0
    0.7121   -1.6566    0.0000 C   0  0  0  0  0  0  0  0  0  0  0  0
    0.7121   -2.4816    0.0000 Cl  0  0  0  0  0  0  0  0  0  0  0  0
  2  1  1  0  0  0  0
  3  2  2  0  0  0  0
  4  3  1  0  0  0  0
  5  4  2  0  0  0  0
  6  5  1  0  0  0  0
  1  6  2  0  0  0  0
  6  7  1  0  0  0  0
  1  8  1  0  0  0  0
  9  8  1  0  0  0  0
 10  9  2  0  0  0  0
 11 10  1  0  0  0  0
 12 11  2  0  0  0  0
 13 12  1  0  0  0  0
  8 13  2  0  0  0  0
 13 14  1  0  0  0  0
M  END
> <ChemID>
100183

> <CAS>
13029-08-8

> <Original_SMILES>
Clc1ccccc1-c1ccccc1Cl

> <preferred_name>
2,2'-Dichlorobiphenyl

> <dsstox_substance_id>
DTXSID4044533

> <dsstox_compound_id>
DTXCID2024533

> <qc_level>
DSSTox_Low

> <Canonical_QSARr>
ClC1C=CC=CC=1C1C=CC=CC=1Cl

> <InChI_Code_QSARr>
InChI=1S/C12H8Cl2/c13-11-7-3-1-5-9(11)10-6-2-4-8-12(10)14/h1-8H

> <InChI Key_QSARr>
JAYCNKDKIKZTAF-UHFFFAOYSA-N

> <Salt_Solvent>


> <Salt_Solvent_ID>
0

> <MPID>
18995

> <LogKOA_Ref>
Komp,P & McLachlan,MS (1997)

> <LogKOA>
7.18

> <Tr_1_Tst_0>
1

$$$$
100184
  Mrv171c012251910582D          

 15 16  0  0  0  0            999 V2000
    0.6668    2.0350    0.0000 C   0  0  0  0  0  0  0  0  0  0  0  0
    0.6668    2.8600    0.0000 C   0  0  0  0  0  0  0  0  0  0  0  0
   -0.0476    3.2725    0.0000 C   0  0  0  0  0  0  0  0  0  0  0  0
   -0.0476    4.0975    0.0000 Cl  0  0  0  0  0  0  0  0  0  0  0  0
   -0.7621    2.8600    0.0000 C   0  0  0  0  0  0  0  0  0  0  0  0
   -1.4766    3.2725    0.0000 Cl  0  0  0  0  0  0  0  0  0  0  0  0
   -0.7621    2.0350    0.0000 C   0  0  0  0  0  0  0  0  0  0  0  0
   -0.0476    1.6225    0.0000 C   0  0  0  0  0  0  0  0  0  0  0  0
   -0.0476    0.7975    0.0000 Cl  0  0  0  0  0  0  0  0  0  0  0  0
    1.3813    1.6225    0.0000 C   0  0  0  0  0  0  0  0  0  0  0  0
    1.3813    0.7975    0.0000 C   0  0  0  0  0  0  0  0  0  0  0  0
    2.0958    0.3850    0.0000 C   0  0  0  0  0  0  0  0  0  0  0  0
    2.8102    0.7975    0.0000 C   0  0  0  0  0  0  0  0  0  0  0  0
    2.8102    1.6225    0.0000 C   0  0  0  0  0  0  0  0  0  0  0  0
    2.0958    2.0350    0.0000 C   0  0  0  0  0  0  0  0  0  0  0  0
  2  1  1  0  0  0  0
  3  2  2  0  0  0  0
  3  4  1  0  0  0  0
  5  3  1  0  0  0  0
  5  6  1  0  0  0  0
  7  5  2  0  0  0  0
  8  7  1  0  0  0  0
  1  8  2  0  0  0  0
  8  9  1  0  0  0  0
  1 10  1  0  0  0  0
 11 10  1  0  0  0  0
 12 11  2  0  0  0  0
 13 12  1  0  0  0  0
 14 13  2  0  0  0  0
 15 14  1  0  0  0  0
 10 15  2  0  0  0  0
M  END
> <ChemID>
100184

> <CAS>
15862-07-4

> <Original_SMILES>
Clc1cc(-c2ccccc2)c(Cl)cc1Cl

> <preferred_name>
2,4,5-Trichlorobiphenyl

> <dsstox_substance_id>
DTXSID0073405

> <dsstox_compound_id>
DTXCID6035100

> <qc_level>
Public_High

> <Canonical_QSARr>
ClC1C=C(Cl)C(Cl)=CC=1C1C=CC=CC=1

> <InChI_Code_QSARr>
InChI=1S/C12H7Cl3/c13-10-7-12(15)11(14)6-9(10)8-4-2-1-3-5-8/h1-7H

> <InChI Key_QSARr>
VGVIKVCCUATMNG-UHFFFAOYSA-N

> <Salt_Solvent>


> <Salt_Solvent_ID>
0

> <MPID>
18996

> <LogKOA_Ref>
Wania,F et al. (2002)

> <LogKOA>
8.0

> <Tr_1_Tst_0>
1

$$$$
100185
  Mrv171c012251910582D          

 15 16  0  0  0  0            999 V2000
    0.3334    1.8425    0.0000 C   0  0  0  0  0  0  0  0  0  0  0  0
    0.3334    2.6675    0.0000 C   0  0  0  0  0  0  0  0  0  0  0  0
   -0.3811    3.0800    0.0000 C   0  0  0  0  0  0  0  0  0  0  0  0
   -0.3811    3.9050    0.0000 Cl  0  0  0  0  0  0  0  0  0  0  0  0
   -1.0955    2.6675    0.0000 C   0  0  0  0  0  0  0  0  0  0  0  0
   -1.0955    1.8425    0.0000 C   0  0  0  0  0  0  0  0  0  0  0  0
   -0.3811    1.4300    0.0000 C   0  0  0  0  0  0  0  0  0  0  0  0
   -0.3811    0.6050    0.0000 Cl  0  0  0  0  0  0  0  0  0  0  0  0
    1.0479    1.4300    0.0000 C   0  0  0  0  0  0  0  0  0  0  0  0
    1.0479    0.6050    0.0000 C   0  0  0  0  0  0  0  0  0  0  0  0
    1.7624    0.1925    0.0000 C   0  0  0  0  0  0  0  0  0  0  0  0
    2.4768    0.6050    0.0000 C   0  0  0  0  0  0  0  0  0  0  0  0
    3.1913    0.1925    0.0000 Cl  0  0  0  0  0  0  0  0  0  0  0  0
    2.4768    1.4300    0.0000 C   0  0  0  0  0  0  0  0  0  0  0  0
    1.7624    1.8425    0.0000 C   0  0  0  0  0  0  0  0  0  0  0  0
  2  1  1  0  0  0  0
  3  2  2  0  0  0  0
  3  4  1  0  0  0  0
  5  3  1  0  0  0  0
  6  5  2  0  0  0  0
  7  6  1  0  0  0  0
  1  7  2  0  0  0  0
  7  8  1  0  0  0  0
  1  9  1  0  0  0  0
 10  9  1  0  0  0  0
 11 10  2  0  0  0  0
 12 11  1  0  0  0  0
 12 13  1  0  0  0  0
 14 12  2  0  0  0  0
 15 14  1  0  0  0  0
  9 15  2  0  0  0  0
M  END
> <ChemID>
100185

> <CAS>
16606-02-3

> <Original_SMILES>
Clc1ccc(Cl)cc1-c1ccc(Cl)cc1

> <preferred_name>
2,4',5-Trichlorobiphenyl

> <dsstox_substance_id>
DTXSID9073410

> <dsstox_compound_id>
DTXCID9035333

> <qc_level>
Public_High

> <Canonical_QSARr>
ClC1=CC(C2C=CC(Cl)=CC=2)=C(Cl)C=C1

> <InChI_Code_QSARr>
InChI=1S/C12H7Cl3/c13-9-3-1-8(2-4-9)11-7-10(14)5-6-12(11)15/h1-7H

> <InChI Key_QSARr>
VAHKBZSAUKPEOV-UHFFFAOYSA-N

> <Salt_Solvent>


> <Salt_Solvent_ID>
0

> <MPID>
18997

> <LogKOA_Ref>
Komp,P & McLachlan,MS (1997)

> <LogKOA>
7.92

> <Tr_1_Tst_0>
1

$$$$
100186
  Mrv171c012251910582D          

 20 22  0  0  0  0            999 V2000
    2.8797   -0.8581    0.0000 O   0  0  0  0  0  0  0  0  0  0  0  0
    3.5941   -1.2706    0.0000 C   0  0  0  0  0  0  0  0  0  0  0  0
    4.3086   -0.8581    0.0000 C   0  0  0  0  0  0  0  0  0  0  0  0
    4.3086   -0.0331    0.0000 Cl  0  0  0  0  0  0  0  0  0  0  0  0
    5.0231   -1.2706    0.0000 C   0  0  0  0  0  0  0  0  0  0  0  0
    5.7375   -0.8581    0.0000 Cl  0  0  0  0  0  0  0  0  0  0  0  0
    5.0231   -2.0956    0.0000 C   0  0  0  0  0  0  0  0  0  0  0  0
    5.7375   -2.5081    0.0000 Cl  0  0  0  0  0  0  0  0  0  0  0  0
    4.3086   -2.5081    0.0000 C   0  0  0  0  0  0  0  0  0  0  0  0
    3.5941   -2.0956    0.0000 C   0  0  0  0  0  0  0  0  0  0  0  0
    2.8797   -2.5081    0.0000 O   0  0  0  0  0  0  0  0  0  0  0  0
    2.1652   -2.0956    0.0000 C   0  0  0  0  0  0  0  0  0  0  0  0
    1.4507   -2.5081    0.0000 C   0  0  0  0  0  0  0  0  0  0  0  0
    0.7362   -2.0956    0.0000 C   0  0  0  0  0  0  0  0  0  0  0  0
    0.0218   -2.5081    0.0000 Cl  0  0  0  0  0  0  0  0  0  0  0  0
    0.7362   -1.2706    0.0000 C   0  0  0  0  0  0  0  0  0  0  0  0
    0.0218   -0.8581    0.0000 Cl  0  0  0  0  0  0  0  0  0  0  0  0
    1.4507   -0.8581    0.0000 C   0  0  0  0  0  0  0  0  0  0  0  0
    1.4507   -0.0331    0.0000 Cl  0  0  0  0  0  0  0  0  0  0  0  0
    2.1652   -1.2706    0.0000 C   0  0  0  0  0  0  0  0  0  0  0  0
  2  1  1  0  0  0  0
  2  3  1  0  0  0  0
  3  4  1  0  0  0  0
  3  5  2  0  0  0  0
  5  6  1  0  0  0  0
  5  7  1  0  0  0  0
  7  8  1  0  0  0  0
  7  9  2  0  0  0  0
  9 10  1  0  0  0  0
 10  2  2  0  0  0  0
 11 10  1  0  0  0  0
 12 11  1  0  0  0  0
 12 13  1  0  0  0  0
 13 14  2  0  0  0  0
 14 15  1  0  0  0  0
 14 16  1  0  0  0  0
 16 17  1  0  0  0  0
 16 18  2  0  0  0  0
 18 19  1  0  0  0  0
 18 20  1  0  0  0  0
  1 20  1  0  0  0  0
 20 12  2  0  0  0  0
M  END
> <ChemID>
100186

> <CAS>
19408-74-3

> <Original_SMILES>
Clc1cc2Oc3cc(Cl)c(Cl)c(Cl)c3Oc2c(Cl)c1Cl

> <preferred_name>
Hexachlorodibenzo-p-dioxin

> <dsstox_substance_id>
DTXSID6023781

> <dsstox_compound_id>
DTXCID10677

> <qc_level>
DSSTox_Low

> <Canonical_QSARr>
ClC1=CC2OC3C=C(Cl)C(Cl)=C(Cl)C=3OC=2C(Cl)=C1Cl

> <InChI_Code_QSARr>
InChI=1S/C12H2Cl6O2/c13-3-1-5-11(9(17)7(3)15)20-12-6(19-5)2-4(14)8(16)10(12)18/h1-2H

> <InChI Key_QSARr>
LGIRBUBHIWTVCK-UHFFFAOYSA-N

> <Salt_Solvent>


> <Salt_Solvent_ID>
0

> <MPID>
18998

> <LogKOA_Ref>
Chen,JW et al. (2001)

> <LogKOA>
11.01

> <Tr_1_Tst_0>
0

$$$$
100187
  Mrv171c012251910582D          

 14 15  0  0  0  0            999 V2000
    0.1016   -0.8257    0.0000 Cl  0  0  0  0  0  0  0  0  0  0  0  0
    0.8160   -1.2382    0.0000 C   0  0  0  0  0  0  0  0  0  0  0  0
    1.5305   -0.8257    0.0000 C   0  0  0  0  0  0  0  0  0  0  0  0
    1.5305   -0.0007    0.0000 Cl  0  0  0  0  0  0  0  0  0  0  0  0
    2.2450   -1.2382    0.0000 C   0  0  0  0  0  0  0  0  0  0  0  0
    2.9594   -0.8257    0.0000 C   0  0  0  0  0  0  0  0  0  0  0  0
    3.6739   -1.2382    0.0000 C   0  0  0  0  0  0  0  0  0  0  0  0
    3.6739   -2.0632    0.0000 C   0  0  0  0  0  0  0  0  0  0  0  0
    2.9594   -2.4757    0.0000 C   0  0  0  0  0  0  0  0  0  0  0  0
    2.2450   -2.0632    0.0000 C   0  0  0  0  0  0  0  0  0  0  0  0
    1.5305   -2.4757    0.0000 C   0  0  0  0  0  0  0  0  0  0  0  0
    1.5305   -3.3007    0.0000 Cl  0  0  0  0  0  0  0  0  0  0  0  0
    0.8160   -2.0632    0.0000 C   0  0  0  0  0  0  0  0  0  0  0  0
    0.1016   -2.4757    0.0000 Cl  0  0  0  0  0  0  0  0  0  0  0  0
  1  2  1  0  0  0  0
  3  2  1  0  0  0  0
  3  4  1  0  0  0  0
  5  3  2  0  0  0  0
  5  6  1  0  0  0  0
  6  7  2  0  0  0  0
  7  8  1  0  0  0  0
  8  9  2  0  0  0  0
  9 10  1  0  0  0  0
 10  5  1  0  0  0  0
 11 10  2  0  0  0  0
 11 12  1  0  0  0  0
 13 11  1  0  0  0  0
  2 13  2  0  0  0  0
 13 14  1  0  0  0  0
M  END
> <ChemID>
100187

> <CAS>
20020-02-4

> <Original_SMILES>
Clc1c2ccccc2c(Cl)c(Cl)c1Cl

> <preferred_name>
1,2,3,4-Tetrachloronaphthalene

> <dsstox_substance_id>
DTXSID5026095

> <dsstox_compound_id>
DTXCID306095

> <qc_level>
DSSTox_Low

> <Canonical_QSARr>
ClC1=C2C=CC=CC2=C(Cl)C(Cl)=C1Cl

> <InChI_Code_QSARr>
InChI=1S/C10H4Cl4/c11-7-5-3-1-2-4-6(5)8(12)10(14)9(7)13/h1-4H

> <InChI Key_QSARr>
NAQWICRLNQSPPW-UHFFFAOYSA-N

> <Salt_Solvent>


> <Salt_Solvent_ID>
0

> <MPID>
18999

> <LogKOA_Ref>
Wania,F et al. (2002)

> <LogKOA>
8.3

> <Tr_1_Tst_0>
1

$$$$
100188
  Mrv171c012251910582D          

 19 22  0  0  0  0            999 V2000
   -2.2474   -0.3974    0.0000 O   0  0  0  0  0  0  0  0  0  0  0  0
   -1.7645    0.2714    0.0000 C   0  0  0  0  0  0  0  0  0  0  0  0
   -2.4617    0.7911    0.0000 Cl  0  0  0  0  0  0  0  0  0  0  0  0
   -1.1530    0.8253    0.0000 C   0  0  0  0  0  0  0  0  0  0  0  0
   -1.3642    1.6749    0.0000 Cl  0  0  0  0  0  0  0  0  0  0  0  0
   -0.5538    0.4084    0.0000 C   0  0  0  0  0  0  0  0  0  0  0  0
    0.3465    0.6721    0.0000 C   0  0  0  0  0  0  0  0  0  0  0  0
    0.7513    1.4659    0.0000 Cl  0  0  0  0  0  0  0  0  0  0  0  0
    0.3792   -0.1776    0.0000 C   0  0  0  0  0  0  0  0  0  0  0  0
   -0.1194    0.7043    0.0000 Cl  0  0  0  0  0  0  0  0  0  0  0  0
   -0.4379   -0.8649    0.0000 Cl  0  0  0  0  0  0  0  0  0  0  0  0
    0.0082   -0.9428    0.0000 C   0  0  0  0  0  0  0  0  0  0  0  0
   -0.0063   -1.8368    0.0000 Cl  0  0  0  0  0  0  0  0  0  0  0  0
    0.7921   -0.6856    0.0000 C   0  0  0  0  0  0  0  0  0  0  0  0
    1.4503   -1.2517    0.0000 Cl  0  0  0  0  0  0  0  0  0  0  0  0
    0.9612    0.1219    0.0000 C   0  0  0  0  0  0  0  0  0  0  0  0
    1.7933    0.3712    0.0000 Cl  0  0  0  0  0  0  0  0  0  0  0  0
   -0.6065   -0.3926    0.0000 C   0  0  0  0  0  0  0  0  0  0  0  0
   -1.4267   -0.4812    0.0000 C   0  0  0  0  0  0  0  0  0  0  0  0
  2  1  1  0  0  0  0
  2  3  1  0  0  0  0
  2  4  1  0  0  0  0
  4  5  1  0  0  0  0
  4  6  1  0  0  0  0
  7  6  1  0  0  0  0
  7  8  1  0  0  0  0
  7  9  1  0  0  0  0
  9 10  1  0  0  0  0
  9 11  1  0  0  0  0
  9 12  1  0  0  0  0
 12 13  1  0  0  0  0
 12 14  1  0  0  0  0
 14 15  1  0  0  0  0
 14 16  2  0  0  0  0
 16  7  1  0  0  0  0
 16 17  1  0  0  0  0
 18 12  1  0  0  0  0
  6 18  1  0  0  0  0
 18 19  1  0  0  0  0
  1 19  1  0  0  0  0
 19  2  1  0  0  0  0
M  END
> <ChemID>
100188

> <CAS>
27304-13-8

> <Original_SMILES>
ClC1(Cl)[C@@]2(Cl)[C@H]3[C@H]([C@@H]4O[C@]4(Cl)[C@@H]3Cl)[C@]1(Cl)C(Cl)=C2Cl

> <preferred_name>
(+/-)-Oxychlordane

> <dsstox_substance_id>
DTXSID9044166

> <dsstox_compound_id>
DTXCID70809623

> <qc_level>
DSSTox_High

> <Canonical_QSARr>
ClC1(Cl)C2(Cl)C3C(C4OC4(Cl)C3Cl)C1(Cl)C(Cl)=C2Cl

> <InChI_Code_QSARr>
InChI=1S/C10H4Cl8O/c11-3-1-2(6-9(3,16)19-6)8(15)5(13)4(12)7(1,14)10(8,17)18/h1-3,6H

> <InChI Key_QSARr>
VWGNQYSIWFHEQU-UHFFFAOYSA-N

> <Salt_Solvent>


> <Salt_Solvent_ID>
0

> <MPID>
19000

> <LogKOA_Ref>
Shoeib,M & Harner,T (2002)

> <LogKOA>
8.39

> <Tr_1_Tst_0>
1

$$$$
100189
  Mrv171c012251910582D          

 16 18  0  0  0  0            999 V2000
    6.5458    0.8250    0.0000 Cl  0  0  0  0  0  0  0  0  0  0  0  0
    5.8314    0.4125    0.0000 C   0  0  0  0  0  0  0  0  0  0  0  0
    5.8314   -0.4125    0.0000 C   0  0  0  0  0  0  0  0  0  0  0  0
    6.5458   -0.8250    0.0000 Cl  0  0  0  0  0  0  0  0  0  0  0  0
    5.1169   -0.8250    0.0000 C   0  0  0  0  0  0  0  0  0  0  0  0
    4.4024   -0.4125    0.0000 C   0  0  0  0  0  0  0  0  0  0  0  0
    4.4024    0.4125    0.0000 C   0  0  0  0  0  0  0  0  0  0  0  0
    3.6879    0.8250    0.0000 O   0  0  0  0  0  0  0  0  0  0  0  0
    2.9735    0.4125    0.0000 C   0  0  0  0  0  0  0  0  0  0  0  0
    2.2590    0.8250    0.0000 C   0  0  0  0  0  0  0  0  0  0  0  0
    1.5445    0.4125    0.0000 C   0  0  0  0  0  0  0  0  0  0  0  0
    1.5445   -0.4125    0.0000 C   0  0  0  0  0  0  0  0  0  0  0  0
    2.2590   -0.8250    0.0000 C   0  0  0  0  0  0  0  0  0  0  0  0
    2.9735   -0.4125    0.0000 C   0  0  0  0  0  0  0  0  0  0  0  0
    3.6879   -0.8250    0.0000 O   0  0  0  0  0  0  0  0  0  0  0  0
    5.1169    0.8250    0.0000 C   0  0  0  0  0  0  0  0  0  0  0  0
  1  2  1  0  0  0  0
  3  2  2  0  0  0  0
  3  4  1  0  0  0  0
  5  3  1  0  0  0  0
  6  5  2  0  0  0  0
  6  7  1  0  0  0  0
  7  8  1  0  0  0  0
  8  9  1  0  0  0  0
 10  9  2  0  0  0  0
 11 10  1  0  0  0  0
 12 11  2  0  0  0  0
 13 12  1  0  0  0  0
 14 13  2  0  0  0  0
  9 14  1  0  0  0  0
 14 15  1  0  0  0  0
 15  6  1  0  0  0  0
 16  7  2  0  0  0  0
  2 16  1  0  0  0  0
M  END
> <ChemID>
100189

> <CAS>
29446-15-9

> <Original_SMILES>
Clc1cc2Oc3ccccc3Oc2cc1Cl

> <preferred_name>
2,3-Dichlorodibenzo-4-dioxin

> <dsstox_substance_id>
DTXSID50183650

> <dsstox_compound_id>
DTXCID90106141

> <qc_level>
Public_Medium

> <Canonical_QSARr>
ClC1C=C2OC3=CC=CC=C3OC2=CC=1Cl

> <InChI_Code_QSARr>
InChI=1S/C12H6Cl2O2/c13-7-5-11-12(6-8(7)14)16-10-4-2-1-3-9(10)15-11/h1-6H

> <InChI Key_QSARr>
YCIYTXRUZSDMRZ-UHFFFAOYSA-N

> <Salt_Solvent>


> <Salt_Solvent_ID>
0

> <MPID>
19001

> <LogKOA_Ref>
Chen,JW et al. (2001)

> <LogKOA>
8.5

> <Tr_1_Tst_0>
1

$$$$
100190
  Mrv171c012251910582D          

 18 20  0  0  0  0            999 V2000
    2.8579   -0.0000    0.0000 C   0  0  0  0  0  0  0  0  0  0  0  0
    3.5724   -0.4125    0.0000 C   0  0  0  0  0  0  0  0  0  0  0  0
    3.5724   -1.2375    0.0000 Cl  0  0  0  0  0  0  0  0  0  0  0  0
    4.2868    0.0000    0.0000 C   0  0  0  0  0  0  0  0  0  0  0  0
    5.0013   -0.4125    0.0000 Cl  0  0  0  0  0  0  0  0  0  0  0  0
    4.2868    0.8250    0.0000 C   0  0  0  0  0  0  0  0  0  0  0  0
    5.0013    1.2375    0.0000 Cl  0  0  0  0  0  0  0  0  0  0  0  0
    3.5724    1.2375    0.0000 C   0  0  0  0  0  0  0  0  0  0  0  0
    3.5724    2.0625    0.0000 Cl  0  0  0  0  0  0  0  0  0  0  0  0
    2.8579    0.8250    0.0000 C   0  0  0  0  0  0  0  0  0  0  0  0
    2.1434    1.2375    0.0000 O   0  0  0  0  0  0  0  0  0  0  0  0
    1.4289    0.8250    0.0000 C   0  0  0  0  0  0  0  0  0  0  0  0
    1.4289    0.0000    0.0000 C   0  0  0  0  0  0  0  0  0  0  0  0
    0.7145   -0.4125    0.0000 C   0  0  0  0  0  0  0  0  0  0  0  0
    0.0000   -0.0000    0.0000 C   0  0  0  0  0  0  0  0  0  0  0  0
    0.0000    0.8250    0.0000 C   0  0  0  0  0  0  0  0  0  0  0  0
    0.7145    1.2375    0.0000 C   0  0  0  0  0  0  0  0  0  0  0  0
    2.1434   -0.4125    0.0000 O   0  0  0  0  0  0  0  0  0  0  0  0
  2  1  1  0  0  0  0
  2  3  1  0  0  0  0
  4  2  2  0  0  0  0
  4  5  1  0  0  0  0
  6  4  1  0  0  0  0
  6  7  1  0  0  0  0
  8  6  2  0  0  0  0
  8  9  1  0  0  0  0
 10  8  1  0  0  0  0
 10  1  2  0  0  0  0
 11 10  1  0  0  0  0
 12 11  1  0  0  0  0
 12 13  1  0  0  0  0
 13 14  2  0  0  0  0
 14 15  1  0  0  0  0
 15 16  2  0  0  0  0
 16 17  1  0  0  0  0
 17 12  2  0  0  0  0
 18 13  1  0  0  0  0
  1 18  1  0  0  0  0
M  END
> <ChemID>
100190

> <CAS>
30746-58-8

> <Original_SMILES>
Clc1c2Oc3ccccc3Oc2c(Cl)c(Cl)c1Cl

> <preferred_name>
1,2,3,4-Tetrachlorodibenzo-p-dioxin

> <dsstox_substance_id>
DTXSID7074030

> <dsstox_compound_id>
DTXCID5038252

> <qc_level>
Public_High

> <Canonical_QSARr>
ClC1C2OC3=CC=CC=C3OC=2C(Cl)=C(Cl)C=1Cl

> <InChI_Code_QSARr>
InChI=1S/C12H4Cl4O2/c13-7-8(14)10(16)12-11(9(7)15)17-5-3-1-2-4-6(5)18-12/h1-4H

> <InChI Key_QSARr>
DJHHDLMTUOLVHY-UHFFFAOYSA-N

> <Salt_Solvent>


> <Salt_Solvent_ID>
0

> <MPID>
19002

> <LogKOA_Ref>
Harner,T et al. (2000)

> <LogKOA>
9.7

> <Tr_1_Tst_0>
0

$$$$
100191
  Mrv171c012251910582D          

 17 18  0  0  0  0            999 V2000
    2.4846   -1.2196    0.0000 C   0  0  0  0  0  0  0  0  0  0  0  0
    2.4846   -0.3946    0.0000 C   0  0  0  0  0  0  0  0  0  0  0  0
    1.7701    0.0179    0.0000 C   0  0  0  0  0  0  0  0  0  0  0  0
    1.7701    0.8429    0.0000 Cl  0  0  0  0  0  0  0  0  0  0  0  0
    1.0557   -0.3946    0.0000 C   0  0  0  0  0  0  0  0  0  0  0  0
    0.3412    0.0179    0.0000 Cl  0  0  0  0  0  0  0  0  0  0  0  0
    1.0557   -1.2196    0.0000 C   0  0  0  0  0  0  0  0  0  0  0  0
    1.7701   -1.6321    0.0000 C   0  0  0  0  0  0  0  0  0  0  0  0
    1.7701   -2.4571    0.0000 Cl  0  0  0  0  0  0  0  0  0  0  0  0
    3.1991   -1.6321    0.0000 C   0  0  0  0  0  0  0  0  0  0  0  0
    3.1991   -2.4571    0.0000 C   0  0  0  0  0  0  0  0  0  0  0  0
    3.9136   -2.8696    0.0000 C   0  0  0  0  0  0  0  0  0  0  0  0
    4.6280   -2.4571    0.0000 C   0  0  0  0  0  0  0  0  0  0  0  0
    5.3425   -2.8696    0.0000 Cl  0  0  0  0  0  0  0  0  0  0  0  0
    4.6280   -1.6321    0.0000 C   0  0  0  0  0  0  0  0  0  0  0  0
    5.3425   -1.2196    0.0000 Cl  0  0  0  0  0  0  0  0  0  0  0  0
    3.9136   -1.2196    0.0000 C   0  0  0  0  0  0  0  0  0  0  0  0
  2  1  1  0  0  0  0
  3  2  2  0  0  0  0
  3  4  1  0  0  0  0
  5  3  1  0  0  0  0
  5  6  1  0  0  0  0
  7  5  2  0  0  0  0
  8  7  1  0  0  0  0
  1  8  2  0  0  0  0
  8  9  1  0  0  0  0
  1 10  1  0  0  0  0
 11 10  1  0  0  0  0
 12 11  2  0  0  0  0
 13 12  1  0  0  0  0
 13 14  1  0  0  0  0
 15 13  2  0  0  0  0
 15 16  1  0  0  0  0
 17 15  1  0  0  0  0
 10 17  2  0  0  0  0
M  END
> <ChemID>
100191

> <CAS>
31508-00-6

> <Original_SMILES>
Clc1ccc(cc1Cl)-c1cc(Cl)c(Cl)cc1Cl

> <preferred_name>
2,3',4,4',5-Pentachlorobiphenyl

> <dsstox_substance_id>
DTXSID4032116

> <dsstox_compound_id>
DTXCID2012116

> <qc_level>
DSSTox_Low

> <Canonical_QSARr>
ClC1C=C(C=CC=1Cl)C1C=C(Cl)C(Cl)=CC=1Cl

> <InChI_Code_QSARr>
InChI=1S/C12H5Cl5/c13-8-2-1-6(3-10(8)15)7-4-11(16)12(17)5-9(7)14/h1-5H

> <InChI Key_QSARr>
IUTPYMGCWINGEY-UHFFFAOYSA-N

> <Salt_Solvent>


> <Salt_Solvent_ID>
0

> <MPID>
19003

> <LogKOA_Ref>
Harner,T & Bidleman,TF (1996)

> <LogKOA>
9.82

> <Tr_1_Tst_0>
1

$$$$
100192
  Mrv171c012251910582D          

 14 15  0  0  0  0            999 V2000
    3.0919   -1.6500    0.0000 Cl  0  0  0  0  0  0  0  0  0  0  0  0
    3.0919   -0.8250    0.0000 C   0  0  0  0  0  0  0  0  0  0  0  0
    2.3774   -0.4125    0.0000 C   0  0  0  0  0  0  0  0  0  0  0  0
    2.3774    0.4125    0.0000 C   0  0  0  0  0  0  0  0  0  0  0  0
    1.6630    0.8250    0.0000 Cl  0  0  0  0  0  0  0  0  0  0  0  0
    3.0919    0.8250    0.0000 C   0  0  0  0  0  0  0  0  0  0  0  0
    3.8064    0.4125    0.0000 C   0  0  0  0  0  0  0  0  0  0  0  0
    4.5209    0.8250    0.0000 C   0  0  0  0  0  0  0  0  0  0  0  0
    5.2353    0.4125    0.0000 C   0  0  0  0  0  0  0  0  0  0  0  0
    5.2353   -0.4125    0.0000 C   0  0  0  0  0  0  0  0  0  0  0  0
    4.5209   -0.8250    0.0000 C   0  0  0  0  0  0  0  0  0  0  0  0
    4.5209   -1.6500    0.0000 Cl  0  0  0  0  0  0  0  0  0  0  0  0
    3.8064   -0.4125    0.0000 C   0  0  0  0  0  0  0  0  0  0  0  0
    4.5209    1.6500    0.0000 Cl  0  0  0  0  0  0  0  0  0  0  0  0
  1  2  1  0  0  0  0
  3  2  2  0  0  0  0
  4  3  1  0  0  0  0
  4  5  1  0  0  0  0
  6  4  2  0  0  0  0
  7  6  1  0  0  0  0
  7  8  2  0  0  0  0
  8  9  1  0  0  0  0
  9 10  2  0  0  0  0
 10 11  1  0  0  0  0
 11 12  1  0  0  0  0
 11 13  2  0  0  0  0
  2 13  1  0  0  0  0
 13  7  1  0  0  0  0
  8 14  1  0  0  0  0
M  END
> <ChemID>
100192

> <CAS>
31604-28-1

> <Original_SMILES>
Clc1cc2c(c(Cl)c1)c(Cl)ccc2Cl

> <preferred_name>
Naphthalene, 1,3,5,8-tetrachloro-

> <dsstox_substance_id>
DTXSID10185493

> <dsstox_compound_id>
DTXCID20107984

> <qc_level>
Public_Medium

> <Canonical_QSARr>
ClC1C=C(Cl)C2C(C=1)=C(Cl)C=CC=2Cl

> <InChI_Code_QSARr>
InChI=1S/C10H4Cl4/c11-5-3-6-7(12)1-2-8(13)10(6)9(14)4-5/h1-4H

> <InChI Key_QSARr>
VFTLNRFRXWCJJK-UHFFFAOYSA-N

> <Salt_Solvent>


> <Salt_Solvent_ID>
0

> <MPID>
19004

> <LogKOA_Ref>
Su,Y et al. (2002)

> <LogKOA>
8.28

> <Tr_1_Tst_0>
1

$$$$
100193
  Mrv171c012251910582D          

 16 17  0  0  0  0            999 V2000
    0.7145    2.0626    0.0000 C   0  0  0  0  0  0  0  0  0  0  0  0
    1.4290    2.4751    0.0000 C   0  0  0  0  0  0  0  0  0  0  0  0
    1.4290    3.3001    0.0000 C   0  0  0  0  0  0  0  0  0  0  0  0
    0.7145    3.7126    0.0000 C   0  0  0  0  0  0  0  0  0  0  0  0
    0.7145    4.5376    0.0000 Cl  0  0  0  0  0  0  0  0  0  0  0  0
    0.0000    3.3001    0.0000 C   0  0  0  0  0  0  0  0  0  0  0  0
   -0.7144    3.7126    0.0000 Cl  0  0  0  0  0  0  0  0  0  0  0  0
    0.0000    2.4751    0.0000 C   0  0  0  0  0  0  0  0  0  0  0  0
    0.7145    1.2376    0.0000 C   0  0  0  0  0  0  0  0  0  0  0  0
    0.0000    0.8251    0.0000 C   0  0  0  0  0  0  0  0  0  0  0  0
    0.0000    0.0001    0.0000 C   0  0  0  0  0  0  0  0  0  0  0  0
    0.7145   -0.4124    0.0000 C   0  0  0  0  0  0  0  0  0  0  0  0
    0.7145   -1.2374    0.0000 Cl  0  0  0  0  0  0  0  0  0  0  0  0
    1.4290    0.0001    0.0000 C   0  0  0  0  0  0  0  0  0  0  0  0
    1.4290    0.8251    0.0000 C   0  0  0  0  0  0  0  0  0  0  0  0
    2.1434    1.2376    0.0000 Cl  0  0  0  0  0  0  0  0  0  0  0  0
  2  1  1  0  0  0  0
  3  2  2  0  0  0  0
  4  3  1  0  0  0  0
  4  5  1  0  0  0  0
  6  4  2  0  0  0  0
  6  7  1  0  0  0  0
  8  6  1  0  0  0  0
  1  8  2  0  0  0  0
  1  9  1  0  0  0  0
 10  9  1  0  0  0  0
 11 10  2  0  0  0  0
 12 11  1  0  0  0  0
 12 13  1  0  0  0  0
 14 12  2  0  0  0  0
 15 14  1  0  0  0  0
  9 15  2  0  0  0  0
 15 16  1  0  0  0  0
M  END
> <ChemID>
100193

> <CAS>
32598-10-0

> <Original_SMILES>
Clc1cc(Cl)c(cc1)-c1cc(Cl)c(Cl)cc1

> <preferred_name>
2,3',4,4'-Tetrachlorobiphenyl

> <dsstox_substance_id>
DTXSID3073472

> <dsstox_compound_id>
DTXCID1038537

> <qc_level>
Public_High

> <Canonical_QSARr>
ClC1=CC(Cl)=C(C=C1)C1=CC(Cl)=C(Cl)C=C1

> <InChI_Code_QSARr>
InChI=1S/C12H6Cl4/c13-8-2-3-9(11(15)6-8)7-1-4-10(14)12(16)5-7/h1-6H

> <InChI Key_QSARr>
RKLLTEAEZIJBAU-UHFFFAOYSA-N

> <Salt_Solvent>


> <Salt_Solvent_ID>
0

> <MPID>
19005

> <LogKOA_Ref>
Harner,T & Bidleman,TF (1996)

> <LogKOA>
9.02

> <Tr_1_Tst_0>
1

$$$$
100194
  Mrv171c012251910582D          

 16 17  0  0  0  0            999 V2000
    2.8868   -1.0175    0.0000 C   0  0  0  0  0  0  0  0  0  0  0  0
    3.6012   -0.6050    0.0000 C   0  0  0  0  0  0  0  0  0  0  0  0
    3.6012    0.2200    0.0000 C   0  0  0  0  0  0  0  0  0  0  0  0
    2.8868    0.6325    0.0000 C   0  0  0  0  0  0  0  0  0  0  0  0
    2.8868    1.4575    0.0000 Cl  0  0  0  0  0  0  0  0  0  0  0  0
    2.1723    0.2200    0.0000 C   0  0  0  0  0  0  0  0  0  0  0  0
    1.4578    0.6325    0.0000 Cl  0  0  0  0  0  0  0  0  0  0  0  0
    2.1723   -0.6050    0.0000 C   0  0  0  0  0  0  0  0  0  0  0  0
    2.8868   -1.8425    0.0000 C   0  0  0  0  0  0  0  0  0  0  0  0
    2.1723   -2.2550    0.0000 C   0  0  0  0  0  0  0  0  0  0  0  0
    2.1723   -3.0800    0.0000 C   0  0  0  0  0  0  0  0  0  0  0  0
    2.8868   -3.4925    0.0000 C   0  0  0  0  0  0  0  0  0  0  0  0
    2.8868   -4.3175    0.0000 Cl  0  0  0  0  0  0  0  0  0  0  0  0
    3.6012   -3.0800    0.0000 C   0  0  0  0  0  0  0  0  0  0  0  0
    4.3157   -3.4925    0.0000 Cl  0  0  0  0  0  0  0  0  0  0  0  0
    3.6012   -2.2550    0.0000 C   0  0  0  0  0  0  0  0  0  0  0  0
  2  1  1  0  0  0  0
  3  2  2  0  0  0  0
  4  3  1  0  0  0  0
  4  5  1  0  0  0  0
  6  4  2  0  0  0  0
  6  7  1  0  0  0  0
  8  6  1  0  0  0  0
  1  8  2  0  0  0  0
  1  9  1  0  0  0  0
 10  9  1  0  0  0  0
 11 10  2  0  0  0  0
 12 11  1  0  0  0  0
 12 13  1  0  0  0  0
 14 12  2  0  0  0  0
 14 15  1  0  0  0  0
 16 14  1  0  0  0  0
  9 16  2  0  0  0  0
M  END
> <ChemID>
100194

> <CAS>
32598-13-3

> <Original_SMILES>
Clc1ccc(cc1Cl)-c1cc(Cl)c(Cl)cc1

> <preferred_name>
3,3',4,4'-Tetrachlorobinphenyl

> <dsstox_substance_id>
DTXSID5022514

> <dsstox_compound_id>
DTXCID102514

> <qc_level>
DSSTox_Low

> <Canonical_QSARr>
ClC1C=CC(=CC=1Cl)C1=CC(Cl)=C(Cl)C=C1

> <InChI_Code_QSARr>
InChI=1S/C12H6Cl4/c13-9-3-1-7(5-11(9)15)8-2-4-10(14)12(16)6-8/h1-6H

> <InChI Key_QSARr>
UQMGJOKDKOLIDP-UHFFFAOYSA-N

> <Salt_Solvent>


> <Salt_Solvent_ID>
0

> <MPID>
19006

> <LogKOA_Ref>
Harner,T & Bidleman,TF (1996)

> <LogKOA>
9.7

> <Tr_1_Tst_0>
0

$$$$
100195
  Mrv171c012251910582D          

 17 18  0  0  0  0            999 V2000
    3.4937   -2.1473    0.0000 C   0  0  0  0  0  0  0  0  0  0  0  0
    4.2081   -1.7348    0.0000 Cl  0  0  0  0  0  0  0  0  0  0  0  0
    2.7792   -1.7348    0.0000 C   0  0  0  0  0  0  0  0  0  0  0  0
    2.7792   -0.9098    0.0000 C   0  0  0  0  0  0  0  0  0  0  0  0
    3.4937   -0.4973    0.0000 C   0  0  0  0  0  0  0  0  0  0  0  0
    3.4937    0.3277    0.0000 C   0  0  0  0  0  0  0  0  0  0  0  0
    2.7792    0.7402    0.0000 C   0  0  0  0  0  0  0  0  0  0  0  0
    2.7792    1.5652    0.0000 Cl  0  0  0  0  0  0  0  0  0  0  0  0
    2.0647    0.3277    0.0000 C   0  0  0  0  0  0  0  0  0  0  0  0
    1.3502    0.7402    0.0000 Cl  0  0  0  0  0  0  0  0  0  0  0  0
    2.0647   -0.4973    0.0000 C   0  0  0  0  0  0  0  0  0  0  0  0
    2.0647   -2.1473    0.0000 C   0  0  0  0  0  0  0  0  0  0  0  0
    2.0647   -2.9723    0.0000 C   0  0  0  0  0  0  0  0  0  0  0  0
    2.7792   -3.3848    0.0000 C   0  0  0  0  0  0  0  0  0  0  0  0
    2.7792   -4.2098    0.0000 Cl  0  0  0  0  0  0  0  0  0  0  0  0
    3.4937   -2.9723    0.0000 C   0  0  0  0  0  0  0  0  0  0  0  0
    4.2081   -3.3848    0.0000 Cl  0  0  0  0  0  0  0  0  0  0  0  0
  1  2  1  0  0  0  0
  3  1  2  0  0  0  0
  3  4  1  0  0  0  0
  5  4  1  0  0  0  0
  6  5  2  0  0  0  0
  7  6  1  0  0  0  0
  7  8  1  0  0  0  0
  9  7  2  0  0  0  0
  9 10  1  0  0  0  0
 11  9  1  0  0  0  0
  4 11  2  0  0  0  0
 12  3  1  0  0  0  0
 13 12  2  0  0  0  0
 14 13  1  0  0  0  0
 14 15  1  0  0  0  0
 16 14  2  0  0  0  0
  1 16  1  0  0  0  0
 16 17  1  0  0  0  0
M  END
> <ChemID>
100195

> <CAS>
32598-14-4

> <Original_SMILES>
Clc1c(Cl)c(ccc1Cl)-c1cc(Cl)c(Cl)cc1

> <preferred_name>
2,3,3',4,4'-Pentachlorobiphenyl

> <dsstox_substance_id>
DTXSID8038306

> <dsstox_compound_id>
DTXCID6018306

> <qc_level>
DSSTox_Low

> <Canonical_QSARr>
ClC1C(Cl)=C(C=CC=1Cl)C1=CC(Cl)=C(Cl)C=C1

> <InChI_Code_QSARr>
InChI=1S/C12H5Cl5/c13-8-3-1-6(5-10(8)15)7-2-4-9(14)12(17)11(7)16/h1-5H

> <InChI Key_QSARr>
WIDHRBRBACOVOY-UHFFFAOYSA-N

> <Salt_Solvent>


> <Salt_Solvent_ID>
0

> <MPID>
19007

> <LogKOA_Ref>
Harner,T & Bidleman,TF (1996)

> <LogKOA>
10.0

> <Tr_1_Tst_0>
1

$$$$
100196
  Mrv171c012251910582D          

 16 17  0  0  0  0            999 V2000
    0.7145    2.1656    0.0000 C   0  0  0  0  0  0  0  0  0  0  0  0
    0.7145    2.9906    0.0000 C   0  0  0  0  0  0  0  0  0  0  0  0
   -0.0000    3.4031    0.0000 C   0  0  0  0  0  0  0  0  0  0  0  0
   -0.0000    4.2281    0.0000 Cl  0  0  0  0  0  0  0  0  0  0  0  0
   -0.7145    2.9906    0.0000 C   0  0  0  0  0  0  0  0  0  0  0  0
   -1.4289    3.4031    0.0000 Cl  0  0  0  0  0  0  0  0  0  0  0  0
   -0.7145    2.1656    0.0000 C   0  0  0  0  0  0  0  0  0  0  0  0
   -1.4289    1.7531    0.0000 Cl  0  0  0  0  0  0  0  0  0  0  0  0
   -0.0000    1.7531    0.0000 C   0  0  0  0  0  0  0  0  0  0  0  0
   -0.0000    0.9281    0.0000 Cl  0  0  0  0  0  0  0  0  0  0  0  0
    1.4289    1.7531    0.0000 C   0  0  0  0  0  0  0  0  0  0  0  0
    1.4289    0.9281    0.0000 C   0  0  0  0  0  0  0  0  0  0  0  0
    2.1434    0.5156    0.0000 C   0  0  0  0  0  0  0  0  0  0  0  0
    2.8579    0.9281    0.0000 C   0  0  0  0  0  0  0  0  0  0  0  0
    2.8579    1.7531    0.0000 C   0  0  0  0  0  0  0  0  0  0  0  0
    2.1434    2.1656    0.0000 C   0  0  0  0  0  0  0  0  0  0  0  0
  2  1  1  0  0  0  0
  3  2  2  0  0  0  0
  3  4  1  0  0  0  0
  5  3  1  0  0  0  0
  5  6  1  0  0  0  0
  7  5  2  0  0  0  0
  7  8  1  0  0  0  0
  9  7  1  0  0  0  0
  1  9  2  0  0  0  0
  9 10  1  0  0  0  0
  1 11  1  0  0  0  0
 12 11  1  0  0  0  0
 13 12  2  0  0  0  0
 14 13  1  0  0  0  0
 15 14  2  0  0  0  0
 16 15  1  0  0  0  0
 11 16  2  0  0  0  0
M  END
> <ChemID>
100196

> <CAS>
33284-53-6

> <Original_SMILES>
Clc1cc(-c2ccccc2)c(Cl)c(Cl)c1Cl

> <preferred_name>
2,3,4,5-Tetrachlorobiphenyl

> <dsstox_substance_id>
DTXSID5074135

> <dsstox_compound_id>
DTXCID1038664

> <qc_level>
Public_High

> <Canonical_QSARr>
ClC1=C(C=C(Cl)C(Cl)=C1Cl)C1C=CC=CC=1

> <InChI_Code_QSARr>
InChI=1S/C12H6Cl4/c13-9-6-8(7-4-2-1-3-5-7)10(14)12(16)11(9)15/h1-6H

> <InChI Key_QSARr>
HLQDGCWIOSOMDP-UHFFFAOYSA-N

> <Salt_Solvent>


> <Salt_Solvent_ID>
0

> <MPID>
19008

> <LogKOA_Ref>
Harner,T & Mackay,D (1995)

> <LogKOA>
8.74

> <Tr_1_Tst_0>
1

$$$$
100199
  Mrv171c012251910582D          

 17 19  0  0  0  0            999 V2000
    2.8579    0.0971    0.0000 C   0  0  0  0  0  0  0  0  0  0  0  0
    3.5723   -0.3154    0.0000 C   0  0  0  0  0  0  0  0  0  0  0  0
    4.2868    0.0971    0.0000 C   0  0  0  0  0  0  0  0  0  0  0  0
    5.0013   -0.3154    0.0000 Cl  0  0  0  0  0  0  0  0  0  0  0  0
    4.2868    0.9221    0.0000 C   0  0  0  0  0  0  0  0  0  0  0  0
    5.0013    1.3346    0.0000 Cl  0  0  0  0  0  0  0  0  0  0  0  0
    3.5723    1.3346    0.0000 C   0  0  0  0  0  0  0  0  0  0  0  0
    2.8579    0.9221    0.0000 C   0  0  0  0  0  0  0  0  0  0  0  0
    2.1434    1.3346    0.0000 O   0  0  0  0  0  0  0  0  0  0  0  0
    1.4289    0.9221    0.0000 C   0  0  0  0  0  0  0  0  0  0  0  0
    1.4289    0.0971    0.0000 C   0  0  0  0  0  0  0  0  0  0  0  0
    0.7145   -0.3154    0.0000 C   0  0  0  0  0  0  0  0  0  0  0  0
   -0.0000    0.0971    0.0000 C   0  0  0  0  0  0  0  0  0  0  0  0
   -0.7145   -0.3154    0.0000 Cl  0  0  0  0  0  0  0  0  0  0  0  0
   -0.0000    0.9221    0.0000 C   0  0  0  0  0  0  0  0  0  0  0  0
    0.7145    1.3346    0.0000 C   0  0  0  0  0  0  0  0  0  0  0  0
    2.1434   -0.3154    0.0000 O   0  0  0  0  0  0  0  0  0  0  0  0
  2  1  1  0  0  0  0
  3  2  2  0  0  0  0
  3  4  1  0  0  0  0
  5  3  1  0  0  0  0
  5  6  1  0  0  0  0
  7  5  2  0  0  0  0
  8  7  1  0  0  0  0
  8  1  2  0  0  0  0
  9  8  1  0  0  0  0
 10  9  1  0  0  0  0
 10 11  1  0  0  0  0
 11 12  2  0  0  0  0
 12 13  1  0  0  0  0
 13 14  1  0  0  0  0
 13 15  2  0  0  0  0
 15 16  1  0  0  0  0
 16 10  2  0  0  0  0
 17 11  1  0  0  0  0
  1 17  1  0  0  0  0
M  END
> <ChemID>
100199

> <CAS>
33857-28-2

> <Original_SMILES>
Clc1cc2Oc3cc(Cl)c(Cl)cc3Oc2cc1

> <preferred_name>
2,3,7-Trichlorodibenzo-p-dioxin

> <dsstox_substance_id>
DTXSID7074878

> <dsstox_compound_id>
DTXCID5038757

> <qc_level>
Public_High

> <Canonical_QSARr>
ClC1C=C2OC3C=C(Cl)C(Cl)=CC=3OC2=CC=1

> <InChI_Code_QSARr>
InChI=1S/C12H5Cl3O2/c13-6-1-2-9-10(3-6)17-12-5-8(15)7(14)4-11(12)16-9/h1-5H

> <InChI Key_QSARr>
ZSIZNEVHVVRPFF-UHFFFAOYSA-N

> <Salt_Solvent>


> <Salt_Solvent_ID>
0

> <MPID>
19009

> <LogKOA_Ref>
Harner,T et al. (2000)

> <LogKOA>
9.14

> <Tr_1_Tst_0>
1

$$$$
100200
  Mrv171c012251910582D          

 18 19  0  0  0  0            999 V2000
    2.5275   -1.6352    0.0000 C   0  0  0  0  0  0  0  0  0  0  0  0
    1.8131   -1.2227    0.0000 C   0  0  0  0  0  0  0  0  0  0  0  0
    1.8131   -0.3977    0.0000 Cl  0  0  0  0  0  0  0  0  0  0  0  0
    1.0986   -1.6352    0.0000 C   0  0  0  0  0  0  0  0  0  0  0  0
    1.0986   -2.4602    0.0000 C   0  0  0  0  0  0  0  0  0  0  0  0
    0.3841   -2.8727    0.0000 Cl  0  0  0  0  0  0  0  0  0  0  0  0
    1.8131   -2.8727    0.0000 C   0  0  0  0  0  0  0  0  0  0  0  0
    2.5275   -2.4602    0.0000 C   0  0  0  0  0  0  0  0  0  0  0  0
    3.2420   -2.8727    0.0000 Cl  0  0  0  0  0  0  0  0  0  0  0  0
    3.2420   -1.2227    0.0000 C   0  0  0  0  0  0  0  0  0  0  0  0
    3.9565   -1.6352    0.0000 C   0  0  0  0  0  0  0  0  0  0  0  0
    3.9565   -2.4602    0.0000 Cl  0  0  0  0  0  0  0  0  0  0  0  0
    4.6709   -1.2227    0.0000 C   0  0  0  0  0  0  0  0  0  0  0  0
    4.6709   -0.3977    0.0000 C   0  0  0  0  0  0  0  0  0  0  0  0
    5.3854    0.0148    0.0000 Cl  0  0  0  0  0  0  0  0  0  0  0  0
    3.9565    0.0148    0.0000 C   0  0  0  0  0  0  0  0  0  0  0  0
    3.2420   -0.3977    0.0000 C   0  0  0  0  0  0  0  0  0  0  0  0
    2.5275    0.0148    0.0000 Cl  0  0  0  0  0  0  0  0  0  0  0  0
  2  1  1  0  0  0  0
  2  3  1  0  0  0  0
  4  2  2  0  0  0  0
  5  4  1  0  0  0  0
  5  6  1  0  0  0  0
  7  5  2  0  0  0  0
  8  7  1  0  0  0  0
  1  8  2  0  0  0  0
  8  9  1  0  0  0  0
  1 10  1  0  0  0  0
 11 10  1  0  0  0  0
 11 12  1  0  0  0  0
 13 11  2  0  0  0  0
 14 13  1  0  0  0  0
 14 15  1  0  0  0  0
 16 14  2  0  0  0  0
 17 16  1  0  0  0  0
 10 17  2  0  0  0  0
 17 18  1  0  0  0  0
M  END
> <ChemID>
100200

> <CAS>
33979-03-2

> <Original_SMILES>
Clc1cc(Cl)c(-c2c(Cl)cc(Cl)cc2Cl)c(Cl)c1

> <preferred_name>
2,2',4,4',6,6'-Hexachlorobiphenyl

> <dsstox_substance_id>
DTXSID3040302

> <dsstox_compound_id>
DTXCID1020302

> <qc_level>
DSSTox_Low

> <Canonical_QSARr>
ClC1=CC(Cl)=C(C2C(Cl)=CC(Cl)=CC=2Cl)C(Cl)=C1

> <InChI_Code_QSARr>
InChI=1S/C12H4Cl6/c13-5-1-7(15)11(8(16)2-5)12-9(17)3-6(14)4-10(12)18/h1-4H

> <InChI Key_QSARr>
ICOAEPDGFWLUTI-UHFFFAOYSA-N

> <Salt_Solvent>


> <Salt_Solvent_ID>
0

> <MPID>
19010

> <LogKOA_Ref>
Harner,T & Bidleman,TF (1996)

> <LogKOA>
8.99

> <Tr_1_Tst_0>
0

$$$$
100201
  Mrv171c012251910582D          

 14 15  0  0  0  0            999 V2000
    3.1655   -1.7074    0.0000 C   0  0  0  0  0  0  0  0  0  0  0  0
    3.1655   -2.5324    0.0000 C   0  0  0  0  0  0  0  0  0  0  0  0
    3.8800   -2.9449    0.0000 C   0  0  0  0  0  0  0  0  0  0  0  0
    4.5945   -2.5324    0.0000 C   0  0  0  0  0  0  0  0  0  0  0  0
    4.5945   -1.7074    0.0000 C   0  0  0  0  0  0  0  0  0  0  0  0
    3.8800   -1.2949    0.0000 C   0  0  0  0  0  0  0  0  0  0  0  0
    3.8800   -0.4699    0.0000 Cl  0  0  0  0  0  0  0  0  0  0  0  0
    2.4510   -1.2949    0.0000 C   0  0  0  0  0  0  0  0  0  0  0  0
    2.4510   -0.4699    0.0000 C   0  0  0  0  0  0  0  0  0  0  0  0
    1.7366   -0.0574    0.0000 C   0  0  0  0  0  0  0  0  0  0  0  0
    1.0221   -0.4699    0.0000 C   0  0  0  0  0  0  0  0  0  0  0  0
    0.3076   -0.0574    0.0000 Cl  0  0  0  0  0  0  0  0  0  0  0  0
    1.0221   -1.2949    0.0000 C   0  0  0  0  0  0  0  0  0  0  0  0
    1.7366   -1.7074    0.0000 C   0  0  0  0  0  0  0  0  0  0  0  0
  2  1  1  0  0  0  0
  3  2  2  0  0  0  0
  4  3  1  0  0  0  0
  5  4  2  0  0  0  0
  6  5  1  0  0  0  0
  1  6  2  0  0  0  0
  6  7  1  0  0  0  0
  1  8  1  0  0  0  0
  9  8  1  0  0  0  0
 10  9  2  0  0  0  0
 11 10  1  0  0  0  0
 11 12  1  0  0  0  0
 13 11  2  0  0  0  0
 14 13  1  0  0  0  0
  8 14  2  0  0  0  0
M  END
> <ChemID>
100201

> <CAS>
34883-43-7

> <Original_SMILES>
Clc1ccc(cc1)-c1ccccc1Cl

> <preferred_name>
2,4'-Dichlorobiphenyl

> <dsstox_substance_id>
DTXSID0022511

> <dsstox_compound_id>
DTXCID902511

> <qc_level>
DSSTox_Low

> <Canonical_QSARr>
ClC1C=CC(=CC=1)C1C=CC=CC=1Cl

> <InChI_Code_QSARr>
InChI=1S/C12H8Cl2/c13-10-7-5-9(6-8-10)11-3-1-2-4-12(11)14/h1-8H

> <InChI Key_QSARr>
UFNIBRDIUNVOMX-UHFFFAOYSA-N

> <Salt_Solvent>


> <Salt_Solvent_ID>
0

> <MPID>
19011

> <LogKOA_Ref>
Komp,P & McLachlan,MS (1997)

> <LogKOA>
7.4

> <Tr_1_Tst_0>
1

$$$$
100202
  Mrv171c012251910582D          

 18 19  0  0  0  0            999 V2000
    2.5315   -1.6342    0.0000 C   0  0  0  0  0  0  0  0  0  0  0  0
    1.8170   -1.2217    0.0000 C   0  0  0  0  0  0  0  0  0  0  0  0
    1.8170   -0.3967    0.0000 Cl  0  0  0  0  0  0  0  0  0  0  0  0
    1.1025   -1.6342    0.0000 C   0  0  0  0  0  0  0  0  0  0  0  0
    1.1025   -2.4592    0.0000 C   0  0  0  0  0  0  0  0  0  0  0  0
    0.3881   -2.8717    0.0000 Cl  0  0  0  0  0  0  0  0  0  0  0  0
    1.8170   -2.8717    0.0000 C   0  0  0  0  0  0  0  0  0  0  0  0
    1.8170   -3.6967    0.0000 Cl  0  0  0  0  0  0  0  0  0  0  0  0
    2.5315   -2.4592    0.0000 C   0  0  0  0  0  0  0  0  0  0  0  0
    3.2460   -1.2217    0.0000 C   0  0  0  0  0  0  0  0  0  0  0  0
    3.9604   -1.6342    0.0000 C   0  0  0  0  0  0  0  0  0  0  0  0
    4.6749   -1.2217    0.0000 C   0  0  0  0  0  0  0  0  0  0  0  0
    5.3894   -1.6342    0.0000 Cl  0  0  0  0  0  0  0  0  0  0  0  0
    4.6749   -0.3967    0.0000 C   0  0  0  0  0  0  0  0  0  0  0  0
    5.3894    0.0158    0.0000 Cl  0  0  0  0  0  0  0  0  0  0  0  0
    3.9604    0.0158    0.0000 C   0  0  0  0  0  0  0  0  0  0  0  0
    3.2460   -0.3967    0.0000 C   0  0  0  0  0  0  0  0  0  0  0  0
    2.5315    0.0158    0.0000 Cl  0  0  0  0  0  0  0  0  0  0  0  0
  2  1  1  0  0  0  0
  2  3  1  0  0  0  0
  4  2  2  0  0  0  0
  5  4  1  0  0  0  0
  5  6  1  0  0  0  0
  7  5  2  0  0  0  0
  7  8  1  0  0  0  0
  9  7  1  0  0  0  0
  1  9  2  0  0  0  0
  1 10  1  0  0  0  0
 11 10  1  0  0  0  0
 12 11  2  0  0  0  0
 12 13  1  0  0  0  0
 14 12  1  0  0  0  0
 14 15  1  0  0  0  0
 16 14  2  0  0  0  0
 17 16  1  0  0  0  0
 10 17  2  0  0  0  0
 17 18  1  0  0  0  0
M  END
> <ChemID>
100202

> <CAS>
35065-27-1

> <Original_SMILES>
Clc1cc(Cl)c(Cl)cc1-c1cc(Cl)c(Cl)cc1Cl

> <preferred_name>
2,2',4,4',5,5'-Hexachlorobiphenyl

> <dsstox_substance_id>
DTXSID2032180

> <dsstox_compound_id>
DTXCID0012180

> <qc_level>
DSSTox_Low

> <Canonical_QSARr>
ClC1=CC(Cl)=C(C=C1Cl)C1=CC(Cl)=C(Cl)C=C1Cl

> <InChI_Code_QSARr>
InChI=1S/C12H4Cl6/c13-7-3-11(17)9(15)1-5(7)6-2-10(16)12(18)4-8(6)14/h1-4H

> <InChI Key_QSARr>
MVWHGTYKUMDIHL-UHFFFAOYSA-N

> <Salt_Solvent>


> <Salt_Solvent_ID>
0

> <MPID>
19012

> <LogKOA_Ref>
Harner,T & Bidleman,TF (1996)

> <LogKOA>
9.73

> <Tr_1_Tst_0>
1

$$$$
100203
  Mrv171c012251910582D          

 18 19  0  0  0  0            999 V2000
    3.0652   -0.8568    0.0000 C   0  0  0  0  0  0  0  0  0  0  0  0
    3.7796   -0.4443    0.0000 C   0  0  0  0  0  0  0  0  0  0  0  0
    3.7796    0.3807    0.0000 C   0  0  0  0  0  0  0  0  0  0  0  0
    3.0652    0.7932    0.0000 C   0  0  0  0  0  0  0  0  0  0  0  0
    3.0652    1.6182    0.0000 Cl  0  0  0  0  0  0  0  0  0  0  0  0
    2.3507    0.3807    0.0000 C   0  0  0  0  0  0  0  0  0  0  0  0
    1.6362    0.7932    0.0000 Cl  0  0  0  0  0  0  0  0  0  0  0  0
    2.3507   -0.4443    0.0000 C   0  0  0  0  0  0  0  0  0  0  0  0
    1.6362   -0.8568    0.0000 Cl  0  0  0  0  0  0  0  0  0  0  0  0
    3.0652   -1.6818    0.0000 C   0  0  0  0  0  0  0  0  0  0  0  0
    2.3507   -2.0943    0.0000 C   0  0  0  0  0  0  0  0  0  0  0  0
    2.3507   -2.9193    0.0000 C   0  0  0  0  0  0  0  0  0  0  0  0
    1.6362   -3.3318    0.0000 Cl  0  0  0  0  0  0  0  0  0  0  0  0
    3.0652   -3.3318    0.0000 C   0  0  0  0  0  0  0  0  0  0  0  0
    3.0652   -4.1568    0.0000 Cl  0  0  0  0  0  0  0  0  0  0  0  0
    3.7796   -2.9193    0.0000 C   0  0  0  0  0  0  0  0  0  0  0  0
    3.7796   -2.0943    0.0000 C   0  0  0  0  0  0  0  0  0  0  0  0
    4.4941   -1.6818    0.0000 Cl  0  0  0  0  0  0  0  0  0  0  0  0
  2  1  1  0  0  0  0
  3  2  2  0  0  0  0
  4  3  1  0  0  0  0
  4  5  1  0  0  0  0
  6  4  2  0  0  0  0
  6  7  1  0  0  0  0
  8  6  1  0  0  0  0
  1  8  2  0  0  0  0
  8  9  1  0  0  0  0
  1 10  1  0  0  0  0
 11 10  1  0  0  0  0
 12 11  2  0  0  0  0
 12 13  1  0  0  0  0
 14 12  1  0  0  0  0
 14 15  1  0  0  0  0
 16 14  2  0  0  0  0
 17 16  1  0  0  0  0
 10 17  2  0  0  0  0
 17 18  1  0  0  0  0
M  END
> <ChemID>
100203

> <CAS>
35065-28-2

> <Original_SMILES>
Clc1ccc(-c2cc(Cl)c(Cl)cc2Cl)c(Cl)c1Cl

> <preferred_name>
2,2',3,4,4',5'-Hexachlorobiphenyl

> <dsstox_substance_id>
DTXSID8038300

> <dsstox_compound_id>
DTXCID6018300

> <qc_level>
DSSTox_Low

> <Canonical_QSARr>
ClC1C=CC(C2C=C(Cl)C(Cl)=CC=2Cl)=C(Cl)C=1Cl

> <InChI_Code_QSARr>
InChI=1S/C12H4Cl6/c13-7-2-1-5(11(17)12(7)18)6-3-9(15)10(16)4-8(6)14/h1-4H

> <InChI Key_QSARr>
RPUMZMSNLZHIGZ-UHFFFAOYSA-N

> <Salt_Solvent>


> <Salt_Solvent_ID>
0

> <MPID>
19013

> <LogKOA_Ref>
Harner,T & Bidleman,TF (1996)

> <LogKOA>
9.8

> <Tr_1_Tst_0>
1

$$$$
100204
  Mrv171c012251910582D          

 19 20  0  0  0  0            999 V2000
    2.5483   -1.2891    0.0000 C   0  0  0  0  0  0  0  0  0  0  0  0
    2.5483   -0.4641    0.0000 C   0  0  0  0  0  0  0  0  0  0  0  0
    1.8338   -0.0516    0.0000 C   0  0  0  0  0  0  0  0  0  0  0  0
    1.8338    0.7734    0.0000 Cl  0  0  0  0  0  0  0  0  0  0  0  0
    1.1194   -0.4641    0.0000 C   0  0  0  0  0  0  0  0  0  0  0  0
    0.4049   -0.0516    0.0000 Cl  0  0  0  0  0  0  0  0  0  0  0  0
    1.1194   -1.2891    0.0000 C   0  0  0  0  0  0  0  0  0  0  0  0
    0.4049   -1.7016    0.0000 Cl  0  0  0  0  0  0  0  0  0  0  0  0
    1.8338   -1.7016    0.0000 C   0  0  0  0  0  0  0  0  0  0  0  0
    1.8338   -2.5266    0.0000 Cl  0  0  0  0  0  0  0  0  0  0  0  0
    3.2628   -1.7016    0.0000 C   0  0  0  0  0  0  0  0  0  0  0  0
    3.2628   -2.5266    0.0000 C   0  0  0  0  0  0  0  0  0  0  0  0
    3.9773   -2.9391    0.0000 C   0  0  0  0  0  0  0  0  0  0  0  0
    3.9773   -3.7641    0.0000 Cl  0  0  0  0  0  0  0  0  0  0  0  0
    4.6917   -2.5266    0.0000 C   0  0  0  0  0  0  0  0  0  0  0  0
    5.4062   -2.9391    0.0000 Cl  0  0  0  0  0  0  0  0  0  0  0  0
    4.6917   -1.7016    0.0000 C   0  0  0  0  0  0  0  0  0  0  0  0
    3.9773   -1.2891    0.0000 C   0  0  0  0  0  0  0  0  0  0  0  0
    3.9773   -0.4641    0.0000 Cl  0  0  0  0  0  0  0  0  0  0  0  0
  2  1  1  0  0  0  0
  3  2  2  0  0  0  0
  3  4  1  0  0  0  0
  5  3  1  0  0  0  0
  5  6  1  0  0  0  0
  7  5  2  0  0  0  0
  7  8  1  0  0  0  0
  9  7  1  0  0  0  0
  1  9  2  0  0  0  0
  9 10  1  0  0  0  0
  1 11  1  0  0  0  0
 12 11  1  0  0  0  0
 13 12  2  0  0  0  0
 13 14  1  0  0  0  0
 15 13  1  0  0  0  0
 15 16  1  0  0  0  0
 17 15  2  0  0  0  0
 18 17  1  0  0  0  0
 11 18  2  0  0  0  0
 18 19  1  0  0  0  0
M  END
> <ChemID>
100204

> <CAS>
35065-29-3

> <Original_SMILES>
Clc1cc(Cl)c(Cl)cc1-c1cc(Cl)c(Cl)c(Cl)c1Cl

> <preferred_name>
2,2',3,4,4',5,5'-Heptachlorobiphenyl

> <dsstox_substance_id>
DTXSID6038299

> <dsstox_compound_id>
DTXCID4018299

> <qc_level>
DSSTox_Low

> <Canonical_QSARr>
ClC1C=C(Cl)C(Cl)=CC=1C1C=C(Cl)C(Cl)=C(Cl)C=1Cl

> <InChI_Code_QSARr>
InChI=1S/C12H3Cl7/c13-6-3-8(15)7(14)1-4(6)5-2-9(16)11(18)12(19)10(5)17/h1-3H

> <InChI Key_QSARr>
WBHQEUPUMONIKF-UHFFFAOYSA-N

> <Salt_Solvent>


> <Salt_Solvent_ID>
0

> <MPID>
19014

> <LogKOA_Ref>
Komp,P & McLachlan,MS (1997)

> <LogKOA>
9.88

> <Tr_1_Tst_0>
0

$$$$
100205
  Mrv171c012251910582D          

 16 17  0  0  0  0            999 V2000
    1.7032   -1.2210    0.0000 C   0  0  0  0  0  0  0  0  0  0  0  0
    1.7032   -0.3960    0.0000 C   0  0  0  0  0  0  0  0  0  0  0  0
    0.9887    0.0165    0.0000 C   0  0  0  0  0  0  0  0  0  0  0  0
    0.9887    0.8415    0.0000 Cl  0  0  0  0  0  0  0  0  0  0  0  0
    0.2743   -0.3960    0.0000 C   0  0  0  0  0  0  0  0  0  0  0  0
    0.2743   -1.2210    0.0000 C   0  0  0  0  0  0  0  0  0  0  0  0
    0.9887   -1.6335    0.0000 C   0  0  0  0  0  0  0  0  0  0  0  0
    0.9887   -2.4585    0.0000 Cl  0  0  0  0  0  0  0  0  0  0  0  0
    2.4177   -1.6335    0.0000 C   0  0  0  0  0  0  0  0  0  0  0  0
    2.4177   -2.4585    0.0000 C   0  0  0  0  0  0  0  0  0  0  0  0
    3.1321   -2.8710    0.0000 C   0  0  0  0  0  0  0  0  0  0  0  0
    3.1321   -3.6960    0.0000 Cl  0  0  0  0  0  0  0  0  0  0  0  0
    3.8466   -2.4585    0.0000 C   0  0  0  0  0  0  0  0  0  0  0  0
    3.8466   -1.6335    0.0000 C   0  0  0  0  0  0  0  0  0  0  0  0
    3.1321   -1.2210    0.0000 C   0  0  0  0  0  0  0  0  0  0  0  0
    3.1321   -0.3960    0.0000 Cl  0  0  0  0  0  0  0  0  0  0  0  0
  2  1  1  0  0  0  0
  3  2  2  0  0  0  0
  3  4  1  0  0  0  0
  5  3  1  0  0  0  0
  6  5  2  0  0  0  0
  7  6  1  0  0  0  0
  1  7  2  0  0  0  0
  7  8  1  0  0  0  0
  1  9  1  0  0  0  0
 10  9  1  0  0  0  0
 11 10  2  0  0  0  0
 11 12  1  0  0  0  0
 13 11  1  0  0  0  0
 14 13  2  0  0  0  0
 15 14  1  0  0  0  0
  9 15  2  0  0  0  0
 15 16  1  0  0  0  0
M  END
> <ChemID>
100205

> <CAS>
35693-99-3

> <Original_SMILES>
Clc1cc(-c2cc(Cl)ccc2Cl)c(Cl)cc1

> <preferred_name>
2,2',5,5'-Tetrachlorobiphenyl

> <dsstox_substance_id>
DTXSID3038305

> <dsstox_compound_id>
DTXCID1018305

> <qc_level>
DSSTox_Low

> <Canonical_QSARr>
ClC1=CC(C2C=C(Cl)C=CC=2Cl)=C(Cl)C=C1

> <InChI_Code_QSARr>
InChI=1S/C12H6Cl4/c13-7-1-3-11(15)9(5-7)10-6-8(14)2-4-12(10)16/h1-6H

> <InChI Key_QSARr>
HCWZEPKLWVAEOV-UHFFFAOYSA-N

> <Salt_Solvent>


> <Salt_Solvent_ID>
0

> <MPID>
19015

> <LogKOA_Ref>
Wania,F et al. (2002)

> <LogKOA>
8.47

> <Tr_1_Tst_0>
1

$$$$
100206
  Mrv171c012251910582D          

 21 23  0  0  0  0            999 V2000
    3.9379   -2.9396    0.0000 C   0  0  0  0  0  0  0  0  0  0  0  0
    4.6524   -3.3521    0.0000 O   0  0  0  0  0  0  0  0  0  0  0  0
    5.3668   -2.9396    0.0000 C   0  0  0  0  0  0  0  0  0  0  0  0
    6.0813   -3.3521    0.0000 C   0  0  0  0  0  0  0  0  0  0  0  0
    6.7958   -2.9396    0.0000 C   0  0  0  0  0  0  0  0  0  0  0  0
    6.7958   -2.1146    0.0000 C   0  0  0  0  0  0  0  0  0  0  0  0
    6.0813   -1.7021    0.0000 C   0  0  0  0  0  0  0  0  0  0  0  0
    6.0813   -0.8771    0.0000 Cl  0  0  0  0  0  0  0  0  0  0  0  0
    5.3668   -2.1146    0.0000 C   0  0  0  0  0  0  0  0  0  0  0  0
    4.6524   -1.7021    0.0000 O   0  0  0  0  0  0  0  0  0  0  0  0
    3.9379   -2.1146    0.0000 C   0  0  0  0  0  0  0  0  0  0  0  0
    3.2234   -1.7021    0.0000 C   0  0  0  0  0  0  0  0  0  0  0  0
    2.5090   -2.1146    0.0000 C   0  0  0  0  0  0  0  0  0  0  0  0
    1.7945   -1.7021    0.0000 Cl  0  0  0  0  0  0  0  0  0  0  0  0
    2.5090   -2.9396    0.0000 C   0  0  0  0  0  0  0  0  0  0  0  0
    1.7945   -3.3521    0.0000 Cl  0  0  0  0  0  0  0  0  0  0  0  0
    3.2234   -3.3521    0.0000 C   0  0  0  0  0  0  0  0  0  0  0  0
    3.2234   -4.1771    0.0000 Cl  0  0  0  0  0  0  0  0  0  0  0  0
    7.5103   -1.7021    0.0000 Cl  0  0  0  0  0  0  0  0  0  0  0  0
    7.5103   -3.3521    0.0000 Cl  0  0  0  0  0  0  0  0  0  0  0  0
    6.0813   -4.1771    0.0000 Cl  0  0  0  0  0  0  0  0  0  0  0  0
  2  1  1  0  0  0  0
  3  2  1  0  0  0  0
  3  4  1  0  0  0  0
  4  5  2  0  0  0  0
  5  6  1  0  0  0  0
  6  7  2  0  0  0  0
  7  8  1  0  0  0  0
  7  9  1  0  0  0  0
  9  3  2  0  0  0  0
 10  9  1  0  0  0  0
 11 10  1  0  0  0  0
 11  1  1  0  0  0  0
 12 11  2  0  0  0  0
 13 12  1  0  0  0  0
 13 14  1  0  0  0  0
 15 13  2  0  0  0  0
 15 16  1  0  0  0  0
 17 15  1  0  0  0  0
  1 17  2  0  0  0  0
 17 18  1  0  0  0  0
  6 19  1  0  0  0  0
  5 20  1  0  0  0  0
  4 21  1  0  0  0  0
M  END
> <ChemID>
100206

> <CAS>
35822-46-9

> <Original_SMILES>
Clc1cc2Oc3c(Oc2c(Cl)c1Cl)c(Cl)c(Cl)c(Cl)c3Cl

> <preferred_name>
1,2,3,4,6,7,8-Heptachlorodibenzodioxin

> <dsstox_substance_id>
DTXSID1052034

> <dsstox_compound_id>
DTXCID5032442

> <qc_level>
DSSTox_High

> <Canonical_QSARr>
ClC1C=C2OC3=C(OC2=C(Cl)C=1Cl)C(Cl)=C(Cl)C(Cl)=C3Cl

> <InChI_Code_QSARr>
InChI=1S/C12HCl7O2/c13-2-1-3-10(7(17)4(2)14)21-12-9(19)6(16)5(15)8(18)11(12)20-3/h1H

> <InChI Key_QSARr>
WCLNVRQZUKYVAI-UHFFFAOYSA-N

> <Salt_Solvent>


> <Salt_Solvent_ID>
0

> <MPID>
19016

> <LogKOA_Ref>
Harner,T et al. (2000)

> <LogKOA>
11.42

> <Tr_1_Tst_0>
1

$$$$
100207
  Mrv171c012251910582D          

 14 15  0  0  0  0            999 V2000
    1.9393    2.0625    0.0000 C   0  0  0  0  0  0  0  0  0  0  0  0
    1.9393    1.2375    0.0000 C   0  0  0  0  0  0  0  0  0  0  0  0
    2.6537    0.8250    0.0000 C   0  0  0  0  0  0  0  0  0  0  0  0
    3.3682    1.2375    0.0000 C   0  0  0  0  0  0  0  0  0  0  0  0
    3.3682    2.0625    0.0000 C   0  0  0  0  0  0  0  0  0  0  0  0
    2.6537    2.4750    0.0000 C   0  0  0  0  0  0  0  0  0  0  0  0
    2.6537    3.3000    0.0000 Br  0  0  0  0  0  0  0  0  0  0  0  0
    1.2248    2.4750    0.0000 O   0  0  0  0  0  0  0  0  0  0  0  0
    0.5103    2.0625    0.0000 C   0  0  0  0  0  0  0  0  0  0  0  0
   -0.2041    2.4750    0.0000 C   0  0  0  0  0  0  0  0  0  0  0  0
   -0.9186    2.0625    0.0000 C   0  0  0  0  0  0  0  0  0  0  0  0
   -0.9186    1.2375    0.0000 C   0  0  0  0  0  0  0  0  0  0  0  0
   -0.2041    0.8250    0.0000 C   0  0  0  0  0  0  0  0  0  0  0  0
    0.5103    1.2375    0.0000 C   0  0  0  0  0  0  0  0  0  0  0  0
  2  1  1  0  0  0  0
  3  2  2  0  0  0  0
  4  3  1  0  0  0  0
  5  4  2  0  0  0  0
  6  5  1  0  0  0  0
  1  6  2  0  0  0  0
  6  7  1  0  0  0  0
  1  8  1  0  0  0  0
  8  9  1  0  0  0  0
 10  9  1  0  0  0  0
 11 10  2  0  0  0  0
 12 11  1  0  0  0  0
 13 12  2  0  0  0  0
 14 13  1  0  0  0  0
  9 14  2  0  0  0  0
M  END
> <ChemID>
100207

> <CAS>
7025-06-1

> <Original_SMILES>
Brc1ccccc1Oc1ccccc1

> <preferred_name>
Benzene, bromophenoxy-

> <dsstox_substance_id>
DTXSID7073486

> <dsstox_compound_id>
DTXCID0039196

> <qc_level>
Public_High

> <Canonical_QSARr>
BrC1C=CC=CC=1OC1C=CC=CC=1

> <InChI_Code_QSARr>
InChI=1S/C12H9BrO/c13-11-8-4-5-9-12(11)14-10-6-2-1-3-7-10/h1-9H

> <InChI Key_QSARr>
RRWFUWRLNIZICP-UHFFFAOYSA-N

> <Salt_Solvent>


> <Salt_Solvent_ID>
0

> <MPID>
19017

> <LogKOA_Ref>
Wania,F et al. (2002)

> <LogKOA>
7.24

> <Tr_1_Tst_0>
1

$$$$
100208
  Mrv171c012251910582D          

 17 16  0  0  0  0            999 V2000
    4.9319   -0.1499    0.0000 C   0  0  0  0  0  0  0  0  0  0  0  0
    4.2174   -0.5624    0.0000 C   0  0  0  0  0  0  0  0  0  0  0  0
    3.5030   -0.1499    0.0000 C   0  0  0  0  0  0  0  0  0  0  0  0
    5.6464   -0.5624    0.0000 C   0  0  0  0  0  0  0  0  0  0  0  0
    6.3609   -0.1499    0.0000 C   0  0  0  0  0  0  0  0  0  0  0  0
    7.0753   -0.5624    0.0000 C   0  0  0  0  0  0  0  0  0  0  0  0
    7.7898   -0.1499    0.0000 C   0  0  0  0  0  0  0  0  0  0  0  0
    8.5043   -0.5624    0.0000 C   0  0  0  0  0  0  0  0  0  0  0  0
    9.2187   -0.1499    0.0000 C   0  0  0  0  0  0  0  0  0  0  0  0
    9.9332   -0.5624    0.0000 C   0  0  0  0  0  0  0  0  0  0  0  0
   10.6477   -0.1499    0.0000 C   0  0  0  0  0  0  0  0  0  0  0  0
   11.3622   -0.5624    0.0000 C   0  0  0  0  0  0  0  0  0  0  0  0
   12.0766   -0.1499    0.0000 C   0  0  0  0  0  0  0  0  0  0  0  0
   12.7911   -0.5624    0.0000 C   0  0  0  0  0  0  0  0  0  0  0  0
   13.5056   -0.1499    0.0000 C   0  0  0  0  0  0  0  0  0  0  0  0
   14.2200   -0.5624    0.0000 C   0  0  0  0  0  0  0  0  0  0  0  0
   14.9345   -0.1499    0.0000 O   0  0  0  0  0  0  0  0  0  0  0  0
  1  2  1  0  0  0  0
  2  3  1  0  0  0  0
  1  4  1  0  0  0  0
  4  5  1  0  0  0  0
  5  6  1  0  0  0  0
  6  7  1  0  0  0  0
  7  8  1  0  0  0  0
  8  9  1  0  0  0  0
  9 10  1  0  0  0  0
 10 11  1  0  0  0  0
 11 12  1  0  0  0  0
 12 13  1  0  0  0  0
 13 14  1  0  0  0  0
 14 15  1  0  0  0  0
 15 16  1  0  0  0  0
 16 17  1  0  0  0  0
M  END
> <ChemID>
100208

> <CAS>
36653-82-4

> <Original_SMILES>
CCCCCCCCCCCCCCCCO

> <preferred_name>
1-Hexadecanol

> <dsstox_substance_id>
DTXSID4027991

> <dsstox_compound_id>
DTXCID607991

> <qc_level>
DSSTox_High

> <Canonical_QSARr>
CCCCCCCCCCCCCCCCO

> <InChI_Code_QSARr>
InChI=1S/C16H34O/c1-2-3-4-5-6-7-8-9-10-11-12-13-14-15-16-17/h17H,2-16H2,1H3

> <InChI Key_QSARr>
BXWNKGSJHAJOGX-UHFFFAOYSA-N

> <Salt_Solvent>


> <Salt_Solvent_ID>
0

> <MPID>
19018

> <LogKOA_Ref>
Abraham,MH et al. (2001)

> <LogKOA>
9.9

> <Tr_1_Tst_0>
0

$$$$
100209
  Mrv171c012251910582D          

 15 16  0  0  0  0            999 V2000
    0.5239    1.8425    0.0000 C   0  0  0  0  0  0  0  0  0  0  0  0
    0.5239    2.6675    0.0000 C   0  0  0  0  0  0  0  0  0  0  0  0
   -0.1905    3.0800    0.0000 C   0  0  0  0  0  0  0  0  0  0  0  0
   -0.1905    3.9050    0.0000 Cl  0  0  0  0  0  0  0  0  0  0  0  0
   -0.9050    2.6675    0.0000 C   0  0  0  0  0  0  0  0  0  0  0  0
   -0.9050    1.8425    0.0000 C   0  0  0  0  0  0  0  0  0  0  0  0
   -0.1905    1.4300    0.0000 C   0  0  0  0  0  0  0  0  0  0  0  0
   -0.1905    0.6050    0.0000 Cl  0  0  0  0  0  0  0  0  0  0  0  0
    1.2384    1.4300    0.0000 C   0  0  0  0  0  0  0  0  0  0  0  0
    1.2384    0.6050    0.0000 C   0  0  0  0  0  0  0  0  0  0  0  0
    1.9529    0.1925    0.0000 C   0  0  0  0  0  0  0  0  0  0  0  0
    2.6673    0.6050    0.0000 C   0  0  0  0  0  0  0  0  0  0  0  0
    2.6673    1.4300    0.0000 C   0  0  0  0  0  0  0  0  0  0  0  0
    1.9529    1.8425    0.0000 C   0  0  0  0  0  0  0  0  0  0  0  0
    1.9529    2.6675    0.0000 Cl  0  0  0  0  0  0  0  0  0  0  0  0
  2  1  1  0  0  0  0
  3  2  2  0  0  0  0
  3  4  1  0  0  0  0
  5  3  1  0  0  0  0
  6  5  2  0  0  0  0
  7  6  1  0  0  0  0
  1  7  2  0  0  0  0
  7  8  1  0  0  0  0
  1  9  1  0  0  0  0
 10  9  1  0  0  0  0
 11 10  2  0  0  0  0
 12 11  1  0  0  0  0
 13 12  2  0  0  0  0
 14 13  1  0  0  0  0
  9 14  2  0  0  0  0
 14 15  1  0  0  0  0
M  END
> <ChemID>
100209

> <CAS>
37680-65-2

> <Original_SMILES>
Clc1cc(-c2ccccc2Cl)c(Cl)cc1

> <preferred_name>
2,2',5-Trichlorobiphenyl

> <dsstox_substance_id>
DTXSID6073491

> <dsstox_compound_id>
DTXCID7039383

> <qc_level>
Public_High

> <Canonical_QSARr>
ClC1=CC(C2C=CC=CC=2Cl)=C(Cl)C=C1

> <InChI_Code_QSARr>
InChI=1S/C12H7Cl3/c13-8-5-6-12(15)10(7-8)9-3-1-2-4-11(9)14/h1-7H

> <InChI Key_QSARr>
DCMURXAZTZQAFB-UHFFFAOYSA-N

> <Salt_Solvent>


> <Salt_Solvent_ID>
0

> <MPID>
19019

> <LogKOA_Ref>
Komp,P & McLachlan,MS (1997)

> <LogKOA>
7.6

> <Tr_1_Tst_0>
1

$$$$
100210
  Mrv171c012251910582D          

 17 18  0  0  0  0            999 V2000
    2.5007   -1.3053    0.0000 C   0  0  0  0  0  0  0  0  0  0  0  0
    2.5007   -0.4803    0.0000 C   0  0  0  0  0  0  0  0  0  0  0  0
    1.7862   -0.0678    0.0000 C   0  0  0  0  0  0  0  0  0  0  0  0
    1.7862    0.7572    0.0000 Cl  0  0  0  0  0  0  0  0  0  0  0  0
    1.0718   -0.4803    0.0000 C   0  0  0  0  0  0  0  0  0  0  0  0
    0.3573   -0.0678    0.0000 Cl  0  0  0  0  0  0  0  0  0  0  0  0
    1.0718   -1.3053    0.0000 C   0  0  0  0  0  0  0  0  0  0  0  0
    1.7862   -1.7178    0.0000 C   0  0  0  0  0  0  0  0  0  0  0  0
    1.7862   -2.5428    0.0000 Cl  0  0  0  0  0  0  0  0  0  0  0  0
    3.2152   -1.7178    0.0000 C   0  0  0  0  0  0  0  0  0  0  0  0
    3.2152   -2.5428    0.0000 C   0  0  0  0  0  0  0  0  0  0  0  0
    3.9296   -2.9553    0.0000 C   0  0  0  0  0  0  0  0  0  0  0  0
    3.9296   -3.7803    0.0000 Cl  0  0  0  0  0  0  0  0  0  0  0  0
    4.6441   -2.5428    0.0000 C   0  0  0  0  0  0  0  0  0  0  0  0
    4.6441   -1.7178    0.0000 C   0  0  0  0  0  0  0  0  0  0  0  0
    3.9296   -1.3053    0.0000 C   0  0  0  0  0  0  0  0  0  0  0  0
    3.9296   -0.4803    0.0000 Cl  0  0  0  0  0  0  0  0  0  0  0  0
  2  1  1  0  0  0  0
  3  2  2  0  0  0  0
  3  4  1  0  0  0  0
  5  3  1  0  0  0  0
  5  6  1  0  0  0  0
  7  5  2  0  0  0  0
  8  7  1  0  0  0  0
  1  8  2  0  0  0  0
  8  9  1  0  0  0  0
  1 10  1  0  0  0  0
 11 10  1  0  0  0  0
 12 11  2  0  0  0  0
 12 13  1  0  0  0  0
 14 12  1  0  0  0  0
 15 14  2  0  0  0  0
 16 15  1  0  0  0  0
 10 16  2  0  0  0  0
 16 17  1  0  0  0  0
M  END
> <ChemID>
100210

> <CAS>
37680-73-2

> <Original_SMILES>
Clc1cc(-c2cc(Cl)c(Cl)cc2Cl)c(Cl)cc1

> <preferred_name>
2,2,4,5,5'-Pentochlorobiphenyl

> <dsstox_substance_id>
DTXSID8038304

> <dsstox_compound_id>
DTXCID6018304

> <qc_level>
DSSTox_Low

> <Canonical_QSARr>
ClC1=CC(C2C=C(Cl)C(Cl)=CC=2Cl)=C(Cl)C=C1

> <InChI_Code_QSARr>
InChI=1S/C12H5Cl5/c13-6-1-2-9(14)7(3-6)8-4-11(16)12(17)5-10(8)15/h1-5H

> <InChI Key_QSARr>
LAHWLEDBADHJGA-UHFFFAOYSA-N

> <Salt_Solvent>


> <Salt_Solvent_ID>
0

> <MPID>
19020

> <LogKOA_Ref>
Harner,T & Bidleman,TF (1996)

> <LogKOA>
9.06

> <Tr_1_Tst_0>
1

$$$$
100211
  Mrv171c012251910582D          

 17 18  0  0  0  0            999 V2000
    1.6581   -1.4656    0.0000 C   0  0  0  0  0  0  0  0  0  0  0  0
    0.9436   -1.0531    0.0000 C   0  0  0  0  0  0  0  0  0  0  0  0
    0.9436   -0.2281    0.0000 Cl  0  0  0  0  0  0  0  0  0  0  0  0
    0.2291   -1.4656    0.0000 C   0  0  0  0  0  0  0  0  0  0  0  0
    0.2291   -2.2906    0.0000 C   0  0  0  0  0  0  0  0  0  0  0  0
    0.9436   -2.7031    0.0000 C   0  0  0  0  0  0  0  0  0  0  0  0
    0.9436   -3.5281    0.0000 Cl  0  0  0  0  0  0  0  0  0  0  0  0
    1.6581   -2.2906    0.0000 C   0  0  0  0  0  0  0  0  0  0  0  0
    2.3725   -2.7031    0.0000 Cl  0  0  0  0  0  0  0  0  0  0  0  0
    2.3725   -1.0531    0.0000 C   0  0  0  0  0  0  0  0  0  0  0  0
    3.0870   -1.4656    0.0000 C   0  0  0  0  0  0  0  0  0  0  0  0
    3.8015   -1.0531    0.0000 C   0  0  0  0  0  0  0  0  0  0  0  0
    4.5160   -1.4656    0.0000 Cl  0  0  0  0  0  0  0  0  0  0  0  0
    3.8015   -0.2281    0.0000 C   0  0  0  0  0  0  0  0  0  0  0  0
    3.0870    0.1844    0.0000 C   0  0  0  0  0  0  0  0  0  0  0  0
    2.3725   -0.2281    0.0000 C   0  0  0  0  0  0  0  0  0  0  0  0
    1.6581    0.1844    0.0000 Cl  0  0  0  0  0  0  0  0  0  0  0  0
  2  1  1  0  0  0  0
  2  3  1  0  0  0  0
  4  2  2  0  0  0  0
  5  4  1  0  0  0  0
  6  5  2  0  0  0  0
  6  7  1  0  0  0  0
  8  6  1  0  0  0  0
  1  8  2  0  0  0  0
  8  9  1  0  0  0  0
  1 10  1  0  0  0  0
 11 10  1  0  0  0  0
 12 11  2  0  0  0  0
 12 13  1  0  0  0  0
 14 12  1  0  0  0  0
 15 14  2  0  0  0  0
 16 15  1  0  0  0  0
 10 16  2  0  0  0  0
 16 17  1  0  0  0  0
M  END
> <ChemID>
100211

> <CAS>
38379-99-6

> <Original_SMILES>
Clc1cc(-c2c(Cl)c(Cl)ccc2Cl)c(Cl)cc1

> <preferred_name>
2,2',3,5',6-Pentachlorobiphenyl

> <dsstox_substance_id>
DTXSID3038301

> <dsstox_compound_id>
DTXCID1018301

> <qc_level>
DSSTox_Low

> <Canonical_QSARr>
ClC1C=CC(Cl)=CC=1C1=C(Cl)C(Cl)=CC=C1Cl

> <InChI_Code_QSARr>
InChI=1S/C12H5Cl5/c13-6-1-2-8(14)7(5-6)11-9(15)3-4-10(16)12(11)17/h1-5H

> <InChI Key_QSARr>
GXNNLIMMEXHBKV-UHFFFAOYSA-N

> <Salt_Solvent>


> <Salt_Solvent_ID>
0

> <MPID>
19021

> <LogKOA_Ref>
Harner,T & Bidleman,TF (1996)

> <LogKOA>
8.79

> <Tr_1_Tst_0>
1

$$$$
100212
  Mrv171c012251910582D          

 17 18  0  0  0  0            999 V2000
    1.7187   -1.6935    0.0000 C   0  0  0  0  0  0  0  0  0  0  0  0
    1.0042   -1.2810    0.0000 C   0  0  0  0  0  0  0  0  0  0  0  0
    1.0042   -0.4560    0.0000 Cl  0  0  0  0  0  0  0  0  0  0  0  0
    0.2897   -1.6935    0.0000 C   0  0  0  0  0  0  0  0  0  0  0  0
    0.2897   -2.5185    0.0000 C   0  0  0  0  0  0  0  0  0  0  0  0
    1.0042   -2.9310    0.0000 C   0  0  0  0  0  0  0  0  0  0  0  0
    1.0042   -3.7560    0.0000 Cl  0  0  0  0  0  0  0  0  0  0  0  0
    1.7187   -2.5185    0.0000 C   0  0  0  0  0  0  0  0  0  0  0  0
    2.4331   -2.9310    0.0000 Cl  0  0  0  0  0  0  0  0  0  0  0  0
    2.4331   -1.2810    0.0000 C   0  0  0  0  0  0  0  0  0  0  0  0
    3.1476   -1.6935    0.0000 C   0  0  0  0  0  0  0  0  0  0  0  0
    3.8621   -1.2810    0.0000 C   0  0  0  0  0  0  0  0  0  0  0  0
    3.8621   -0.4560    0.0000 C   0  0  0  0  0  0  0  0  0  0  0  0
    4.5766   -0.0435    0.0000 Cl  0  0  0  0  0  0  0  0  0  0  0  0
    3.1476   -0.0435    0.0000 C   0  0  0  0  0  0  0  0  0  0  0  0
    3.1476    0.7815    0.0000 Cl  0  0  0  0  0  0  0  0  0  0  0  0
    2.4331   -0.4560    0.0000 C   0  0  0  0  0  0  0  0  0  0  0  0
  2  1  1  0  0  0  0
  2  3  1  0  0  0  0
  4  2  2  0  0  0  0
  5  4  1  0  0  0  0
  6  5  2  0  0  0  0
  6  7  1  0  0  0  0
  8  6  1  0  0  0  0
  1  8  2  0  0  0  0
  8  9  1  0  0  0  0
  1 10  1  0  0  0  0
 11 10  1  0  0  0  0
 12 11  2  0  0  0  0
 13 12  1  0  0  0  0
 13 14  1  0  0  0  0
 15 13  2  0  0  0  0
 15 16  1  0  0  0  0
 17 15  1  0  0  0  0
 10 17  2  0  0  0  0
M  END
> <ChemID>
100212

> <CAS>
38380-03-9

> <Original_SMILES>
Clc1c(-c2cc(Cl)c(Cl)cc2)c(Cl)ccc1Cl

> <preferred_name>
2,3,3',4',6-Pentachlorobiphenyl

> <dsstox_substance_id>
DTXSID3038307

> <dsstox_compound_id>
DTXCID1018307

> <qc_level>
DSSTox_Low

> <Canonical_QSARr>
ClC1C=C(C=CC=1Cl)C1=C(Cl)C(Cl)=CC=C1Cl

> <InChI_Code_QSARr>
InChI=1S/C12H5Cl5/c13-7-2-1-6(5-10(7)16)11-8(14)3-4-9(15)12(11)17/h1-5H

> <InChI Key_QSARr>
ARXHIJMGSIYYRZ-UHFFFAOYSA-N

> <Salt_Solvent>


> <Salt_Solvent_ID>
0

> <MPID>
19022

> <LogKOA_Ref>
Komp,P & McLachlan,MS (1997)

> <LogKOA>
9.06

> <Tr_1_Tst_0>
0

$$$$
100213
  Mrv171c012251910582D          

 18 19  0  0  0  0            999 V2000
    0.5160    1.8563    0.0000 C   0  0  0  0  0  0  0  0  0  0  0  0
    0.5160    2.6813    0.0000 C   0  0  0  0  0  0  0  0  0  0  0  0
   -0.1985    3.0938    0.0000 C   0  0  0  0  0  0  0  0  0  0  0  0
   -0.1985    3.9188    0.0000 Cl  0  0  0  0  0  0  0  0  0  0  0  0
   -0.9129    2.6813    0.0000 C   0  0  0  0  0  0  0  0  0  0  0  0
   -1.6274    3.0938    0.0000 Cl  0  0  0  0  0  0  0  0  0  0  0  0
   -0.9129    1.8563    0.0000 C   0  0  0  0  0  0  0  0  0  0  0  0
   -0.1985    1.4438    0.0000 C   0  0  0  0  0  0  0  0  0  0  0  0
   -0.1985    0.6188    0.0000 Cl  0  0  0  0  0  0  0  0  0  0  0  0
    1.2305    1.4438    0.0000 C   0  0  0  0  0  0  0  0  0  0  0  0
    1.2305    0.6188    0.0000 C   0  0  0  0  0  0  0  0  0  0  0  0
    0.5160    0.2063    0.0000 Cl  0  0  0  0  0  0  0  0  0  0  0  0
    1.9449    0.2063    0.0000 C   0  0  0  0  0  0  0  0  0  0  0  0
    2.6594    0.6188    0.0000 C   0  0  0  0  0  0  0  0  0  0  0  0
    2.6594    1.4438    0.0000 C   0  0  0  0  0  0  0  0  0  0  0  0
    3.3739    1.8563    0.0000 Cl  0  0  0  0  0  0  0  0  0  0  0  0
    1.9449    1.8563    0.0000 C   0  0  0  0  0  0  0  0  0  0  0  0
    1.9449    2.6813    0.0000 Cl  0  0  0  0  0  0  0  0  0  0  0  0
  2  1  1  0  0  0  0
  3  2  2  0  0  0  0
  3  4  1  0  0  0  0
  5  3  1  0  0  0  0
  5  6  1  0  0  0  0
  7  5  2  0  0  0  0
  8  7  1  0  0  0  0
  1  8  2  0  0  0  0
  8  9  1  0  0  0  0
  1 10  1  0  0  0  0
 11 10  1  0  0  0  0
 11 12  1  0  0  0  0
 13 11  2  0  0  0  0
 14 13  1  0  0  0  0
 15 14  2  0  0  0  0
 15 16  1  0  0  0  0
 17 15  1  0  0  0  0
 10 17  2  0  0  0  0
 17 18  1  0  0  0  0
M  END
> <ChemID>
100213

> <CAS>
38380-04-0

> <Original_SMILES>
Clc1ccc(Cl)c(-c2cc(Cl)c(Cl)cc2Cl)c1Cl

> <preferred_name>
2,2',3,4',5',6-Hexachlorobiphenyl

> <dsstox_substance_id>
DTXSID1073498

> <dsstox_compound_id>
DTXCID0039485

> <qc_level>
Public_High

> <Canonical_QSARr>
ClC1C=C(Cl)C(Cl)=CC=1C1=C(Cl)C(Cl)=CC=C1Cl

> <InChI_Code_QSARr>
InChI=1S/C12H4Cl6/c13-6-1-2-7(14)12(18)11(6)5-3-9(16)10(17)4-8(5)15/h1-4H

> <InChI Key_QSARr>
LKHLFUVHHXCNJH-UHFFFAOYSA-N

> <Salt_Solvent>


> <Salt_Solvent_ID>
0

> <MPID>
19023

> <LogKOA_Ref>
Komp,P & McLachlan,MS (1997)

> <LogKOA>
9.27

> <Tr_1_Tst_0>
1

$$$$
100214
  Mrv171c012251910582D          

 15 16  0  0  0  0            999 V2000
    0.2382    1.2375    0.0000 C   0  0  0  0  0  0  0  0  0  0  0  0
   -0.4763    1.6500    0.0000 C   0  0  0  0  0  0  0  0  0  0  0  0
   -0.4763    2.4750    0.0000 Cl  0  0  0  0  0  0  0  0  0  0  0  0
   -1.1908    1.2375    0.0000 C   0  0  0  0  0  0  0  0  0  0  0  0
   -1.1908    0.4125    0.0000 C   0  0  0  0  0  0  0  0  0  0  0  0
   -0.4763    0.0000    0.0000 C   0  0  0  0  0  0  0  0  0  0  0  0
    0.2382    0.4125    0.0000 C   0  0  0  0  0  0  0  0  0  0  0  0
    0.9526    0.0000    0.0000 Cl  0  0  0  0  0  0  0  0  0  0  0  0
    0.9526    1.6500    0.0000 C   0  0  0  0  0  0  0  0  0  0  0  0
    1.6671    1.2375    0.0000 C   0  0  0  0  0  0  0  0  0  0  0  0
    2.3816    1.6500    0.0000 C   0  0  0  0  0  0  0  0  0  0  0  0
    2.3816    2.4750    0.0000 C   0  0  0  0  0  0  0  0  0  0  0  0
    3.0960    2.8875    0.0000 Cl  0  0  0  0  0  0  0  0  0  0  0  0
    1.6671    2.8875    0.0000 C   0  0  0  0  0  0  0  0  0  0  0  0
    0.9526    2.4750    0.0000 C   0  0  0  0  0  0  0  0  0  0  0  0
  2  1  1  0  0  0  0
  2  3  1  0  0  0  0
  4  2  2  0  0  0  0
  5  4  1  0  0  0  0
  6  5  2  0  0  0  0
  7  6  1  0  0  0  0
  1  7  2  0  0  0  0
  7  8  1  0  0  0  0
  1  9  1  0  0  0  0
 10  9  1  0  0  0  0
 11 10  2  0  0  0  0
 12 11  1  0  0  0  0
 12 13  1  0  0  0  0
 14 12  2  0  0  0  0
 15 14  1  0  0  0  0
  9 15  2  0  0  0  0
M  END
> <ChemID>
100214

> <CAS>
38444-77-8

> <Original_SMILES>
Clc1ccc(cc1)-c1c(Cl)cccc1Cl

> <preferred_name>
2,4',6-Trichlorobiphenyl

> <dsstox_substance_id>
DTXSID8073500

> <dsstox_compound_id>
DTXCID6039504

> <qc_level>
Public_High

> <Canonical_QSARr>
ClC1C=CC=C(Cl)C=1C1C=CC(Cl)=CC=1

> <InChI_Code_QSARr>
InChI=1S/C12H7Cl3/c13-9-6-4-8(5-7-9)12-10(14)2-1-3-11(12)15/h1-7H

> <InChI Key_QSARr>
IHIDFKLAWYPTKB-UHFFFAOYSA-N

> <Salt_Solvent>


> <Salt_Solvent_ID>
0

> <MPID>
19024

> <LogKOA_Ref>
Komp,P & McLachlan,MS (1997)

> <LogKOA>
7.72

> <Tr_1_Tst_0>
1

$$$$
100215
  Mrv171c012251910582D          

 21 23  0  0  0  0            999 V2000
    2.1629   -2.2433    0.0000 C   0  0  0  0  0  0  0  0  0  0  0  0
    2.8304   -2.7282    0.0000 O   0  0  0  0  0  0  0  0  0  0  0  0
    3.4978   -2.2433    0.0000 C   0  0  0  0  0  0  0  0  0  0  0  0
    4.3048   -2.4148    0.0000 C   0  0  0  0  0  0  0  0  0  0  0  0
    4.8568   -1.8017    0.0000 C   0  0  0  0  0  0  0  0  0  0  0  0
    4.6019   -1.0171    0.0000 C   0  0  0  0  0  0  0  0  0  0  0  0
    3.7949   -0.8455    0.0000 C   0  0  0  0  0  0  0  0  0  0  0  0
    3.5400   -0.0609    0.0000 Cl  0  0  0  0  0  0  0  0  0  0  0  0
    3.2429   -1.4586    0.0000 C   0  0  0  0  0  0  0  0  0  0  0  0
    2.4179   -1.4586    0.0000 C   0  0  0  0  0  0  0  0  0  0  0  0
    1.8658   -0.8455    0.0000 C   0  0  0  0  0  0  0  0  0  0  0  0
    2.1208   -0.0609    0.0000 Cl  0  0  0  0  0  0  0  0  0  0  0  0
    1.0589   -1.0171    0.0000 C   0  0  0  0  0  0  0  0  0  0  0  0
    0.5068   -0.4040    0.0000 Cl  0  0  0  0  0  0  0  0  0  0  0  0
    0.8039   -1.8017    0.0000 C   0  0  0  0  0  0  0  0  0  0  0  0
   -0.0030   -1.9732    0.0000 Cl  0  0  0  0  0  0  0  0  0  0  0  0
    1.3560   -2.4148    0.0000 C   0  0  0  0  0  0  0  0  0  0  0  0
    1.1010   -3.1994    0.0000 Cl  0  0  0  0  0  0  0  0  0  0  0  0
    5.1539   -0.4040    0.0000 Cl  0  0  0  0  0  0  0  0  0  0  0  0
    5.6638   -1.9732    0.0000 Cl  0  0  0  0  0  0  0  0  0  0  0  0
    4.5597   -3.1994    0.0000 Cl  0  0  0  0  0  0  0  0  0  0  0  0
  2  1  1  0  0  0  0
  3  2  1  0  0  0  0
  3  4  1  0  0  0  0
  4  5  2  0  0  0  0
  5  6  1  0  0  0  0
  6  7  2  0  0  0  0
  7  8  1  0  0  0  0
  7  9  1  0  0  0  0
  9  3  2  0  0  0  0
 10  9  1  0  0  0  0
 10  1  1  0  0  0  0
 11 10  2  0  0  0  0
 11 12  1  0  0  0  0
 13 11  1  0  0  0  0
 13 14  1  0  0  0  0
 15 13  2  0  0  0  0
 15 16  1  0  0  0  0
 17 15  1  0  0  0  0
  1 17  2  0  0  0  0
 17 18  1  0  0  0  0
  6 19  1  0  0  0  0
  5 20  1  0  0  0  0
  4 21  1  0  0  0  0
M  END
> <ChemID>
100215

> <CAS>
39001-02-0

> <Original_SMILES>
Clc1c2oc3c(c2c(Cl)c(Cl)c1Cl)c(Cl)c(Cl)c(Cl)c3Cl

> <preferred_name>
Octachlorodibenzofuran

> <dsstox_substance_id>
DTXSID3052062

> <dsstox_compound_id>
DTXCID4030629

> <qc_level>
DSSTox_Low

> <Canonical_QSARr>
ClC1C2OC3C(C=2C(Cl)=C(Cl)C=1Cl)=C(Cl)C(Cl)=C(Cl)C=3Cl

> <InChI_Code_QSARr>
InChI=1S/C12Cl8O/c13-3-1-2-4(14)6(16)8(18)10(20)12(2)21-11(1)9(19)7(17)5(3)15

> <InChI Key_QSARr>
RHIROFAGUQOFLU-UHFFFAOYSA-N

> <Salt_Solvent>


> <Salt_Solvent_ID>
0

> <MPID>
19025

> <LogKOA_Ref>
Chen,JW et al. (2001)

> <LogKOA>
11.9

> <Tr_1_Tst_0>
1

$$$$
100218
  Mrv171c012251910582D          

 17 19  0  0  0  0            999 V2000
    5.1158    1.6492    0.0000 Cl  0  0  0  0  0  0  0  0  0  0  0  0
    5.1158    0.8242    0.0000 C   0  0  0  0  0  0  0  0  0  0  0  0
    5.8303    0.4117    0.0000 C   0  0  0  0  0  0  0  0  0  0  0  0
    6.5447    0.8242    0.0000 Cl  0  0  0  0  0  0  0  0  0  0  0  0
    5.8303   -0.4133    0.0000 C   0  0  0  0  0  0  0  0  0  0  0  0
    5.1158   -0.8258    0.0000 C   0  0  0  0  0  0  0  0  0  0  0  0
    5.1158   -1.6508    0.0000 Cl  0  0  0  0  0  0  0  0  0  0  0  0
    4.4013   -0.4133    0.0000 C   0  0  0  0  0  0  0  0  0  0  0  0
    4.4013    0.4117    0.0000 C   0  0  0  0  0  0  0  0  0  0  0  0
    3.6868    0.8242    0.0000 O   0  0  0  0  0  0  0  0  0  0  0  0
    2.9724    0.4117    0.0000 C   0  0  0  0  0  0  0  0  0  0  0  0
    2.2579    0.8242    0.0000 C   0  0  0  0  0  0  0  0  0  0  0  0
    1.5434    0.4117    0.0000 C   0  0  0  0  0  0  0  0  0  0  0  0
    1.5434   -0.4133    0.0000 C   0  0  0  0  0  0  0  0  0  0  0  0
    2.2579   -0.8258    0.0000 C   0  0  0  0  0  0  0  0  0  0  0  0
    2.9724   -0.4133    0.0000 C   0  0  0  0  0  0  0  0  0  0  0  0
    3.6868   -0.8258    0.0000 O   0  0  0  0  0  0  0  0  0  0  0  0
  1  2  1  0  0  0  0
  3  2  2  0  0  0  0
  3  4  1  0  0  0  0
  5  3  1  0  0  0  0
  6  5  2  0  0  0  0
  6  7  1  0  0  0  0
  8  6  1  0  0  0  0
  8  9  2  0  0  0  0
  2  9  1  0  0  0  0
  9 10  1  0  0  0  0
 10 11  1  0  0  0  0
 12 11  2  0  0  0  0
 13 12  1  0  0  0  0
 14 13  2  0  0  0  0
 15 14  1  0  0  0  0
 16 15  2  0  0  0  0
 11 16  1  0  0  0  0
 16 17  1  0  0  0  0
 17  8  1  0  0  0  0
M  END
> <ChemID>
100218

> <CAS>
39227-58-2

> <Original_SMILES>
Clc1cc(Cl)c(Cl)c2Oc3ccccc3Oc12

> <preferred_name>
1,2,4-Trichlorodibenzo-1,4-dioxin

> <dsstox_substance_id>
DTXSID50192489

> <dsstox_compound_id>
DTXCID10114980

> <qc_level>
Public_Medium

> <Canonical_QSARr>
ClC1C=C(Cl)C2OC3=CC=CC=C3OC=2C=1Cl

> <InChI_Code_QSARr>
InChI=1S/C12H5Cl3O2/c13-6-5-7(14)11-12(10(6)15)17-9-4-2-1-3-8(9)16-11/h1-5H

> <InChI Key_QSARr>
HRVUKLBFRPWXPJ-UHFFFAOYSA-N

> <Salt_Solvent>


> <Salt_Solvent_ID>
0

> <MPID>
19026

> <LogKOA_Ref>
Chen,JW et al. (2001)

> <LogKOA>
8.97

> <Tr_1_Tst_0>
0

$$$$
100219
  Mrv171c012251910582D          

 19 21  0  0  0  0            999 V2000
    2.8579    0.0868    0.0000 C   0  0  0  0  0  0  0  0  0  0  0  0
    3.5724   -0.3257    0.0000 C   0  0  0  0  0  0  0  0  0  0  0  0
    3.5724   -1.1507    0.0000 Cl  0  0  0  0  0  0  0  0  0  0  0  0
    4.2868    0.0868    0.0000 C   0  0  0  0  0  0  0  0  0  0  0  0
    5.0013   -0.3257    0.0000 Cl  0  0  0  0  0  0  0  0  0  0  0  0
    4.2868    0.9118    0.0000 C   0  0  0  0  0  0  0  0  0  0  0  0
    5.0013    1.3243    0.0000 Cl  0  0  0  0  0  0  0  0  0  0  0  0
    3.5724    1.3243    0.0000 C   0  0  0  0  0  0  0  0  0  0  0  0
    3.5724    2.1493    0.0000 Cl  0  0  0  0  0  0  0  0  0  0  0  0
    2.8579    0.9118    0.0000 C   0  0  0  0  0  0  0  0  0  0  0  0
    2.1434    1.3243    0.0000 O   0  0  0  0  0  0  0  0  0  0  0  0
    1.4289    0.9118    0.0000 C   0  0  0  0  0  0  0  0  0  0  0  0
    1.4289    0.0868    0.0000 C   0  0  0  0  0  0  0  0  0  0  0  0
    0.7145   -0.3257    0.0000 C   0  0  0  0  0  0  0  0  0  0  0  0
   -0.0000    0.0868    0.0000 C   0  0  0  0  0  0  0  0  0  0  0  0
   -0.7145   -0.3257    0.0000 Cl  0  0  0  0  0  0  0  0  0  0  0  0
   -0.0000    0.9118    0.0000 C   0  0  0  0  0  0  0  0  0  0  0  0
    0.7145    1.3243    0.0000 C   0  0  0  0  0  0  0  0  0  0  0  0
    2.1434   -0.3257    0.0000 O   0  0  0  0  0  0  0  0  0  0  0  0
  2  1  1  0  0  0  0
  2  3  1  0  0  0  0
  4  2  2  0  0  0  0
  4  5  1  0  0  0  0
  6  4  1  0  0  0  0
  6  7  1  0  0  0  0
  8  6  2  0  0  0  0
  8  9  1  0  0  0  0
 10  8  1  0  0  0  0
 10  1  2  0  0  0  0
 11 10  1  0  0  0  0
 12 11  1  0  0  0  0
 12 13  1  0  0  0  0
 13 14  2  0  0  0  0
 14 15  1  0  0  0  0
 15 16  1  0  0  0  0
 15 17  2  0  0  0  0
 17 18  1  0  0  0  0
 18 12  2  0  0  0  0
 19 13  1  0  0  0  0
  1 19  1  0  0  0  0
M  END
> <ChemID>
100219

> <CAS>
39227-61-7

> <Original_SMILES>
Clc1cc2Oc3c(Oc2cc1)c(Cl)c(Cl)c(Cl)c3Cl

> <preferred_name>
1,2,3,4,7-Pentachlorodibenzo-p-dioxin

> <dsstox_substance_id>
DTXSID6074041

> <dsstox_compound_id>
DTXCID8039613

> <qc_level>
Public_High

> <Canonical_QSARr>
ClC1C=C2OC3=C(OC2=CC=1)C(Cl)=C(Cl)C(Cl)=C3Cl

> <InChI_Code_QSARr>
InChI=1S/C12H3Cl5O2/c13-4-1-2-5-6(3-4)19-12-10(17)8(15)7(14)9(16)11(12)18-5/h1-3H

> <InChI Key_QSARr>
WRNGAZFESPEMCN-UHFFFAOYSA-N

> <Salt_Solvent>


> <Salt_Solvent_ID>
0

> <MPID>
19027

> <LogKOA_Ref>
Harner,T et al. (2000)

> <LogKOA>
10.67

> <Tr_1_Tst_0>
1

$$$$
100221
  Mrv171c012251910582D          

 19 21  0  0  0  0            999 V2000
    2.1373   -1.8857    0.0000 C   0  0  0  0  0  0  0  0  0  0  0  0
    2.8518   -2.2982    0.0000 O   0  0  0  0  0  0  0  0  0  0  0  0
    3.5663   -1.8857    0.0000 C   0  0  0  0  0  0  0  0  0  0  0  0
    4.2807   -2.2982    0.0000 C   0  0  0  0  0  0  0  0  0  0  0  0
    4.9952   -1.8857    0.0000 C   0  0  0  0  0  0  0  0  0  0  0  0
    4.9952   -1.0607    0.0000 C   0  0  0  0  0  0  0  0  0  0  0  0
    4.2807   -0.6482    0.0000 C   0  0  0  0  0  0  0  0  0  0  0  0
    3.5663   -1.0607    0.0000 C   0  0  0  0  0  0  0  0  0  0  0  0
    2.8518   -0.6482    0.0000 O   0  0  0  0  0  0  0  0  0  0  0  0
    2.1373   -1.0607    0.0000 C   0  0  0  0  0  0  0  0  0  0  0  0
    1.4229   -0.6482    0.0000 C   0  0  0  0  0  0  0  0  0  0  0  0
    0.7084   -1.0607    0.0000 C   0  0  0  0  0  0  0  0  0  0  0  0
   -0.0061   -0.6482    0.0000 Cl  0  0  0  0  0  0  0  0  0  0  0  0
    0.7084   -1.8857    0.0000 C   0  0  0  0  0  0  0  0  0  0  0  0
   -0.0061   -2.2982    0.0000 Cl  0  0  0  0  0  0  0  0  0  0  0  0
    1.4229   -2.2982    0.0000 C   0  0  0  0  0  0  0  0  0  0  0  0
    5.7097   -0.6482    0.0000 Cl  0  0  0  0  0  0  0  0  0  0  0  0
    5.7097   -2.2982    0.0000 Cl  0  0  0  0  0  0  0  0  0  0  0  0
    4.2807   -3.1232    0.0000 Cl  0  0  0  0  0  0  0  0  0  0  0  0
  2  1  1  0  0  0  0
  3  2  1  0  0  0  0
  3  4  1  0  0  0  0
  4  5  2  0  0  0  0
  5  6  1  0  0  0  0
  6  7  2  0  0  0  0
  7  8  1  0  0  0  0
  8  3  2  0  0  0  0
  9  8  1  0  0  0  0
 10  9  1  0  0  0  0
 10  1  1  0  0  0  0
 11 10  2  0  0  0  0
 12 11  1  0  0  0  0
 12 13  1  0  0  0  0
 14 12  2  0  0  0  0
 14 15  1  0  0  0  0
 16 14  1  0  0  0  0
  1 16  2  0  0  0  0
  6 17  1  0  0  0  0
  5 18  1  0  0  0  0
  4 19  1  0  0  0  0
M  END
> <ChemID>
100221

> <CAS>
40321-76-4

> <Original_SMILES>
Clc1c(Cl)c2Oc3cc(Cl)c(Cl)cc3Oc2cc1Cl

> <preferred_name>
1,2,3,7,8-Pentachlorodibenzo-p-dioxin

> <dsstox_substance_id>
DTXSID7052078

> <dsstox_compound_id>
DTXCID2030645

> <qc_level>
DSSTox_Low

> <Canonical_QSARr>
ClC1C=C2OC3C=C(Cl)C(Cl)=C(Cl)C=3OC2=CC=1Cl

> <InChI_Code_QSARr>
InChI=1S/C12H3Cl5O2/c13-4-1-7-8(2-5(4)14)19-12-9(18-7)3-6(15)10(16)11(12)17/h1-3H

> <InChI Key_QSARr>
FSPZPQQWDODWAU-UHFFFAOYSA-N

> <Salt_Solvent>


> <Salt_Solvent_ID>
0

> <MPID>
19029

> <LogKOA_Ref>
Harner,T et al. (2000)

> <LogKOA>
10.57

> <Tr_1_Tst_0>
1

$$$$
100222
  Mrv171c012251910582D          

 16 17  0  0  0  0            999 V2000
    3.6565   -3.7646    0.0000 Br  0  0  0  0  0  0  0  0  0  0  0  0
    3.6565   -2.9396    0.0000 C   0  0  0  0  0  0  0  0  0  0  0  0
    4.3709   -2.5271    0.0000 C   0  0  0  0  0  0  0  0  0  0  0  0
    4.3709   -1.7021    0.0000 C   0  0  0  0  0  0  0  0  0  0  0  0
    3.6565   -1.2896    0.0000 C   0  0  0  0  0  0  0  0  0  0  0  0
    3.6565   -0.4646    0.0000 O   0  0  0  0  0  0  0  0  0  0  0  0
    2.9420   -0.0521    0.0000 C   0  0  0  0  0  0  0  0  0  0  0  0
    2.9420    0.7729    0.0000 C   0  0  0  0  0  0  0  0  0  0  0  0
    2.2275    1.1854    0.0000 C   0  0  0  0  0  0  0  0  0  0  0  0
    1.5130    0.7729    0.0000 C   0  0  0  0  0  0  0  0  0  0  0  0
    0.7986    1.1854    0.0000 Br  0  0  0  0  0  0  0  0  0  0  0  0
    1.5130   -0.0521    0.0000 C   0  0  0  0  0  0  0  0  0  0  0  0
    2.2275   -0.4646    0.0000 C   0  0  0  0  0  0  0  0  0  0  0  0
    2.2275   -1.2896    0.0000 Br  0  0  0  0  0  0  0  0  0  0  0  0
    2.9420   -1.7021    0.0000 C   0  0  0  0  0  0  0  0  0  0  0  0
    2.9420   -2.5271    0.0000 C   0  0  0  0  0  0  0  0  0  0  0  0
  1  2  1  0  0  0  0
  3  2  2  0  0  0  0
  4  3  1  0  0  0  0
  5  4  2  0  0  0  0
  5  6  1  0  0  0  0
  6  7  1  0  0  0  0
  8  7  1  0  0  0  0
  9  8  2  0  0  0  0
 10  9  1  0  0  0  0
 10 11  1  0  0  0  0
 12 10  2  0  0  0  0
 13 12  1  0  0  0  0
  7 13  2  0  0  0  0
 13 14  1  0  0  0  0
 15  5  1  0  0  0  0
 16 15  2  0  0  0  0
  2 16  1  0  0  0  0
M  END
> <ChemID>
100222

> <CAS>
41318-75-6

> <Original_SMILES>
Brc1cc(Br)ccc1Oc1ccc(Br)cc1

> <preferred_name>
2,4,4'-Tribromodiphenyl ether (BDE 28)

> <dsstox_substance_id>
DTXSID4052710

> <dsstox_compound_id>
DTXCID4031304

> <qc_level>
DSSTox_High

> <Canonical_QSARr>
BrC1=CC(Br)=C(C=C1)OC1C=CC(Br)=CC=1

> <InChI_Code_QSARr>
InChI=1S/C12H7Br3O/c13-8-1-4-10(5-2-8)16-12-6-3-9(14)7-11(12)15/h1-7H

> <InChI Key_QSARr>
UPNBETHEXPIWQX-UHFFFAOYSA-N

> <Salt_Solvent>


> <Salt_Solvent_ID>
0

> <MPID>
19030

> <LogKOA_Ref>
Harner,T & Shoeib,M (2002)

> <LogKOA>
9.5

> <Tr_1_Tst_0>
1

$$$$
100223
  Mrv171c012251910582D          

 16 17  0  0  0  0            999 V2000
    2.5069   -1.1993    0.0000 C   0  0  0  0  0  0  0  0  0  0  0  0
    3.2214   -1.6118    0.0000 C   0  0  0  0  0  0  0  0  0  0  0  0
    3.9359   -1.1993    0.0000 C   0  0  0  0  0  0  0  0  0  0  0  0
    3.9359   -0.3743    0.0000 C   0  0  0  0  0  0  0  0  0  0  0  0
    3.2214    0.0382    0.0000 C   0  0  0  0  0  0  0  0  0  0  0  0
    3.2214    0.8632    0.0000 Cl  0  0  0  0  0  0  0  0  0  0  0  0
    2.5069   -0.3743    0.0000 C   0  0  0  0  0  0  0  0  0  0  0  0
    1.7924    0.0382    0.0000 Cl  0  0  0  0  0  0  0  0  0  0  0  0
    1.7924   -1.6118    0.0000 C   0  0  0  0  0  0  0  0  0  0  0  0
    1.0780   -1.1993    0.0000 C   0  0  0  0  0  0  0  0  0  0  0  0
    0.3635   -1.6118    0.0000 C   0  0  0  0  0  0  0  0  0  0  0  0
   -0.3510   -1.1993    0.0000 Cl  0  0  0  0  0  0  0  0  0  0  0  0
    0.3635   -2.4368    0.0000 C   0  0  0  0  0  0  0  0  0  0  0  0
    1.0780   -2.8493    0.0000 C   0  0  0  0  0  0  0  0  0  0  0  0
    1.7924   -2.4368    0.0000 C   0  0  0  0  0  0  0  0  0  0  0  0
    2.5069   -2.8493    0.0000 Cl  0  0  0  0  0  0  0  0  0  0  0  0
  2  1  1  0  0  0  0
  3  2  2  0  0  0  0
  4  3  1  0  0  0  0
  5  4  2  0  0  0  0
  5  6  1  0  0  0  0
  7  5  1  0  0  0  0
  1  7  2  0  0  0  0
  7  8  1  0  0  0  0
  1  9  1  0  0  0  0
 10  9  1  0  0  0  0
 11 10  2  0  0  0  0
 11 12  1  0  0  0  0
 13 11  1  0  0  0  0
 14 13  2  0  0  0  0
 15 14  1  0  0  0  0
  9 15  2  0  0  0  0
 15 16  1  0  0  0  0
M  END
> <ChemID>
100223

> <CAS>
41464-39-5

> <Original_SMILES>
Clc1cc(-c2cccc(Cl)c2Cl)c(Cl)cc1

> <preferred_name>
2,2',3,5'-tetrachlorobiphenyl

> <dsstox_substance_id>
DTXSID8038302

> <dsstox_compound_id>
DTXCID6018302

> <qc_level>
DSSTox_Low

> <Canonical_QSARr>
ClC1C=CC(Cl)=CC=1C1C=CC=C(Cl)C=1Cl

> <InChI_Code_QSARr>
InChI=1S/C12H6Cl4/c13-7-4-5-10(14)9(6-7)8-2-1-3-11(15)12(8)16/h1-6H

> <InChI Key_QSARr>
ALDJIKXAHSDLLB-UHFFFAOYSA-N

> <Salt_Solvent>


> <Salt_Solvent_ID>
0

> <MPID>
19031

> <LogKOA_Ref>
Komp,P & McLachlan,MS (1997)

> <LogKOA>
8.36

> <Tr_1_Tst_0>
0

$$$$
100224
  Mrv171c012251910582D          

 16 17  0  0  0  0            999 V2000
    0.3572    1.7531    0.0000 C   0  0  0  0  0  0  0  0  0  0  0  0
    0.3572    2.5781    0.0000 C   0  0  0  0  0  0  0  0  0  0  0  0
   -0.3572    2.9906    0.0000 C   0  0  0  0  0  0  0  0  0  0  0  0
   -0.3572    3.8156    0.0000 Cl  0  0  0  0  0  0  0  0  0  0  0  0
   -1.0717    2.5781    0.0000 C   0  0  0  0  0  0  0  0  0  0  0  0
   -1.0717    1.7531    0.0000 C   0  0  0  0  0  0  0  0  0  0  0  0
   -0.3572    1.3406    0.0000 C   0  0  0  0  0  0  0  0  0  0  0  0
   -0.3572    0.5156    0.0000 Cl  0  0  0  0  0  0  0  0  0  0  0  0
    1.0717    1.3406    0.0000 C   0  0  0  0  0  0  0  0  0  0  0  0
    1.0717    0.5156    0.0000 C   0  0  0  0  0  0  0  0  0  0  0  0
    1.7862    0.1031    0.0000 C   0  0  0  0  0  0  0  0  0  0  0  0
    2.5006    0.5156    0.0000 C   0  0  0  0  0  0  0  0  0  0  0  0
    3.2151    0.1031    0.0000 Cl  0  0  0  0  0  0  0  0  0  0  0  0
    2.5006    1.3406    0.0000 C   0  0  0  0  0  0  0  0  0  0  0  0
    1.7862    1.7531    0.0000 C   0  0  0  0  0  0  0  0  0  0  0  0
    1.7862    2.5781    0.0000 Cl  0  0  0  0  0  0  0  0  0  0  0  0
  2  1  1  0  0  0  0
  3  2  2  0  0  0  0
  3  4  1  0  0  0  0
  5  3  1  0  0  0  0
  6  5  2  0  0  0  0
  7  6  1  0  0  0  0
  1  7  2  0  0  0  0
  7  8  1  0  0  0  0
  1  9  1  0  0  0  0
 10  9  1  0  0  0  0
 11 10  2  0  0  0  0
 12 11  1  0  0  0  0
 12 13  1  0  0  0  0
 14 12  2  0  0  0  0
 15 14  1  0  0  0  0
  9 15  2  0  0  0  0
 15 16  1  0  0  0  0
M  END
> <ChemID>
100224

> <CAS>
41464-40-8

> <Original_SMILES>
Clc1cc(Cl)ccc1-c1cc(Cl)ccc1Cl

> <preferred_name>
2,2',4,5'-Tetrachlorobiphenyl

> <dsstox_substance_id>
DTXSID8073508

> <dsstox_compound_id>
DTXCID6039922

> <qc_level>
Public_High

> <Canonical_QSARr>
ClC1C=C(Cl)C=CC=1C1C=C(Cl)C=CC=1Cl

> <InChI_Code_QSARr>
InChI=1S/C12H6Cl4/c13-7-2-4-11(15)10(5-7)9-3-1-8(14)6-12(9)16/h1-6H

> <InChI Key_QSARr>
ZWPVHELAQPIZHO-UHFFFAOYSA-N

> <Salt_Solvent>


> <Salt_Solvent_ID>
0

> <MPID>
19032

> <LogKOA_Ref>
Harner,T & Bidleman,TF (1996)

> <LogKOA>
8.39

> <Tr_1_Tst_0>
1

$$$$
100225
  Mrv171c012251910582D          

 16 17  0  0  0  0            999 V2000
    0.4465    1.9078    0.0000 C   0  0  0  0  0  0  0  0  0  0  0  0
    0.4465    2.7328    0.0000 C   0  0  0  0  0  0  0  0  0  0  0  0
   -0.2679    3.1453    0.0000 C   0  0  0  0  0  0  0  0  0  0  0  0
   -0.2679    3.9703    0.0000 Cl  0  0  0  0  0  0  0  0  0  0  0  0
   -0.9824    2.7328    0.0000 C   0  0  0  0  0  0  0  0  0  0  0  0
   -0.9824    1.9078    0.0000 C   0  0  0  0  0  0  0  0  0  0  0  0
   -0.2679    1.4953    0.0000 C   0  0  0  0  0  0  0  0  0  0  0  0
   -0.2679    0.6703    0.0000 Cl  0  0  0  0  0  0  0  0  0  0  0  0
    1.1610    1.4953    0.0000 C   0  0  0  0  0  0  0  0  0  0  0  0
    1.1610    0.6703    0.0000 C   0  0  0  0  0  0  0  0  0  0  0  0
    0.4465    0.2578    0.0000 Cl  0  0  0  0  0  0  0  0  0  0  0  0
    1.8755    0.2578    0.0000 C   0  0  0  0  0  0  0  0  0  0  0  0
    2.5899    0.6703    0.0000 C   0  0  0  0  0  0  0  0  0  0  0  0
    2.5899    1.4953    0.0000 C   0  0  0  0  0  0  0  0  0  0  0  0
    1.8755    1.9078    0.0000 C   0  0  0  0  0  0  0  0  0  0  0  0
    1.8755    2.7328    0.0000 Cl  0  0  0  0  0  0  0  0  0  0  0  0
  2  1  1  0  0  0  0
  3  2  2  0  0  0  0
  3  4  1  0  0  0  0
  5  3  1  0  0  0  0
  6  5  2  0  0  0  0
  7  6  1  0  0  0  0
  1  7  2  0  0  0  0
  7  8  1  0  0  0  0
  1  9  1  0  0  0  0
 10  9  1  0  0  0  0
 10 11  1  0  0  0  0
 12 10  2  0  0  0  0
 13 12  1  0  0  0  0
 14 13  2  0  0  0  0
 15 14  1  0  0  0  0
  9 15  2  0  0  0  0
 15 16  1  0  0  0  0
M  END
> <ChemID>
100225

> <CAS>
41464-41-9

> <Original_SMILES>
Clc1cc(-c2c(Cl)cccc2Cl)c(Cl)cc1

> <preferred_name>
2,2',5,6'-Tetrachlorobiphenyl

> <dsstox_substance_id>
DTXSID3073509

> <dsstox_compound_id>
DTXCID1039923

> <qc_level>
Public_High

> <Canonical_QSARr>
ClC1C=CC(Cl)=CC=1C1C(Cl)=CC=CC=1Cl

> <InChI_Code_QSARr>
InChI=1S/C12H6Cl4/c13-7-4-5-9(14)8(6-7)12-10(15)2-1-3-11(12)16/h1-6H

> <InChI Key_QSARr>
SFTUSTXGTCCSHX-UHFFFAOYSA-N

> <Salt_Solvent>


> <Salt_Solvent_ID>
0

> <MPID>
19033

> <LogKOA_Ref>
Harner,T & Bidleman,TF (1996)

> <LogKOA>
8.45

> <Tr_1_Tst_0>
1

$$$$
100226
  Mrv171c012251910582D          

 13 14  0  0  0  0            999 V2000
    3.0909   -1.2518    0.0000 Cl  0  0  0  0  0  0  0  0  0  0  0  0
    3.0909   -0.4268    0.0000 C   0  0  0  0  0  0  0  0  0  0  0  0
    2.3764   -0.0143    0.0000 C   0  0  0  0  0  0  0  0  0  0  0  0
    1.6619   -0.4268    0.0000 Cl  0  0  0  0  0  0  0  0  0  0  0  0
    2.3764    0.8107    0.0000 C   0  0  0  0  0  0  0  0  0  0  0  0
    1.6619    1.2232    0.0000 Cl  0  0  0  0  0  0  0  0  0  0  0  0
    3.0909    1.2232    0.0000 C   0  0  0  0  0  0  0  0  0  0  0  0
    3.8054    0.8107    0.0000 C   0  0  0  0  0  0  0  0  0  0  0  0
    4.5198    1.2232    0.0000 C   0  0  0  0  0  0  0  0  0  0  0  0
    5.2343    0.8107    0.0000 C   0  0  0  0  0  0  0  0  0  0  0  0
    5.2343   -0.0143    0.0000 C   0  0  0  0  0  0  0  0  0  0  0  0
    4.5198   -0.4268    0.0000 C   0  0  0  0  0  0  0  0  0  0  0  0
    3.8054   -0.0143    0.0000 C   0  0  0  0  0  0  0  0  0  0  0  0
  1  2  1  0  0  0  0
  3  2  2  0  0  0  0
  3  4  1  0  0  0  0
  5  3  1  0  0  0  0
  5  6  1  0  0  0  0
  7  5  2  0  0  0  0
  8  7  1  0  0  0  0
  8  9  2  0  0  0  0
  9 10  1  0  0  0  0
 10 11  2  0  0  0  0
 11 12  1  0  0  0  0
 12 13  2  0  0  0  0
  2 13  1  0  0  0  0
 13  8  1  0  0  0  0
M  END
> <ChemID>
100226

> <CAS>
50402-52-3

> <Original_SMILES>
Clc1cc2ccccc2c(Cl)c1Cl

> <preferred_name>
Naphthalene, 1,2,3-trichloro-

> <dsstox_substance_id>
DTXSID80198454

> <dsstox_compound_id>
DTXCID10120945

> <qc_level>
Public_Medium

> <Canonical_QSARr>
ClC1=CC2=CC=CC=C2C(Cl)=C1Cl

> <InChI_Code_QSARr>
InChI=1S/C10H5Cl3/c11-8-5-6-3-1-2-4-7(6)9(12)10(8)13/h1-5H

> <InChI Key_QSARr>
QEPTXDCPBXMWJC-UHFFFAOYSA-N

> <Salt_Solvent>


> <Salt_Solvent_ID>
0

> <MPID>
19034

> <LogKOA_Ref>
Wania,F et al. (2002)

> <LogKOA>
7.66

> <Tr_1_Tst_0>
1

$$$$
100227
  Mrv171c012251910582D          

 17 19  0  0  0  0            999 V2000
    2.1642   -1.7855    0.0000 C   0  0  0  0  0  0  0  0  0  0  0  0
    2.8316   -2.2704    0.0000 O   0  0  0  0  0  0  0  0  0  0  0  0
    3.4991   -1.7855    0.0000 C   0  0  0  0  0  0  0  0  0  0  0  0
    4.3060   -1.9570    0.0000 C   0  0  0  0  0  0  0  0  0  0  0  0
    4.8581   -1.3439    0.0000 C   0  0  0  0  0  0  0  0  0  0  0  0
    4.6031   -0.5593    0.0000 C   0  0  0  0  0  0  0  0  0  0  0  0
    3.7962   -0.3877    0.0000 C   0  0  0  0  0  0  0  0  0  0  0  0
    3.2441   -1.0008    0.0000 C   0  0  0  0  0  0  0  0  0  0  0  0
    2.4191   -1.0008    0.0000 C   0  0  0  0  0  0  0  0  0  0  0  0
    1.8671   -0.3877    0.0000 C   0  0  0  0  0  0  0  0  0  0  0  0
    1.0601   -0.5593    0.0000 C   0  0  0  0  0  0  0  0  0  0  0  0
    0.5081    0.0538    0.0000 Cl  0  0  0  0  0  0  0  0  0  0  0  0
    0.8052   -1.3439    0.0000 C   0  0  0  0  0  0  0  0  0  0  0  0
   -0.0018   -1.5154    0.0000 Cl  0  0  0  0  0  0  0  0  0  0  0  0
    1.3572   -1.9570    0.0000 C   0  0  0  0  0  0  0  0  0  0  0  0
    5.1552    0.0538    0.0000 Cl  0  0  0  0  0  0  0  0  0  0  0  0
    5.6650   -1.5154    0.0000 Cl  0  0  0  0  0  0  0  0  0  0  0  0
  2  1  1  0  0  0  0
  3  2  1  0  0  0  0
  3  4  1  0  0  0  0
  4  5  2  0  0  0  0
  5  6  1  0  0  0  0
  6  7  2  0  0  0  0
  7  8  1  0  0  0  0
  8  3  2  0  0  0  0
  9  8  1  0  0  0  0
  9  1  1  0  0  0  0
 10  9  2  0  0  0  0
 11 10  1  0  0  0  0
 11 12  1  0  0  0  0
 13 11  2  0  0  0  0
 13 14  1  0  0  0  0
 15 13  1  0  0  0  0
  1 15  2  0  0  0  0
  6 16  1  0  0  0  0
  5 17  1  0  0  0  0
M  END
> <ChemID>
100227

> <CAS>
51207-31-9

> <Original_SMILES>
Clc1cc2c(cc1Cl)oc1cc(Cl)c(Cl)cc21

> <preferred_name>
2,3,7,8-Tetrachlorodibenzofuran

> <dsstox_substance_id>
DTXSID3052147

> <dsstox_compound_id>
DTXCID8030716

> <qc_level>
DSSTox_High

> <Canonical_QSARr>
ClC1=CC2OC3=CC(Cl)=C(Cl)C=C3C=2C=C1Cl

> <InChI_Code_QSARr>
InChI=1S/C12H4Cl4O/c13-7-1-5-6-2-8(14)10(16)4-12(6)17-11(5)3-9(7)15/h1-4H

> <InChI Key_QSARr>
KSMVNVHUTQZITP-UHFFFAOYSA-N

> <Salt_Solvent>


> <Salt_Solvent_ID>
0

> <MPID>
19035

> <LogKOA_Ref>
Harner,T et al. (2000)

> <LogKOA>
10.02

> <Tr_1_Tst_0>
0

$$$$
100228
  Mrv171c012251910582D          

 16 17  0  0  0  0            999 V2000
    0.5358   -5.3625    0.0000 C   0  0  0  0  0  0  0  0  0  0  0  0
    0.5358   -6.1875    0.0000 Cl  0  0  0  0  0  0  0  0  0  0  0  0
    1.2503   -4.9500    0.0000 C   0  0  0  0  0  0  0  0  0  0  0  0
    1.2503   -4.1250    0.0000 C   0  0  0  0  0  0  0  0  0  0  0  0
    0.5358   -3.7125    0.0000 C   0  0  0  0  0  0  0  0  0  0  0  0
    0.5358   -2.8875    0.0000 C   0  0  0  0  0  0  0  0  0  0  0  0
    1.2503   -2.4750    0.0000 C   0  0  0  0  0  0  0  0  0  0  0  0
    1.9648   -2.8875    0.0000 Cl  0  0  0  0  0  0  0  0  0  0  0  0
    1.2503   -1.6500    0.0000 C   0  0  0  0  0  0  0  0  0  0  0  0
    1.9648   -1.2375    0.0000 Cl  0  0  0  0  0  0  0  0  0  0  0  0
    0.5358   -1.2375    0.0000 C   0  0  0  0  0  0  0  0  0  0  0  0
   -0.1786   -1.6500    0.0000 C   0  0  0  0  0  0  0  0  0  0  0  0
   -0.1786   -2.4750    0.0000 C   0  0  0  0  0  0  0  0  0  0  0  0
   -0.8931   -2.8875    0.0000 Cl  0  0  0  0  0  0  0  0  0  0  0  0
   -0.1786   -4.1250    0.0000 C   0  0  0  0  0  0  0  0  0  0  0  0
   -0.1786   -4.9500    0.0000 C   0  0  0  0  0  0  0  0  0  0  0  0
  1  2  1  0  0  0  0
  3  1  1  0  0  0  0
  4  3  2  0  0  0  0
  5  4  1  0  0  0  0
  5  6  1  0  0  0  0
  7  6  1  0  0  0  0
  7  8  1  0  0  0  0
  9  7  2  0  0  0  0
  9 10  1  0  0  0  0
 11  9  1  0  0  0  0
 12 11  2  0  0  0  0
 13 12  1  0  0  0  0
  6 13  2  0  0  0  0
 13 14  1  0  0  0  0
 15  5  2  0  0  0  0
 16 15  1  0  0  0  0
  1 16  2  0  0  0  0
M  END
> <ChemID>
100228

> <CAS>
52663-58-8

> <Original_SMILES>
Clc1ccc(cc1)-c1c(Cl)c(Cl)ccc1Cl

> <preferred_name>
2,3,4',6-Tetrachlorobiphenyl

> <dsstox_substance_id>
DTXSID3074159

> <dsstox_compound_id>
DTXCID4041232

> <qc_level>
Public_High

> <Canonical_QSARr>
ClC1C=CC(=CC=1)C1C(Cl)=C(Cl)C=CC=1Cl

> <InChI_Code_QSARr>
InChI=1S/C12H6Cl4/c13-8-3-1-7(2-4-8)11-9(14)5-6-10(15)12(11)16/h1-6H

> <InChI Key_QSARr>
FXRXQYZZALWWGA-UHFFFAOYSA-N

> <Salt_Solvent>


> <Salt_Solvent_ID>
0

> <MPID>
19036

> <LogKOA_Ref>
Komp,P & McLachlan,MS (1997)

> <LogKOA>
8.41

> <Tr_1_Tst_0>
1

$$$$
100229
  Mrv171c012251910582D          

 17 18  0  0  0  0            999 V2000
    0.5043    1.4074    0.0000 C   0  0  0  0  0  0  0  0  0  0  0  0
   -0.2101    1.8199    0.0000 C   0  0  0  0  0  0  0  0  0  0  0  0
   -0.2101    2.6449    0.0000 Cl  0  0  0  0  0  0  0  0  0  0  0  0
   -0.9246    1.4074    0.0000 C   0  0  0  0  0  0  0  0  0  0  0  0
   -0.9246    0.5824    0.0000 C   0  0  0  0  0  0  0  0  0  0  0  0
   -0.2101    0.1699    0.0000 C   0  0  0  0  0  0  0  0  0  0  0  0
   -0.2101   -0.6551    0.0000 Cl  0  0  0  0  0  0  0  0  0  0  0  0
    0.5043    0.5824    0.0000 C   0  0  0  0  0  0  0  0  0  0  0  0
    1.2188    0.1699    0.0000 Cl  0  0  0  0  0  0  0  0  0  0  0  0
    1.2188    1.8199    0.0000 C   0  0  0  0  0  0  0  0  0  0  0  0
    1.9333    1.4074    0.0000 C   0  0  0  0  0  0  0  0  0  0  0  0
    2.6477    1.8199    0.0000 C   0  0  0  0  0  0  0  0  0  0  0  0
    2.6477    2.6449    0.0000 C   0  0  0  0  0  0  0  0  0  0  0  0
    1.9333    3.0574    0.0000 C   0  0  0  0  0  0  0  0  0  0  0  0
    1.9333    3.8824    0.0000 Cl  0  0  0  0  0  0  0  0  0  0  0  0
    1.2188    2.6449    0.0000 C   0  0  0  0  0  0  0  0  0  0  0  0
    0.5043    3.0574    0.0000 Cl  0  0  0  0  0  0  0  0  0  0  0  0
  2  1  1  0  0  0  0
  2  3  1  0  0  0  0
  4  2  2  0  0  0  0
  5  4  1  0  0  0  0
  6  5  2  0  0  0  0
  6  7  1  0  0  0  0
  8  6  1  0  0  0  0
  1  8  2  0  0  0  0
  8  9  1  0  0  0  0
  1 10  1  0  0  0  0
 11 10  1  0  0  0  0
 12 11  2  0  0  0  0
 13 12  1  0  0  0  0
 14 13  2  0  0  0  0
 14 15  1  0  0  0  0
 16 14  1  0  0  0  0
 10 16  2  0  0  0  0
 16 17  1  0  0  0  0
M  END
> <ChemID>
100229

> <CAS>
52663-60-2

> <Original_SMILES>
Clc1c(-c2cccc(Cl)c2Cl)c(Cl)ccc1Cl

> <preferred_name>
2,2',3,3',6-Pentachlorobiphenyl

> <dsstox_substance_id>
DTXSID0073536

> <dsstox_compound_id>
DTXCID4041234

> <qc_level>
Public_High

> <Canonical_QSARr>
ClC1=C(C2C=CC=C(Cl)C=2Cl)C(Cl)=CC=C1Cl

> <InChI_Code_QSARr>
InChI=1S/C12H5Cl5/c13-7-4-5-9(15)12(17)10(7)6-2-1-3-8(14)11(6)16/h1-5H

> <InChI Key_QSARr>
QVWUJLANSDKRAH-UHFFFAOYSA-N

> <Salt_Solvent>


> <Salt_Solvent_ID>
0

> <MPID>
19037

> <LogKOA_Ref>
Komp,P & McLachlan,MS (1997)

> <LogKOA>
8.8

> <Tr_1_Tst_0>
1

$$$$
100230
  Mrv171c012251910582D          

 19 20  0  0  0  0            999 V2000
    1.9021   -2.7357    0.0000 C   0  0  0  0  0  0  0  0  0  0  0  0
    1.1876   -2.3232    0.0000 C   0  0  0  0  0  0  0  0  0  0  0  0
    1.1876   -1.4982    0.0000 Cl  0  0  0  0  0  0  0  0  0  0  0  0
    0.4731   -2.7357    0.0000 C   0  0  0  0  0  0  0  0  0  0  0  0
   -0.2414   -2.3232    0.0000 Cl  0  0  0  0  0  0  0  0  0  0  0  0
    0.4731   -3.5607    0.0000 C   0  0  0  0  0  0  0  0  0  0  0  0
    1.1876   -3.9732    0.0000 C   0  0  0  0  0  0  0  0  0  0  0  0
    1.1876   -4.7982    0.0000 Cl  0  0  0  0  0  0  0  0  0  0  0  0
    1.9021   -3.5607    0.0000 C   0  0  0  0  0  0  0  0  0  0  0  0
    2.6165   -3.9732    0.0000 Cl  0  0  0  0  0  0  0  0  0  0  0  0
    2.6165   -2.3232    0.0000 C   0  0  0  0  0  0  0  0  0  0  0  0
    3.3310   -2.7357    0.0000 C   0  0  0  0  0  0  0  0  0  0  0  0
    4.0455   -2.3232    0.0000 C   0  0  0  0  0  0  0  0  0  0  0  0
    4.7599   -2.7357    0.0000 Cl  0  0  0  0  0  0  0  0  0  0  0  0
    4.0455   -1.4982    0.0000 C   0  0  0  0  0  0  0  0  0  0  0  0
    4.7599   -1.0857    0.0000 Cl  0  0  0  0  0  0  0  0  0  0  0  0
    3.3310   -1.0857    0.0000 C   0  0  0  0  0  0  0  0  0  0  0  0
    2.6165   -1.4982    0.0000 C   0  0  0  0  0  0  0  0  0  0  0  0
    1.9021   -1.0857    0.0000 Cl  0  0  0  0  0  0  0  0  0  0  0  0
  2  1  2  0  0  0  0
  2  3  1  0  0  0  0
  4  2  1  0  0  0  0
  4  5  1  0  0  0  0
  6  4  2  0  0  0  0
  7  6  1  0  0  0  0
  7  8  1  0  0  0  0
  9  7  2  0  0  0  0
  1  9  1  0  0  0  0
  9 10  1  0  0  0  0
  1 11  1  0  0  0  0
 12 11  1  0  0  0  0
 13 12  2  0  0  0  0
 13 14  1  0  0  0  0
 15 13  1  0  0  0  0
 15 16  1  0  0  0  0
 17 15  2  0  0  0  0
 18 17  1  0  0  0  0
 11 18  2  0  0  0  0
 18 19  1  0  0  0  0
M  END
> <ChemID>
100230

> <CAS>
52663-68-0

> <Original_SMILES>
Clc1cc(Cl)c(Cl)cc1-c1c(Cl)c(Cl)cc(Cl)c1Cl

> <preferred_name>
2,2',3,4',5,5',6-Heptachloro-1,1'-biphenyl

> <dsstox_substance_id>
DTXSID5052832

> <dsstox_compound_id>
DTXCID7031375

> <qc_level>
DSSTox_Low

> <Canonical_QSARr>
ClC1C=C(Cl)C(Cl)=C(C2C=C(Cl)C(Cl)=CC=2Cl)C=1Cl

> <InChI_Code_QSARr>
InChI=1S/C12H3Cl7/c13-5-2-7(15)6(14)1-4(5)10-11(18)8(16)3-9(17)12(10)19/h1-3H

> <InChI Key_QSARr>
UDMZPLROONOSEF-UHFFFAOYSA-N

> <Salt_Solvent>


> <Salt_Solvent_ID>
0

> <MPID>
19038

> <LogKOA_Ref>
Komp,P & McLachlan,MS (1997)

> <LogKOA>
9.87

> <Tr_1_Tst_0>
1

$$$$
100231
  Mrv171c012251910582D          

 19 20  0  0  0  0            999 V2000
    0.4889    1.4113    0.0000 C   0  0  0  0  0  0  0  0  0  0  0  0
   -0.2256    1.8238    0.0000 C   0  0  0  0  0  0  0  0  0  0  0  0
   -0.2256    2.6488    0.0000 Cl  0  0  0  0  0  0  0  0  0  0  0  0
   -0.9401    1.4113    0.0000 C   0  0  0  0  0  0  0  0  0  0  0  0
   -0.9401    0.5863    0.0000 C   0  0  0  0  0  0  0  0  0  0  0  0
   -1.6545    0.1738    0.0000 Cl  0  0  0  0  0  0  0  0  0  0  0  0
   -0.2256    0.1738    0.0000 C   0  0  0  0  0  0  0  0  0  0  0  0
   -0.2256   -0.6512    0.0000 Cl  0  0  0  0  0  0  0  0  0  0  0  0
    0.4889    0.5863    0.0000 C   0  0  0  0  0  0  0  0  0  0  0  0
    1.2033    0.1738    0.0000 Cl  0  0  0  0  0  0  0  0  0  0  0  0
    1.2033    1.8238    0.0000 C   0  0  0  0  0  0  0  0  0  0  0  0
    1.9178    1.4113    0.0000 C   0  0  0  0  0  0  0  0  0  0  0  0
    2.6323    1.8238    0.0000 C   0  0  0  0  0  0  0  0  0  0  0  0
    2.6323    2.6488    0.0000 C   0  0  0  0  0  0  0  0  0  0  0  0
    3.3468    3.0613    0.0000 Cl  0  0  0  0  0  0  0  0  0  0  0  0
    1.9178    3.0613    0.0000 C   0  0  0  0  0  0  0  0  0  0  0  0
    1.9178    3.8863    0.0000 Cl  0  0  0  0  0  0  0  0  0  0  0  0
    1.2033    2.6488    0.0000 C   0  0  0  0  0  0  0  0  0  0  0  0
    0.4889    3.0613    0.0000 Cl  0  0  0  0  0  0  0  0  0  0  0  0
  2  1  1  0  0  0  0
  2  3  1  0  0  0  0
  4  2  2  0  0  0  0
  5  4  1  0  0  0  0
  5  6  1  0  0  0  0
  7  5  2  0  0  0  0
  7  8  1  0  0  0  0
  9  7  1  0  0  0  0
  1  9  2  0  0  0  0
  9 10  1  0  0  0  0
  1 11  1  0  0  0  0
 12 11  1  0  0  0  0
 13 12  2  0  0  0  0
 14 13  1  0  0  0  0
 14 15  1  0  0  0  0
 16 14  2  0  0  0  0
 16 17  1  0  0  0  0
 18 16  1  0  0  0  0
 11 18  2  0  0  0  0
 18 19  1  0  0  0  0
M  END
> <ChemID>
100231

> <CAS>
52663-71-5

> <Original_SMILES>
Clc1cc(Cl)c(-c2ccc(Cl)c(Cl)c2Cl)c(Cl)c1Cl

> <preferred_name>
2,2',3,3',4,4',6-Heptachlorobiphenyl

> <dsstox_substance_id>
DTXSID4073540

> <dsstox_compound_id>
DTXCID3041243

> <qc_level>
Public_High

> <Canonical_QSARr>
ClC1C=C(Cl)C(C2C=CC(Cl)=C(Cl)C=2Cl)=C(Cl)C=1Cl

> <InChI_Code_QSARr>
InChI=1S/C12H3Cl7/c13-5-2-1-4(9(16)10(5)17)8-6(14)3-7(15)11(18)12(8)19/h1-3H

> <InChI Key_QSARr>
TZMHVHLTPWKZCI-UHFFFAOYSA-N

> <Salt_Solvent>


> <Salt_Solvent_ID>
0

> <MPID>
19039

> <LogKOA_Ref>
Harner,T & Bidleman,TF (1996)

> <LogKOA>
10.24

> <Tr_1_Tst_0>
0

$$$$
100232
  Mrv171c012251910582D          

 14 15  0  0  0  0            999 V2000
    3.0909   -1.6622    0.0000 Cl  0  0  0  0  0  0  0  0  0  0  0  0
    3.0909   -0.8372    0.0000 C   0  0  0  0  0  0  0  0  0  0  0  0
    2.3765   -0.4247    0.0000 C   0  0  0  0  0  0  0  0  0  0  0  0
    1.6620   -0.8372    0.0000 Cl  0  0  0  0  0  0  0  0  0  0  0  0
    2.3765    0.4003    0.0000 C   0  0  0  0  0  0  0  0  0  0  0  0
    1.6620    0.8128    0.0000 Cl  0  0  0  0  0  0  0  0  0  0  0  0
    3.0909    0.8128    0.0000 C   0  0  0  0  0  0  0  0  0  0  0  0
    3.8054    0.4003    0.0000 C   0  0  0  0  0  0  0  0  0  0  0  0
    4.5199    0.8128    0.0000 C   0  0  0  0  0  0  0  0  0  0  0  0
    5.2343    0.4003    0.0000 C   0  0  0  0  0  0  0  0  0  0  0  0
    5.2343   -0.4247    0.0000 C   0  0  0  0  0  0  0  0  0  0  0  0
    4.5199   -0.8372    0.0000 C   0  0  0  0  0  0  0  0  0  0  0  0
    3.8054   -0.4247    0.0000 C   0  0  0  0  0  0  0  0  0  0  0  0
    4.5199    1.6378    0.0000 Cl  0  0  0  0  0  0  0  0  0  0  0  0
  1  2  1  0  0  0  0
  3  2  1  0  0  0  0
  3  4  1  0  0  0  0
  5  3  2  0  0  0  0
  5  6  1  0  0  0  0
  7  5  1  0  0  0  0
  8  7  2  0  0  0  0
  8  9  1  0  0  0  0
  9 10  2  0  0  0  0
 10 11  1  0  0  0  0
 11 12  2  0  0  0  0
 12 13  1  0  0  0  0
  2 13  2  0  0  0  0
 13  8  1  0  0  0  0
  9 14  1  0  0  0  0
M  END
> <ChemID>
100232

> <CAS>
53555-63-8

> <Original_SMILES>
Clc1cccc2c1cc(Cl)c(Cl)c2Cl

> <preferred_name>
Naphthalene, 1,2,3,5-tetrachloro-

> <dsstox_substance_id>
DTXSID00201772

> <dsstox_compound_id>
DTXCID30124263

> <qc_level>
Public_Medium

> <Canonical_QSARr>
ClC1C=C2C(C=CC=C2Cl)=C(Cl)C=1Cl

> <InChI_Code_QSARr>
InChI=1S/C10H4Cl4/c11-7-3-1-2-5-6(7)4-8(12)10(14)9(5)13/h1-4H

> <InChI Key_QSARr>
HJJKSUVYCQAMBG-UHFFFAOYSA-N

> <Salt_Solvent>


> <Salt_Solvent_ID>
0

> <MPID>
19040

> <LogKOA_Ref>
Wania,F et al. (2002)

> <LogKOA>
8.29

> <Tr_1_Tst_0>
1

$$$$
100233
  Mrv171c012251910582D          

 14 15  0  0  0  0            999 V2000
    3.0948   -1.6364    0.0000 Cl  0  0  0  0  0  0  0  0  0  0  0  0
    3.0948   -0.8114    0.0000 C   0  0  0  0  0  0  0  0  0  0  0  0
    2.3803   -0.3989    0.0000 C   0  0  0  0  0  0  0  0  0  0  0  0
    2.3803    0.4261    0.0000 C   0  0  0  0  0  0  0  0  0  0  0  0
    1.6659    0.8386    0.0000 Cl  0  0  0  0  0  0  0  0  0  0  0  0
    3.0948    0.8386    0.0000 C   0  0  0  0  0  0  0  0  0  0  0  0
    3.8093    0.4261    0.0000 C   0  0  0  0  0  0  0  0  0  0  0  0
    4.5237    0.8386    0.0000 C   0  0  0  0  0  0  0  0  0  0  0  0
    5.2382    0.4261    0.0000 C   0  0  0  0  0  0  0  0  0  0  0  0
    5.2382   -0.3989    0.0000 C   0  0  0  0  0  0  0  0  0  0  0  0
    4.5237   -0.8114    0.0000 C   0  0  0  0  0  0  0  0  0  0  0  0
    3.8093   -0.3989    0.0000 C   0  0  0  0  0  0  0  0  0  0  0  0
    5.9527   -0.8114    0.0000 Cl  0  0  0  0  0  0  0  0  0  0  0  0
    4.5237    1.6636    0.0000 Cl  0  0  0  0  0  0  0  0  0  0  0  0
  1  2  1  0  0  0  0
  3  2  2  0  0  0  0
  4  3  1  0  0  0  0
  4  5  1  0  0  0  0
  6  4  2  0  0  0  0
  7  6  1  0  0  0  0
  7  8  1  0  0  0  0
  8  9  2  0  0  0  0
  9 10  1  0  0  0  0
 10 11  2  0  0  0  0
 11 12  1  0  0  0  0
  2 12  1  0  0  0  0
 12  7  2  0  0  0  0
 10 13  1  0  0  0  0
  8 14  1  0  0  0  0
M  END
> <ChemID>
100233

> <CAS>
53555-64-9

> <Original_SMILES>
Clc1cc(Cl)c2cc(Cl)cc(Cl)c2c1

> <preferred_name>
Naphthalene, 1,3,5,7-tetrachloro-

> <dsstox_substance_id>
DTXSID60201773

> <dsstox_compound_id>
DTXCID90124264

> <qc_level>
Public_Medium

> <Canonical_QSARr>
ClC1C=C(Cl)C2C=C(Cl)C=C(Cl)C=2C=1

> <InChI_Code_QSARr>
InChI=1S/C10H4Cl4/c11-5-1-7-8(10(14)3-5)2-6(12)4-9(7)13/h1-4H

> <InChI Key_QSARr>
OTTCXKPQKOLSJN-UHFFFAOYSA-N

> <Salt_Solvent>


> <Salt_Solvent_ID>
0

> <MPID>
19041

> <LogKOA_Ref>
Su,Y et al. (2002)

> <LogKOA>
7.9

> <Tr_1_Tst_0>
1

$$$$
100234
  Mrv171c012251910582D          

 15 16  0  0  0  0            999 V2000
    3.0937   -1.6637    0.0000 Cl  0  0  0  0  0  0  0  0  0  0  0  0
    3.0937   -0.8387    0.0000 C   0  0  0  0  0  0  0  0  0  0  0  0
    2.3793   -0.4262    0.0000 C   0  0  0  0  0  0  0  0  0  0  0  0
    1.6648   -0.8387    0.0000 Cl  0  0  0  0  0  0  0  0  0  0  0  0
    2.3793    0.3988    0.0000 C   0  0  0  0  0  0  0  0  0  0  0  0
    1.6648    0.8113    0.0000 Cl  0  0  0  0  0  0  0  0  0  0  0  0
    3.0937    0.8113    0.0000 C   0  0  0  0  0  0  0  0  0  0  0  0
    3.8082    0.3988    0.0000 C   0  0  0  0  0  0  0  0  0  0  0  0
    4.5227    0.8113    0.0000 C   0  0  0  0  0  0  0  0  0  0  0  0
    5.2372    0.3988    0.0000 C   0  0  0  0  0  0  0  0  0  0  0  0
    5.2372   -0.4262    0.0000 C   0  0  0  0  0  0  0  0  0  0  0  0
    4.5227   -0.8387    0.0000 C   0  0  0  0  0  0  0  0  0  0  0  0
    3.8082   -0.4262    0.0000 C   0  0  0  0  0  0  0  0  0  0  0  0
    5.9516   -0.8387    0.0000 Cl  0  0  0  0  0  0  0  0  0  0  0  0
    4.5227    1.6363    0.0000 Cl  0  0  0  0  0  0  0  0  0  0  0  0
  1  2  1  0  0  0  0
  3  2  1  0  0  0  0
  3  4  1  0  0  0  0
  5  3  2  0  0  0  0
  5  6  1  0  0  0  0
  7  5  1  0  0  0  0
  8  7  2  0  0  0  0
  8  9  1  0  0  0  0
  9 10  2  0  0  0  0
 10 11  1  0  0  0  0
 11 12  2  0  0  0  0
 12 13  1  0  0  0  0
  2 13  2  0  0  0  0
 13  8  1  0  0  0  0
 11 14  1  0  0  0  0
  9 15  1  0  0  0  0
M  END
> <ChemID>
100234

> <CAS>
53555-65-0

> <Original_SMILES>
Clc1cc(Cl)c2cc(Cl)c(Cl)c(Cl)c2c1

> <preferred_name>
Naphthalene, 1,2,3,5,7-pentachloro-

> <dsstox_substance_id>
DTXSID20201774

> <dsstox_compound_id>
DTXCID50124265

> <qc_level>
Public_Medium

> <Canonical_QSARr>
ClC1C=C2C(C=C(Cl)C=C2Cl)=C(Cl)C=1Cl

> <InChI_Code_QSARr>
InChI=1S/C10H3Cl5/c11-4-1-6-5(7(12)2-4)3-8(13)10(15)9(6)14/h1-3H

> <InChI Key_QSARr>
OVSKLQPHXHPXDR-UHFFFAOYSA-N

> <Salt_Solvent>


> <Salt_Solvent_ID>
0

> <MPID>
19042

> <LogKOA_Ref>
Wania,F et al. (2002)

> <LogKOA>
8.82

> <Tr_1_Tst_0>
1

$$$$
100235
  Mrv171c012251910582D          

 20 22  0  0  0  0            999 V2000
    2.1636   -2.4034    0.0000 C   0  0  0  0  0  0  0  0  0  0  0  0
    2.8310   -2.8884    0.0000 O   0  0  0  0  0  0  0  0  0  0  0  0
    3.4985   -2.4034    0.0000 C   0  0  0  0  0  0  0  0  0  0  0  0
    4.3055   -2.5750    0.0000 C   0  0  0  0  0  0  0  0  0  0  0  0
    4.8575   -1.9619    0.0000 C   0  0  0  0  0  0  0  0  0  0  0  0
    4.6025   -1.1773    0.0000 C   0  0  0  0  0  0  0  0  0  0  0  0
    3.7956   -1.0057    0.0000 C   0  0  0  0  0  0  0  0  0  0  0  0
    3.5406   -0.2211    0.0000 Cl  0  0  0  0  0  0  0  0  0  0  0  0
    3.2435   -1.6188    0.0000 C   0  0  0  0  0  0  0  0  0  0  0  0
    2.4185   -1.6188    0.0000 C   0  0  0  0  0  0  0  0  0  0  0  0
    1.8665   -1.0057    0.0000 C   0  0  0  0  0  0  0  0  0  0  0  0
    2.1215   -0.2211    0.0000 Cl  0  0  0  0  0  0  0  0  0  0  0  0
    1.0595   -1.1773    0.0000 C   0  0  0  0  0  0  0  0  0  0  0  0
    0.5075   -0.5642    0.0000 Cl  0  0  0  0  0  0  0  0  0  0  0  0
    0.8046   -1.9619    0.0000 C   0  0  0  0  0  0  0  0  0  0  0  0
   -0.0024   -2.1334    0.0000 Cl  0  0  0  0  0  0  0  0  0  0  0  0
    1.3566   -2.5750    0.0000 C   0  0  0  0  0  0  0  0  0  0  0  0
    1.1017   -3.3596    0.0000 Cl  0  0  0  0  0  0  0  0  0  0  0  0
    5.1546   -0.5642    0.0000 Cl  0  0  0  0  0  0  0  0  0  0  0  0
    5.6645   -2.1334    0.0000 Cl  0  0  0  0  0  0  0  0  0  0  0  0
  2  1  1  0  0  0  0
  3  2  1  0  0  0  0
  3  4  1  0  0  0  0
  4  5  2  0  0  0  0
  5  6  1  0  0  0  0
  6  7  2  0  0  0  0
  7  8  1  0  0  0  0
  7  9  1  0  0  0  0
  9  3  2  0  0  0  0
 10  9  1  0  0  0  0
 10  1  1  0  0  0  0
 11 10  2  0  0  0  0
 11 12  1  0  0  0  0
 13 11  1  0  0  0  0
 13 14  1  0  0  0  0
 15 13  2  0  0  0  0
 15 16  1  0  0  0  0
 17 15  1  0  0  0  0
  1 17  2  0  0  0  0
 17 18  1  0  0  0  0
  6 19  1  0  0  0  0
  5 20  1  0  0  0  0
M  END
> <ChemID>
100235

> <CAS>
55673-89-7

> <Original_SMILES>
Clc1cc2oc3c(c2c(Cl)c1Cl)c(Cl)c(Cl)c(Cl)c3Cl

> <preferred_name>
1,2,3,4,7,8,9-Heptachlorodibenzofuran

> <dsstox_substance_id>
DTXSID9052216

> <dsstox_compound_id>
DTXCID1030787

> <qc_level>
DSSTox_High

> <Canonical_QSARr>
ClC1=CC2OC3C(C=2C(Cl)=C1Cl)=C(Cl)C(Cl)=C(Cl)C=3Cl

> <InChI_Code_QSARr>
InChI=1S/C12HCl7O/c13-2-1-3-4(7(15)6(2)14)5-8(16)9(17)10(18)11(19)12(5)20-3/h1H

> <InChI Key_QSARr>
VEZCTZWLJYWARH-UHFFFAOYSA-N

> <Salt_Solvent>


> <Salt_Solvent_ID>
0

> <MPID>
19043

> <LogKOA_Ref>
Chen,JW et al. (2001)

> <LogKOA>
11.43

> <Tr_1_Tst_0>
0

$$$$
100236
  Mrv171c012251910582D          

 14 15  0  0  0  0            999 V2000
    2.6837   -1.6500    0.0000 Cl  0  0  0  0  0  0  0  0  0  0  0  0
    2.6837   -0.8250    0.0000 C   0  0  0  0  0  0  0  0  0  0  0  0
    1.9692   -0.4125    0.0000 C   0  0  0  0  0  0  0  0  0  0  0  0
    1.9692    0.4125    0.0000 C   0  0  0  0  0  0  0  0  0  0  0  0
    2.6837    0.8250    0.0000 C   0  0  0  0  0  0  0  0  0  0  0  0
    2.6837    1.6500    0.0000 Cl  0  0  0  0  0  0  0  0  0  0  0  0
    3.3981    0.4125    0.0000 C   0  0  0  0  0  0  0  0  0  0  0  0
    4.1126    0.8250    0.0000 C   0  0  0  0  0  0  0  0  0  0  0  0
    4.8271    0.4125    0.0000 C   0  0  0  0  0  0  0  0  0  0  0  0
    4.8271   -0.4125    0.0000 C   0  0  0  0  0  0  0  0  0  0  0  0
    4.1126   -0.8250    0.0000 C   0  0  0  0  0  0  0  0  0  0  0  0
    3.3981   -0.4125    0.0000 C   0  0  0  0  0  0  0  0  0  0  0  0
    5.5415   -0.8250    0.0000 Cl  0  0  0  0  0  0  0  0  0  0  0  0
    5.5415    0.8250    0.0000 Cl  0  0  0  0  0  0  0  0  0  0  0  0
  1  2  1  0  0  0  0
  3  2  1  0  0  0  0
  4  3  2  0  0  0  0
  5  4  1  0  0  0  0
  5  6  1  0  0  0  0
  7  5  2  0  0  0  0
  7  8  1  0  0  0  0
  8  9  2  0  0  0  0
  9 10  1  0  0  0  0
 10 11  2  0  0  0  0
 11 12  1  0  0  0  0
  2 12  2  0  0  0  0
 12  7  1  0  0  0  0
 10 13  1  0  0  0  0
  9 14  1  0  0  0  0
M  END
> <ChemID>
100236

> <CAS>
55720-43-9

> <Original_SMILES>
Clc1ccc(Cl)c2cc(Cl)c(Cl)cc12

> <preferred_name>
Naphthalene, 1,4,6,7-tetrachloro-

> <dsstox_substance_id>
DTXSID60204269

> <dsstox_compound_id>
DTXCID10126760

> <qc_level>
Public_Medium

> <Canonical_QSARr>
ClC1C=CC(Cl)=C2C=C(Cl)C(Cl)=CC=12

> <InChI_Code_QSARr>
InChI=1S/C10H4Cl4/c11-7-1-2-8(12)6-4-10(14)9(13)3-5(6)7/h1-4H

> <InChI Key_QSARr>
VJZRCIYSYVGDMU-UHFFFAOYSA-N

> <Salt_Solvent>


> <Salt_Solvent_ID>
0

> <MPID>
19044

> <LogKOA_Ref>
Harner,T & Bidleman,TF (1998)

> <LogKOA>
8.13

> <Tr_1_Tst_0>
1

$$$$
100237
  Mrv171c012251910582D          

 18 20  0  0  0  0            999 V2000
    3.0261   -0.2650    0.0000 O   0  0  0  0  0  0  0  0  0  0  0  0
    3.6935   -0.7500    0.0000 C   0  0  0  0  0  0  0  0  0  0  0  0
    4.5005   -0.5784    0.0000 C   0  0  0  0  0  0  0  0  0  0  0  0
    5.0525   -1.1915    0.0000 C   0  0  0  0  0  0  0  0  0  0  0  0
    5.8595   -1.0200    0.0000 Cl  0  0  0  0  0  0  0  0  0  0  0  0
    4.7976   -1.9762    0.0000 C   0  0  0  0  0  0  0  0  0  0  0  0
    5.3496   -2.5893    0.0000 Cl  0  0  0  0  0  0  0  0  0  0  0  0
    3.9906   -2.1477    0.0000 C   0  0  0  0  0  0  0  0  0  0  0  0
    3.4386   -1.5346    0.0000 C   0  0  0  0  0  0  0  0  0  0  0  0
    2.6136   -1.5346    0.0000 C   0  0  0  0  0  0  0  0  0  0  0  0
    2.0615   -2.1477    0.0000 C   0  0  0  0  0  0  0  0  0  0  0  0
    1.2546   -1.9762    0.0000 C   0  0  0  0  0  0  0  0  0  0  0  0
    0.7025   -2.5893    0.0000 Cl  0  0  0  0  0  0  0  0  0  0  0  0
    0.9996   -1.1915    0.0000 C   0  0  0  0  0  0  0  0  0  0  0  0
    0.1927   -1.0200    0.0000 Cl  0  0  0  0  0  0  0  0  0  0  0  0
    1.5517   -0.5784    0.0000 C   0  0  0  0  0  0  0  0  0  0  0  0
    1.2967    0.2062    0.0000 Cl  0  0  0  0  0  0  0  0  0  0  0  0
    2.3586   -0.7500    0.0000 C   0  0  0  0  0  0  0  0  0  0  0  0
  2  1  1  0  0  0  0
  2  3  1  0  0  0  0
  3  4  2  0  0  0  0
  4  5  1  0  0  0  0
  4  6  1  0  0  0  0
  6  7  1  0  0  0  0
  6  8  2  0  0  0  0
  8  9  1  0  0  0  0
  9  2  2  0  0  0  0
 10  9  1  0  0  0  0
 10 11  1  0  0  0  0
 11 12  2  0  0  0  0
 12 13  1  0  0  0  0
 12 14  1  0  0  0  0
 14 15  1  0  0  0  0
 14 16  2  0  0  0  0
 16 17  1  0  0  0  0
 16 18  1  0  0  0  0
  1 18  1  0  0  0  0
 18 10  2  0  0  0  0
M  END
> <ChemID>
100237

> <CAS>
57117-31-4

> <Original_SMILES>
Clc1c(Cl)c2oc3cc(Cl)c(Cl)cc3c2cc1Cl

> <preferred_name>
2,3,4,7,8-Pentachlorodibenzofuran

> <dsstox_substance_id>
DTXSID7030066

> <dsstox_compound_id>
DTXCID5010066

> <qc_level>
DSSTox_High

> <Canonical_QSARr>
ClC1=C(Cl)C2OC3C=C(Cl)C(Cl)=CC=3C=2C=C1Cl

> <InChI_Code_QSARr>
InChI=1S/C12H3Cl5O/c13-6-1-4-5-2-8(15)10(16)11(17)12(5)18-9(4)3-7(6)14/h1-3H

> <InChI Key_QSARr>
OGBQILNBLMPPDP-UHFFFAOYSA-N

> <Salt_Solvent>


> <Salt_Solvent_ID>
0

> <MPID>
19045

> <LogKOA_Ref>
Chen,JW et al. (2001)

> <LogKOA>
10.37

> <Tr_1_Tst_0>
1

$$$$
100238
  Mrv171c012251910582D          

 19 21  0  0  0  0            999 V2000
    2.2840   -1.2589    0.0000 C   0  0  0  0  0  0  0  0  0  0  0  0
    3.0910   -1.4304    0.0000 C   0  0  0  0  0  0  0  0  0  0  0  0
    3.6430   -0.8173    0.0000 Cl  0  0  0  0  0  0  0  0  0  0  0  0
    3.3459   -2.2150    0.0000 C   0  0  0  0  0  0  0  0  0  0  0  0
    4.1529   -2.3865    0.0000 Cl  0  0  0  0  0  0  0  0  0  0  0  0
    2.7939   -2.8281    0.0000 C   0  0  0  0  0  0  0  0  0  0  0  0
    3.0488   -3.6127    0.0000 Cl  0  0  0  0  0  0  0  0  0  0  0  0
    1.9869   -2.6566    0.0000 C   0  0  0  0  0  0  0  0  0  0  0  0
    1.7320   -1.8719    0.0000 C   0  0  0  0  0  0  0  0  0  0  0  0
    0.9070   -1.8719    0.0000 C   0  0  0  0  0  0  0  0  0  0  0  0
    0.3550   -1.2589    0.0000 C   0  0  0  0  0  0  0  0  0  0  0  0
    0.6099   -0.4742    0.0000 Cl  0  0  0  0  0  0  0  0  0  0  0  0
   -0.4520   -1.4304    0.0000 C   0  0  0  0  0  0  0  0  0  0  0  0
   -1.0040   -0.8173    0.0000 Cl  0  0  0  0  0  0  0  0  0  0  0  0
   -0.7070   -2.2150    0.0000 C   0  0  0  0  0  0  0  0  0  0  0  0
   -1.5139   -2.3865    0.0000 Cl  0  0  0  0  0  0  0  0  0  0  0  0
   -0.1549   -2.8281    0.0000 C   0  0  0  0  0  0  0  0  0  0  0  0
    0.6521   -2.6566    0.0000 C   0  0  0  0  0  0  0  0  0  0  0  0
    1.3195   -3.1415    0.0000 O   0  0  0  0  0  0  0  0  0  0  0  0
  2  1  2  0  0  0  0
  2  3  1  0  0  0  0
  4  2  1  0  0  0  0
  4  5  1  0  0  0  0
  6  4  2  0  0  0  0
  6  7  1  0  0  0  0
  8  6  1  0  0  0  0
  8  9  2  0  0  0  0
  1  9  1  0  0  0  0
  9 10  1  0  0  0  0
 11 10  1  0  0  0  0
 11 12  1  0  0  0  0
 13 11  2  0  0  0  0
 13 14  1  0  0  0  0
 15 13  1  0  0  0  0
 15 16  1  0  0  0  0
 17 15  2  0  0  0  0
 18 17  1  0  0  0  0
 10 18  2  0  0  0  0
 18 19  1  0  0  0  0
 19  8  1  0  0  0  0
M  END
> <ChemID>
100238

> <CAS>
57117-44-9

> <Original_SMILES>
Clc1cc2c(oc3cc(Cl)c(Cl)c(Cl)c23)c(Cl)c1Cl

> <preferred_name>
1,2,3,6,7,8-Hexachlorodibenzofuran

> <dsstox_substance_id>
DTXSID2069155

> <dsstox_compound_id>
DTXCID0042169

> <qc_level>
Public_High

> <Canonical_QSARr>
ClC1=CC2=C(OC3C=C(Cl)C(Cl)=C(Cl)C2=3)C(Cl)=C1Cl

> <InChI_Code_QSARr>
InChI=1S/C12H2Cl6O/c13-4-1-3-7-6(2-5(14)8(15)10(7)17)19-12(3)11(18)9(4)16/h1-2H

> <InChI Key_QSARr>
JEYJJJXOFWNEHN-UHFFFAOYSA-N

> <Salt_Solvent>


> <Salt_Solvent_ID>
0

> <MPID>
19046

> <LogKOA_Ref>
Chen,JW et al. (2001)

> <LogKOA>
10.78

> <Tr_1_Tst_0>
1

$$$$
100239
  Mrv171c012251910582D          

 17 18  0  0  0  0            999 V2000
    2.4687   -1.2714    0.0000 C   0  0  0  0  0  0  0  0  0  0  0  0
    2.4687   -0.4464    0.0000 C   0  0  0  0  0  0  0  0  0  0  0  0
    1.7542   -0.0339    0.0000 C   0  0  0  0  0  0  0  0  0  0  0  0
    1.7542    0.7911    0.0000 Cl  0  0  0  0  0  0  0  0  0  0  0  0
    1.0397   -0.4464    0.0000 C   0  0  0  0  0  0  0  0  0  0  0  0
    0.3252   -0.0339    0.0000 Cl  0  0  0  0  0  0  0  0  0  0  0  0
    1.0397   -1.2714    0.0000 C   0  0  0  0  0  0  0  0  0  0  0  0
    0.3252   -1.6839    0.0000 Cl  0  0  0  0  0  0  0  0  0  0  0  0
    1.7542   -1.6839    0.0000 C   0  0  0  0  0  0  0  0  0  0  0  0
    3.1831   -1.6839    0.0000 C   0  0  0  0  0  0  0  0  0  0  0  0
    3.1831   -2.5089    0.0000 C   0  0  0  0  0  0  0  0  0  0  0  0
    3.8976   -2.9214    0.0000 C   0  0  0  0  0  0  0  0  0  0  0  0
    4.6121   -2.5089    0.0000 C   0  0  0  0  0  0  0  0  0  0  0  0
    5.3265   -2.9214    0.0000 Cl  0  0  0  0  0  0  0  0  0  0  0  0
    4.6121   -1.6839    0.0000 C   0  0  0  0  0  0  0  0  0  0  0  0
    5.3265   -1.2714    0.0000 Cl  0  0  0  0  0  0  0  0  0  0  0  0
    3.8976   -1.2714    0.0000 C   0  0  0  0  0  0  0  0  0  0  0  0
  2  1  1  0  0  0  0
  3  2  2  0  0  0  0
  3  4  1  0  0  0  0
  5  3  1  0  0  0  0
  5  6  1  0  0  0  0
  7  5  2  0  0  0  0
  7  8  1  0  0  0  0
  9  7  1  0  0  0  0
  1  9  2  0  0  0  0
  1 10  1  0  0  0  0
 11 10  1  0  0  0  0
 12 11  2  0  0  0  0
 13 12  1  0  0  0  0
 13 14  1  0  0  0  0
 15 13  2  0  0  0  0
 15 16  1  0  0  0  0
 17 15  1  0  0  0  0
 10 17  2  0  0  0  0
M  END
> <ChemID>
100239

> <CAS>
57465-28-8

> <Original_SMILES>
Clc1ccc(cc1Cl)-c1cc(Cl)c(Cl)c(Cl)c1

> <preferred_name>
3,3',4,4',5-Pentachlorobiphenyl

> <dsstox_substance_id>
DTXSID3032179

> <dsstox_compound_id>
DTXCID9012143

> <qc_level>
DSSTox_Low

> <Canonical_QSARr>
ClC1C=CC(=CC=1Cl)C1=CC(Cl)=C(Cl)C(Cl)=C1

> <InChI_Code_QSARr>
InChI=1S/C12H5Cl5/c13-8-2-1-6(3-9(8)14)7-4-10(15)12(17)11(16)5-7/h1-5H

> <InChI Key_QSARr>
REHONNLQRWTIFF-UHFFFAOYSA-N

> <Salt_Solvent>


> <Salt_Solvent_ID>
0

> <MPID>
19047

> <LogKOA_Ref>
Harner,T & Bidleman,TF (1996)

> <LogKOA>
10.35

> <Tr_1_Tst_0>
0

$$$$
100240
  Mrv171c012251910582D          

 20 22  0  0  0  0            999 V2000
    2.1452   -2.0614    0.0000 C   0  0  0  0  0  0  0  0  0  0  0  0
    2.8597   -2.4739    0.0000 O   0  0  0  0  0  0  0  0  0  0  0  0
    3.5741   -2.0614    0.0000 C   0  0  0  0  0  0  0  0  0  0  0  0
    3.5741   -1.2364    0.0000 C   0  0  0  0  0  0  0  0  0  0  0  0
    4.2886   -0.8239    0.0000 C   0  0  0  0  0  0  0  0  0  0  0  0
    4.2886    0.0011    0.0000 Cl  0  0  0  0  0  0  0  0  0  0  0  0
    5.0031   -1.2364    0.0000 C   0  0  0  0  0  0  0  0  0  0  0  0
    5.7176   -0.8239    0.0000 Cl  0  0  0  0  0  0  0  0  0  0  0  0
    5.0031   -2.0614    0.0000 C   0  0  0  0  0  0  0  0  0  0  0  0
    5.7176   -2.4739    0.0000 Cl  0  0  0  0  0  0  0  0  0  0  0  0
    4.2886   -2.4739    0.0000 C   0  0  0  0  0  0  0  0  0  0  0  0
    2.8597   -0.8239    0.0000 O   0  0  0  0  0  0  0  0  0  0  0  0
    2.1452   -1.2364    0.0000 C   0  0  0  0  0  0  0  0  0  0  0  0
    1.4307   -0.8239    0.0000 C   0  0  0  0  0  0  0  0  0  0  0  0
    0.7163   -1.2364    0.0000 C   0  0  0  0  0  0  0  0  0  0  0  0
    0.0018   -0.8239    0.0000 Cl  0  0  0  0  0  0  0  0  0  0  0  0
    0.7163   -2.0614    0.0000 C   0  0  0  0  0  0  0  0  0  0  0  0
    0.0018   -2.4739    0.0000 Cl  0  0  0  0  0  0  0  0  0  0  0  0
    1.4307   -2.4739    0.0000 C   0  0  0  0  0  0  0  0  0  0  0  0
    1.4307   -3.2989    0.0000 Cl  0  0  0  0  0  0  0  0  0  0  0  0
  2  1  1  0  0  0  0
  3  2  1  0  0  0  0
  3  4  2  0  0  0  0
  4  5  1  0  0  0  0
  5  6  1  0  0  0  0
  5  7  2  0  0  0  0
  7  8  1  0  0  0  0
  7  9  1  0  0  0  0
  9 10  1  0  0  0  0
  9 11  2  0  0  0  0
 11  3  1  0  0  0  0
 12  4  1  0  0  0  0
 13 12  1  0  0  0  0
 13  1  1  0  0  0  0
 14 13  2  0  0  0  0
 15 14  1  0  0  0  0
 15 16  1  0  0  0  0
 17 15  2  0  0  0  0
 17 18  1  0  0  0  0
 19 17  1  0  0  0  0
  1 19  2  0  0  0  0
 19 20  1  0  0  0  0
M  END
> <ChemID>
100240

> <CAS>
57653-85-7

> <Original_SMILES>
Clc1cc2Oc3c(cc(Cl)c(Cl)c3Cl)Oc2c(Cl)c1Cl

> <preferred_name>
1,2,3,6,7,8-Hexachlorodibenzo-p-dioxin

> <dsstox_substance_id>
DTXSID0023824

> <dsstox_compound_id>
DTXCID103824

> <qc_level>
DSSTox_Low

> <Canonical_QSARr>
ClC1C=C2OC3=C(C=C(Cl)C(Cl)=C3Cl)OC2=C(Cl)C=1Cl

> <InChI_Code_QSARr>
InChI=1S/C12H2Cl6O2/c13-3-1-5-11(9(17)7(3)15)20-6-2-4(14)8(16)10(18)12(6)19-5/h1-2H

> <InChI Key_QSARr>
YCLUIPQDHHPDJJ-UHFFFAOYSA-N

> <Salt_Solvent>


> <Salt_Solvent_ID>
0

> <MPID>
19048

> <LogKOA_Ref>
Chen,JW et al. (2001)

> <LogKOA>
10.97

> <Tr_1_Tst_0>
1

$$$$
100241
  Mrv171c012251910582D          

 17 19  0  0  0  0            999 V2000
    5.0714    1.5017    0.0000 Cl  0  0  0  0  0  0  0  0  0  0  0  0
    5.3264    0.7171    0.0000 C   0  0  0  0  0  0  0  0  0  0  0  0
    6.1334    0.5456    0.0000 C   0  0  0  0  0  0  0  0  0  0  0  0
    6.6854    1.1587    0.0000 Cl  0  0  0  0  0  0  0  0  0  0  0  0
    6.3883   -0.2390    0.0000 C   0  0  0  0  0  0  0  0  0  0  0  0
    5.8363   -0.8521    0.0000 C   0  0  0  0  0  0  0  0  0  0  0  0
    5.0293   -0.6806    0.0000 C   0  0  0  0  0  0  0  0  0  0  0  0
    4.7744    0.1040    0.0000 C   0  0  0  0  0  0  0  0  0  0  0  0
    3.9494    0.1040    0.0000 C   0  0  0  0  0  0  0  0  0  0  0  0
    3.3973    0.7171    0.0000 C   0  0  0  0  0  0  0  0  0  0  0  0
    2.5903    0.5456    0.0000 C   0  0  0  0  0  0  0  0  0  0  0  0
    2.0383    1.1587    0.0000 Cl  0  0  0  0  0  0  0  0  0  0  0  0
    2.3354   -0.2390    0.0000 C   0  0  0  0  0  0  0  0  0  0  0  0
    1.5284   -0.4106    0.0000 Cl  0  0  0  0  0  0  0  0  0  0  0  0
    2.8874   -0.8521    0.0000 C   0  0  0  0  0  0  0  0  0  0  0  0
    3.6944   -0.6806    0.0000 C   0  0  0  0  0  0  0  0  0  0  0  0
    4.3619   -1.1655    0.0000 O   0  0  0  0  0  0  0  0  0  0  0  0
  1  2  1  0  0  0  0
  3  2  2  0  0  0  0
  3  4  1  0  0  0  0
  5  3  1  0  0  0  0
  6  5  2  0  0  0  0
  7  6  1  0  0  0  0
  7  8  2  0  0  0  0
  2  8  1  0  0  0  0
  8  9  1  0  0  0  0
 10  9  2  0  0  0  0
 11 10  1  0  0  0  0
 11 12  1  0  0  0  0
 13 11  2  0  0  0  0
 13 14  1  0  0  0  0
 15 13  1  0  0  0  0
 16 15  2  0  0  0  0
  9 16  1  0  0  0  0
 16 17  1  0  0  0  0
 17  7  1  0  0  0  0
M  END
> <ChemID>
100241

> <CAS>
58802-20-3

> <Original_SMILES>
Clc1ccc2oc3cc(Cl)c(Cl)cc3c2c1Cl

> <preferred_name>
1,2,7,8-Tetrachlorodibenzofuran

> <dsstox_substance_id>
DTXSID60207538

> <dsstox_compound_id>
DTXCID10130029

> <qc_level>
Public_Medium

> <Canonical_QSARr>
ClC1C=C2C3=C(C=CC(Cl)=C3Cl)OC2=CC=1Cl

> <InChI_Code_QSARr>
InChI=1S/C12H4Cl4O/c13-6-1-2-9-11(12(6)16)5-3-7(14)8(15)4-10(5)17-9/h1-4H

> <InChI Key_QSARr>
JODWPAQNABOHDG-UHFFFAOYSA-N

> <Salt_Solvent>


> <Salt_Solvent_ID>
0

> <MPID>
19049

> <LogKOA_Ref>
Chen,JW et al. (2001)

> <LogKOA>
9.78

> <Tr_1_Tst_0>
1

$$$$
100243
  Mrv171c012251910582D          

 18 19  0  0  0  0            999 V2000
    5.6442   -2.6228    0.0000 Br  0  0  0  0  0  0  0  0  0  0  0  0
    4.9298   -2.2103    0.0000 C   0  0  0  0  0  0  0  0  0  0  0  0
    4.9298   -1.3853    0.0000 C   0  0  0  0  0  0  0  0  0  0  0  0
    4.2153   -0.9728    0.0000 C   0  0  0  0  0  0  0  0  0  0  0  0
    4.2153   -0.1478    0.0000 Br  0  0  0  0  0  0  0  0  0  0  0  0
    3.5008   -1.3853    0.0000 C   0  0  0  0  0  0  0  0  0  0  0  0
    2.7864   -0.9728    0.0000 O   0  0  0  0  0  0  0  0  0  0  0  0
    2.0719   -1.3853    0.0000 C   0  0  0  0  0  0  0  0  0  0  0  0
    1.3574   -0.9728    0.0000 C   0  0  0  0  0  0  0  0  0  0  0  0
    1.3574   -0.1478    0.0000 Br  0  0  0  0  0  0  0  0  0  0  0  0
    0.6429   -1.3853    0.0000 C   0  0  0  0  0  0  0  0  0  0  0  0
    0.6429   -2.2103    0.0000 C   0  0  0  0  0  0  0  0  0  0  0  0
   -0.0715   -2.6228    0.0000 Br  0  0  0  0  0  0  0  0  0  0  0  0
    1.3574   -2.6228    0.0000 C   0  0  0  0  0  0  0  0  0  0  0  0
    1.3574   -3.4478    0.0000 Br  0  0  0  0  0  0  0  0  0  0  0  0
    2.0719   -2.2103    0.0000 C   0  0  0  0  0  0  0  0  0  0  0  0
    3.5008   -2.2103    0.0000 C   0  0  0  0  0  0  0  0  0  0  0  0
    4.2153   -2.6228    0.0000 C   0  0  0  0  0  0  0  0  0  0  0  0
  1  2  1  0  0  0  0
  3  2  2  0  0  0  0
  4  3  1  0  0  0  0
  4  5  1  0  0  0  0
  6  4  2  0  0  0  0
  6  7  1  0  0  0  0
  7  8  1  0  0  0  0
  9  8  2  0  0  0  0
  9 10  1  0  0  0  0
 11  9  1  0  0  0  0
 12 11  2  0  0  0  0
 12 13  1  0  0  0  0
 14 12  1  0  0  0  0
 14 15  1  0  0  0  0
 16 14  2  0  0  0  0
  8 16  1  0  0  0  0
 17  6  1  0  0  0  0
 18 17  2  0  0  0  0
  2 18  1  0  0  0  0
M  END
> <ChemID>
100243

> <CAS>
60348-60-9

> <Original_SMILES>
Brc1cc(Br)c(cc1)Oc1cc(Br)c(Br)cc1Br

> <preferred_name>
2,2',4,4',5-Pentabromodiphenyl ether

> <dsstox_substance_id>
DTXSID9030048

> <dsstox_compound_id>
DTXCID404246

> <qc_level>
DSSTox_High

> <Canonical_QSARr>
BrC1=CC(Br)=C(C=C1)OC1C=C(Br)C(Br)=CC=1Br

> <InChI_Code_QSARr>
InChI=1S/C12H5Br5O/c13-6-1-2-11(9(16)3-6)18-12-5-8(15)7(14)4-10(12)17/h1-5H

> <InChI Key_QSARr>
WHPVYXDFIXRKLN-UHFFFAOYSA-N

> <Salt_Solvent>


> <Salt_Solvent_ID>
0

> <MPID>
19050

> <LogKOA_Ref>
Harner,T & Shoeib,M (2002)

> <LogKOA>
11.31

> <Tr_1_Tst_0>
1

$$$$
100244
  Mrv171c012251910582D          

 19 21  0  0  0  0            999 V2000
    2.1638   -1.9221    0.0000 C   0  0  0  0  0  0  0  0  0  0  0  0
    2.8313   -2.4070    0.0000 O   0  0  0  0  0  0  0  0  0  0  0  0
    3.4987   -1.9221    0.0000 C   0  0  0  0  0  0  0  0  0  0  0  0
    4.3057   -2.0936    0.0000 C   0  0  0  0  0  0  0  0  0  0  0  0
    4.8577   -1.4805    0.0000 C   0  0  0  0  0  0  0  0  0  0  0  0
    4.6028   -0.6959    0.0000 C   0  0  0  0  0  0  0  0  0  0  0  0
    3.7958   -0.5244    0.0000 C   0  0  0  0  0  0  0  0  0  0  0  0
    3.2438   -1.1375    0.0000 C   0  0  0  0  0  0  0  0  0  0  0  0
    2.4188   -1.1375    0.0000 C   0  0  0  0  0  0  0  0  0  0  0  0
    1.8667   -0.5244    0.0000 C   0  0  0  0  0  0  0  0  0  0  0  0
    1.0598   -0.6959    0.0000 C   0  0  0  0  0  0  0  0  0  0  0  0
    0.5077   -0.0828    0.0000 Cl  0  0  0  0  0  0  0  0  0  0  0  0
    0.8048   -1.4805    0.0000 C   0  0  0  0  0  0  0  0  0  0  0  0
   -0.0021   -1.6521    0.0000 Cl  0  0  0  0  0  0  0  0  0  0  0  0
    1.3569   -2.0936    0.0000 C   0  0  0  0  0  0  0  0  0  0  0  0
    1.1019   -2.8782    0.0000 Cl  0  0  0  0  0  0  0  0  0  0  0  0
    5.1548   -0.0828    0.0000 Cl  0  0  0  0  0  0  0  0  0  0  0  0
    5.6647   -1.6521    0.0000 Cl  0  0  0  0  0  0  0  0  0  0  0  0
    4.5606   -2.8782    0.0000 Cl  0  0  0  0  0  0  0  0  0  0  0  0
  2  1  1  0  0  0  0
  3  2  1  0  0  0  0
  3  4  1  0  0  0  0
  4  5  2  0  0  0  0
  5  6  1  0  0  0  0
  6  7  2  0  0  0  0
  7  8  1  0  0  0  0
  8  3  2  0  0  0  0
  9  8  1  0  0  0  0
  9  1  1  0  0  0  0
 10  9  2  0  0  0  0
 11 10  1  0  0  0  0
 11 12  1  0  0  0  0
 13 11  2  0  0  0  0
 13 14  1  0  0  0  0
 15 13  1  0  0  0  0
  1 15  2  0  0  0  0
 15 16  1  0  0  0  0
  6 17  1  0  0  0  0
  5 18  1  0  0  0  0
  4 19  1  0  0  0  0
M  END
> <ChemID>
100244

> <CAS>
60851-34-5

> <Original_SMILES>
Clc1cc2c(oc3c2cc(Cl)c(Cl)c3Cl)c(Cl)c1Cl

> <preferred_name>
2,3,4,6,7,8-Hexachlorodibenzo[b,d]furan

> <dsstox_substance_id>
DTXSID3052276

> <dsstox_compound_id>
DTXCID3030848

> <qc_level>
DSSTox_High

> <Canonical_QSARr>
ClC1C=C2C(OC3=C2C=C(Cl)C(Cl)=C3Cl)=C(Cl)C=1Cl

> <InChI_Code_QSARr>
InChI=1S/C12H2Cl6O/c13-5-1-3-4-2-6(14)8(16)10(18)12(4)19-11(3)9(17)7(5)15/h1-2H

> <InChI Key_QSARr>
XTAHLACQOVXINQ-UHFFFAOYSA-N

> <Salt_Solvent>


> <Salt_Solvent_ID>
0

> <MPID>
19051

> <LogKOA_Ref>
Chen,JW et al. (2001)

> <LogKOA>
10.87

> <Tr_1_Tst_0>
0

$$$$
100246
  Mrv171c012251910582D          

 20 22  0  0  0  0            999 V2000
    2.1631   -2.0898    0.0000 C   0  0  0  0  0  0  0  0  0  0  0  0
    2.8306   -2.5747    0.0000 O   0  0  0  0  0  0  0  0  0  0  0  0
    3.4980   -2.0898    0.0000 C   0  0  0  0  0  0  0  0  0  0  0  0
    4.3050   -2.2613    0.0000 C   0  0  0  0  0  0  0  0  0  0  0  0
    4.8570   -1.6482    0.0000 C   0  0  0  0  0  0  0  0  0  0  0  0
    4.6021   -0.8636    0.0000 C   0  0  0  0  0  0  0  0  0  0  0  0
    3.7951   -0.6921    0.0000 C   0  0  0  0  0  0  0  0  0  0  0  0
    3.2431   -1.3051    0.0000 C   0  0  0  0  0  0  0  0  0  0  0  0
    2.4181   -1.3051    0.0000 C   0  0  0  0  0  0  0  0  0  0  0  0
    1.8660   -0.6921    0.0000 C   0  0  0  0  0  0  0  0  0  0  0  0
    2.1210    0.0926    0.0000 Cl  0  0  0  0  0  0  0  0  0  0  0  0
    1.0591   -0.8636    0.0000 C   0  0  0  0  0  0  0  0  0  0  0  0
    0.5070   -0.2505    0.0000 Cl  0  0  0  0  0  0  0  0  0  0  0  0
    0.8041   -1.6482    0.0000 C   0  0  0  0  0  0  0  0  0  0  0  0
   -0.0028   -1.8197    0.0000 Cl  0  0  0  0  0  0  0  0  0  0  0  0
    1.3562   -2.2613    0.0000 C   0  0  0  0  0  0  0  0  0  0  0  0
    1.1012   -3.0459    0.0000 Cl  0  0  0  0  0  0  0  0  0  0  0  0
    5.1541   -0.2505    0.0000 Cl  0  0  0  0  0  0  0  0  0  0  0  0
    5.6640   -1.8197    0.0000 Cl  0  0  0  0  0  0  0  0  0  0  0  0
    4.5599   -3.0459    0.0000 Cl  0  0  0  0  0  0  0  0  0  0  0  0
  2  1  1  0  0  0  0
  3  2  1  0  0  0  0
  3  4  1  0  0  0  0
  4  5  2  0  0  0  0
  5  6  1  0  0  0  0
  6  7  2  0  0  0  0
  7  8  1  0  0  0  0
  8  3  2  0  0  0  0
  9  8  1  0  0  0  0
  9  1  1  0  0  0  0
 10  9  2  0  0  0  0
 10 11  1  0  0  0  0
 12 10  1  0  0  0  0
 12 13  1  0  0  0  0
 14 12  2  0  0  0  0
 14 15  1  0  0  0  0
 16 14  1  0  0  0  0
  1 16  2  0  0  0  0
 16 17  1  0  0  0  0
  6 18  1  0  0  0  0
  5 19  1  0  0  0  0
  4 20  1  0  0  0  0
M  END
> <ChemID>
100246

> <CAS>
67562-39-4

> <Original_SMILES>
Clc1cc2c(oc3c2c(Cl)c(Cl)c(Cl)c3Cl)c(Cl)c1Cl

> <preferred_name>
1,2,3,4,6,7,8-Heptachlorodibenzo[b,d]furan

> <dsstox_substance_id>
DTXSID8052350

> <dsstox_compound_id>
DTXCID8030922

> <qc_level>
DSSTox_Low

> <Canonical_QSARr>
ClC1=CC2=C(OC3C2=C(Cl)C(Cl)=C(Cl)C=3Cl)C(Cl)=C1Cl

> <InChI_Code_QSARr>
InChI=1S/C12HCl7O/c13-3-1-2-4-6(15)7(16)8(17)10(19)12(4)20-11(2)9(18)5(3)14/h1H

> <InChI Key_QSARr>
WDMKCPIVJOGHBF-UHFFFAOYSA-N

> <Salt_Solvent>


> <Salt_Solvent_ID>
0

> <MPID>
19052

> <LogKOA_Ref>
Chen,JW et al. (2001)

> <LogKOA>
11.17

> <Tr_1_Tst_0>
1

$$$$
100247
  Mrv171c012251910582D          

 14 15  0  0  0  0            999 V2000
    3.0939   -1.6514    0.0000 Cl  0  0  0  0  0  0  0  0  0  0  0  0
    3.0939   -0.8264    0.0000 C   0  0  0  0  0  0  0  0  0  0  0  0
    2.3794   -0.4139    0.0000 C   0  0  0  0  0  0  0  0  0  0  0  0
    1.6650   -0.8264    0.0000 Cl  0  0  0  0  0  0  0  0  0  0  0  0
    2.3794    0.4111    0.0000 C   0  0  0  0  0  0  0  0  0  0  0  0
    3.0939    0.8236    0.0000 C   0  0  0  0  0  0  0  0  0  0  0  0
    3.0939    1.6486    0.0000 Cl  0  0  0  0  0  0  0  0  0  0  0  0
    3.8084    0.4111    0.0000 C   0  0  0  0  0  0  0  0  0  0  0  0
    4.5228    0.8236    0.0000 C   0  0  0  0  0  0  0  0  0  0  0  0
    5.2373    0.4111    0.0000 C   0  0  0  0  0  0  0  0  0  0  0  0
    5.2373   -0.4139    0.0000 C   0  0  0  0  0  0  0  0  0  0  0  0
    4.5228   -0.8264    0.0000 C   0  0  0  0  0  0  0  0  0  0  0  0
    3.8084   -0.4139    0.0000 C   0  0  0  0  0  0  0  0  0  0  0  0
    5.9518   -0.8264    0.0000 Cl  0  0  0  0  0  0  0  0  0  0  0  0
  1  2  1  0  0  0  0
  3  2  2  0  0  0  0
  3  4  1  0  0  0  0
  5  3  1  0  0  0  0
  6  5  2  0  0  0  0
  6  7  1  0  0  0  0
  8  6  1  0  0  0  0
  8  9  1  0  0  0  0
  9 10  2  0  0  0  0
 10 11  1  0  0  0  0
 11 12  2  0  0  0  0
 12 13  1  0  0  0  0
  2 13  1  0  0  0  0
 13  8  2  0  0  0  0
 11 14  1  0  0  0  0
M  END
> <ChemID>
100247

> <CAS>
67922-21-8

> <Original_SMILES>
Clc1cc2c(cc1)c(Cl)cc(Cl)c2Cl

> <preferred_name>
Naphthalene, 1,2,4,7-tetrachloro-

> <dsstox_substance_id>
DTXSID70218135

> <dsstox_compound_id>
DTXCID90140626

> <qc_level>
Public_Medium

> <Canonical_QSARr>
ClC1C=C(Cl)C2C=CC(Cl)=CC=2C=1Cl

> <InChI_Code_QSARr>
InChI=1S/C10H4Cl4/c11-5-1-2-6-7(3-5)10(14)9(13)4-8(6)12/h1-4H

> <InChI Key_QSARr>
PWXOBMRJWBBEED-UHFFFAOYSA-N

> <Salt_Solvent>


> <Salt_Solvent_ID>
0

> <MPID>
19053

> <LogKOA_Ref>
Wania,F et al. (2002)

> <LogKOA>
8.13

> <Tr_1_Tst_0>
1

$$$$
100249
  Mrv171c012251910582D          

 19 21  0  0  0  0            999 V2000
    3.0957   -0.4040    0.0000 O   0  0  0  0  0  0  0  0  0  0  0  0
    3.7632   -0.8889    0.0000 C   0  0  0  0  0  0  0  0  0  0  0  0
    4.5702   -0.7174    0.0000 C   0  0  0  0  0  0  0  0  0  0  0  0
    5.1222   -1.3305    0.0000 C   0  0  0  0  0  0  0  0  0  0  0  0
    5.9292   -1.1590    0.0000 Cl  0  0  0  0  0  0  0  0  0  0  0  0
    4.8673   -2.1151    0.0000 C   0  0  0  0  0  0  0  0  0  0  0  0
    5.4193   -2.7282    0.0000 Cl  0  0  0  0  0  0  0  0  0  0  0  0
    4.0603   -2.2867    0.0000 C   0  0  0  0  0  0  0  0  0  0  0  0
    3.5082   -1.6736    0.0000 C   0  0  0  0  0  0  0  0  0  0  0  0
    2.6832   -1.6736    0.0000 C   0  0  0  0  0  0  0  0  0  0  0  0
    2.1312   -2.2867    0.0000 C   0  0  0  0  0  0  0  0  0  0  0  0
    2.3862   -3.0713    0.0000 Cl  0  0  0  0  0  0  0  0  0  0  0  0
    1.3242   -2.1151    0.0000 C   0  0  0  0  0  0  0  0  0  0  0  0
    0.7722   -2.7282    0.0000 Cl  0  0  0  0  0  0  0  0  0  0  0  0
    1.0693   -1.3305    0.0000 C   0  0  0  0  0  0  0  0  0  0  0  0
    0.2623   -1.1590    0.0000 Cl  0  0  0  0  0  0  0  0  0  0  0  0
    1.6213   -0.7174    0.0000 C   0  0  0  0  0  0  0  0  0  0  0  0
    1.3664    0.0672    0.0000 Cl  0  0  0  0  0  0  0  0  0  0  0  0
    2.4283   -0.8889    0.0000 C   0  0  0  0  0  0  0  0  0  0  0  0
  2  1  1  0  0  0  0
  2  3  1  0  0  0  0
  3  4  2  0  0  0  0
  4  5  1  0  0  0  0
  4  6  1  0  0  0  0
  6  7  1  0  0  0  0
  6  8  2  0  0  0  0
  8  9  1  0  0  0  0
  9  2  2  0  0  0  0
 10  9  1  0  0  0  0
 10 11  1  0  0  0  0
 11 12  1  0  0  0  0
 11 13  2  0  0  0  0
 13 14  1  0  0  0  0
 13 15  1  0  0  0  0
 15 16  1  0  0  0  0
 15 17  2  0  0  0  0
 17 18  1  0  0  0  0
 17 19  1  0  0  0  0
  1 19  1  0  0  0  0
 19 10  2  0  0  0  0
M  END
> <ChemID>
100249

> <CAS>
70648-26-9

> <Original_SMILES>
Clc1cc2c3c(oc2cc1Cl)c(Cl)c(Cl)c(Cl)c3Cl

> <preferred_name>
1,2,3,4,7,8-Hexachlorodibenzofuran

> <dsstox_substance_id>
DTXSID6029915

> <dsstox_compound_id>
DTXCID009915

> <qc_level>
DSSTox_Low

> <Canonical_QSARr>
ClC1=CC2C3=C(OC=2C=C1Cl)C(Cl)=C(Cl)C(Cl)=C3Cl

> <InChI_Code_QSARr>
InChI=1S/C12H2Cl6O/c13-4-1-3-6(2-5(4)14)19-12-7(3)8(15)9(16)10(17)11(12)18/h1-2H

> <InChI Key_QSARr>
LVYBAQIVPKCOEE-UHFFFAOYSA-N

> <Salt_Solvent>


> <Salt_Solvent_ID>
0

> <MPID>
19054

> <LogKOA_Ref>
Chen,JW et al. (2001)

> <LogKOA>
10.77

> <Tr_1_Tst_0>
1

$$$$
100250
  Mrv171c012251910582D          

 19 21  0  0  0  0            999 V2000
    2.1795   -2.1143    0.0000 C   0  0  0  0  0  0  0  0  0  0  0  0
    2.8470   -2.5992    0.0000 O   0  0  0  0  0  0  0  0  0  0  0  0
    3.5144   -2.1143    0.0000 C   0  0  0  0  0  0  0  0  0  0  0  0
    4.3214   -2.2858    0.0000 C   0  0  0  0  0  0  0  0  0  0  0  0
    4.8734   -1.6727    0.0000 C   0  0  0  0  0  0  0  0  0  0  0  0
    4.6185   -0.8881    0.0000 C   0  0  0  0  0  0  0  0  0  0  0  0
    3.8115   -0.7165    0.0000 C   0  0  0  0  0  0  0  0  0  0  0  0
    3.5566    0.0681    0.0000 Cl  0  0  0  0  0  0  0  0  0  0  0  0
    3.2595   -1.3296    0.0000 C   0  0  0  0  0  0  0  0  0  0  0  0
    2.4345   -1.3296    0.0000 C   0  0  0  0  0  0  0  0  0  0  0  0
    1.8824   -0.7165    0.0000 C   0  0  0  0  0  0  0  0  0  0  0  0
    2.1374    0.0681    0.0000 Cl  0  0  0  0  0  0  0  0  0  0  0  0
    1.0755   -0.8881    0.0000 C   0  0  0  0  0  0  0  0  0  0  0  0
    0.5234   -0.2750    0.0000 Cl  0  0  0  0  0  0  0  0  0  0  0  0
    0.8205   -1.6727    0.0000 C   0  0  0  0  0  0  0  0  0  0  0  0
    0.0136   -1.8442    0.0000 Cl  0  0  0  0  0  0  0  0  0  0  0  0
    1.3726   -2.2858    0.0000 C   0  0  0  0  0  0  0  0  0  0  0  0
    5.1705   -0.2750    0.0000 Cl  0  0  0  0  0  0  0  0  0  0  0  0
    5.6804   -1.8442    0.0000 Cl  0  0  0  0  0  0  0  0  0  0  0  0
  2  1  1  0  0  0  0
  3  2  1  0  0  0  0
  3  4  1  0  0  0  0
  4  5  2  0  0  0  0
  5  6  1  0  0  0  0
  6  7  2  0  0  0  0
  7  8  1  0  0  0  0
  7  9  1  0  0  0  0
  9  3  2  0  0  0  0
 10  9  1  0  0  0  0
 10  1  1  0  0  0  0
 11 10  2  0  0  0  0
 11 12  1  0  0  0  0
 13 11  1  0  0  0  0
 13 14  1  0  0  0  0
 15 13  2  0  0  0  0
 15 16  1  0  0  0  0
 17 15  1  0  0  0  0
  1 17  2  0  0  0  0
  6 18  1  0  0  0  0
  5 19  1  0  0  0  0
M  END
> <ChemID>
100250

> <CAS>
72918-21-9

> <Original_SMILES>
Clc1cc2oc3cc(Cl)c(Cl)c(Cl)c3c2c(Cl)c1Cl

> <preferred_name>
1,2,3,7,8,9-Hexachlorodibenzo[b,d]furan

> <dsstox_substance_id>
DTXSID9052470

> <dsstox_compound_id>
DTXCID6031043

> <qc_level>
DSSTox_Low

> <Canonical_QSARr>
ClC1C=C2OC3C=C(Cl)C(Cl)=C(Cl)C=3C2=C(Cl)C=1Cl

> <InChI_Code_QSARr>
InChI=1S/C12H2Cl6O/c13-3-1-5-7(11(17)9(3)15)8-6(19-5)2-4(14)10(16)12(8)18/h1-2H

> <InChI Key_QSARr>
PYUSJFJVDVSXIU-UHFFFAOYSA-N

> <Salt_Solvent>


> <Salt_Solvent_ID>
0

> <MPID>
19055

> <LogKOA_Ref>
Chen,JW et al. (2001)

> <LogKOA>
10.93

> <Tr_1_Tst_0>
0

$$$$
100251
  Mrv171c012251910582D          

 17 18  0  0  0  0            999 V2000
    1.4290   -2.4750    0.0000 C   0  0  0  0  0  0  0  0  0  0  0  0
    1.4290   -1.6500    0.0000 C   0  0  0  0  0  0  0  0  0  0  0  0
    0.7145   -1.2375    0.0000 C   0  0  0  0  0  0  0  0  0  0  0  0
    0.7145   -0.4125    0.0000 Cl  0  0  0  0  0  0  0  0  0  0  0  0
    0.0000   -1.6500    0.0000 C   0  0  0  0  0  0  0  0  0  0  0  0
   -0.7144   -1.2375    0.0000 C   0  0  0  0  0  0  0  0  0  0  0  0
   -0.7144   -0.4125    0.0000 C   0  0  0  0  0  0  0  0  0  0  0  0
    0.0000    0.0000    0.0000 Cl  0  0  0  0  0  0  0  0  0  0  0  0
   -1.4289    0.0000    0.0000 C   0  0  0  0  0  0  0  0  0  0  0  0
   -2.1434   -0.4125    0.0000 C   0  0  0  0  0  0  0  0  0  0  0  0
   -2.1434   -1.2375    0.0000 C   0  0  0  0  0  0  0  0  0  0  0  0
   -2.8579   -1.6500    0.0000 Cl  0  0  0  0  0  0  0  0  0  0  0  0
   -1.4289   -1.6500    0.0000 C   0  0  0  0  0  0  0  0  0  0  0  0
   -1.4289   -2.4750    0.0000 Cl  0  0  0  0  0  0  0  0  0  0  0  0
    0.0000   -2.4750    0.0000 C   0  0  0  0  0  0  0  0  0  0  0  0
   -0.7144   -2.8875    0.0000 Cl  0  0  0  0  0  0  0  0  0  0  0  0
    0.7145   -2.8875    0.0000 C   0  0  0  0  0  0  0  0  0  0  0  0
  2  1  1  0  0  0  0
  3  2  2  0  0  0  0
  3  4  1  0  0  0  0
  5  3  1  0  0  0  0
  5  6  1  0  0  0  0
  7  6  1  0  0  0  0
  7  8  1  0  0  0  0
  9  7  2  0  0  0  0
 10  9  1  0  0  0  0
 11 10  2  0  0  0  0
 11 12  1  0  0  0  0
 13 11  1  0  0  0  0
  6 13  2  0  0  0  0
 13 14  1  0  0  0  0
 15  5  2  0  0  0  0
 15 16  1  0  0  0  0
 17 15  1  0  0  0  0
  1 17  2  0  0  0  0
M  END
> <ChemID>
100251

> <CAS>
73575-54-9

> <Original_SMILES>
Clc1c(-c2c(Cl)cccc2Cl)c(Cl)ccc1Cl

> <preferred_name>
2,2',3,6,6'-Pentachlorobiphenyl

> <dsstox_substance_id>
DTXSID5074216

> <dsstox_compound_id>
DTXCID7047562

> <qc_level>
Public_High

> <Canonical_QSARr>
ClC1C=CC=C(Cl)C=1C1=C(Cl)C(Cl)=CC=C1Cl

> <InChI_Code_QSARr>
InChI=1S/C12H5Cl5/c13-6-2-1-3-7(14)10(6)11-8(15)4-5-9(16)12(11)17/h1-5H

> <InChI Key_QSARr>
QQFGAXUIQVKBKU-UHFFFAOYSA-N

> <Salt_Solvent>


> <Salt_Solvent_ID>
0

> <MPID>
19056

> <LogKOA_Ref>
Harner,T & Bidleman,TF (1996)

> <LogKOA>
8.53

> <Tr_1_Tst_0>
1

$$$$
100252
  Mrv171c012251910582D          

 19 20  0  0  0  0            999 V2000
    0.6769    1.7369    0.0000 C   0  0  0  0  0  0  0  0  0  0  0  0
   -0.0376    2.1494    0.0000 C   0  0  0  0  0  0  0  0  0  0  0  0
   -0.0376    2.9744    0.0000 Cl  0  0  0  0  0  0  0  0  0  0  0  0
   -0.7520    1.7369    0.0000 C   0  0  0  0  0  0  0  0  0  0  0  0
   -1.4665    2.1494    0.0000 Cl  0  0  0  0  0  0  0  0  0  0  0  0
   -0.7520    0.9119    0.0000 C   0  0  0  0  0  0  0  0  0  0  0  0
   -1.4665    0.4994    0.0000 Cl  0  0  0  0  0  0  0  0  0  0  0  0
   -0.0376    0.4994    0.0000 C   0  0  0  0  0  0  0  0  0  0  0  0
   -0.0376   -0.3256    0.0000 Cl  0  0  0  0  0  0  0  0  0  0  0  0
    0.6769    0.9119    0.0000 C   0  0  0  0  0  0  0  0  0  0  0  0
    1.3914    0.4994    0.0000 Cl  0  0  0  0  0  0  0  0  0  0  0  0
    1.3914    2.1494    0.0000 C   0  0  0  0  0  0  0  0  0  0  0  0
    2.1058    1.7369    0.0000 C   0  0  0  0  0  0  0  0  0  0  0  0
    2.8203    2.1494    0.0000 C   0  0  0  0  0  0  0  0  0  0  0  0
    2.8203    2.9744    0.0000 C   0  0  0  0  0  0  0  0  0  0  0  0
    3.5348    3.3869    0.0000 Cl  0  0  0  0  0  0  0  0  0  0  0  0
    2.1058    3.3869    0.0000 C   0  0  0  0  0  0  0  0  0  0  0  0
    1.3914    2.9744    0.0000 C   0  0  0  0  0  0  0  0  0  0  0  0
    0.6769    3.3869    0.0000 Cl  0  0  0  0  0  0  0  0  0  0  0  0
  2  1  1  0  0  0  0
  2  3  1  0  0  0  0
  4  2  2  0  0  0  0
  4  5  1  0  0  0  0
  6  4  1  0  0  0  0
  6  7  1  0  0  0  0
  8  6  2  0  0  0  0
  8  9  1  0  0  0  0
 10  8  1  0  0  0  0
  1 10  2  0  0  0  0
 10 11  1  0  0  0  0
  1 12  1  0  0  0  0
 13 12  1  0  0  0  0
 14 13  2  0  0  0  0
 15 14  1  0  0  0  0
 15 16  1  0  0  0  0
 17 15  2  0  0  0  0
 18 17  1  0  0  0  0
 12 18  2  0  0  0  0
 18 19  1  0  0  0  0
M  END
> <ChemID>
100252

> <CAS>
74472-47-2

> <Original_SMILES>
Clc1cc(Cl)c(cc1)-c1c(Cl)c(Cl)c(Cl)c(Cl)c1Cl

> <preferred_name>
2,2',3,4,4',5,6-Heptachlorobiphenyl

> <dsstox_substance_id>
DTXSID8074235

> <dsstox_compound_id>
DTXCID8047686

> <qc_level>
Public_High

> <Canonical_QSARr>
ClC1=CC(Cl)=C(C=C1)C1C(Cl)=C(Cl)C(Cl)=C(Cl)C=1Cl

> <InChI_Code_QSARr>
InChI=1S/C12H3Cl7/c13-4-1-2-5(6(14)3-4)7-8(15)10(17)12(19)11(18)9(7)16/h1-3H

> <InChI Key_QSARr>
DJEUXBQAKBLKPO-UHFFFAOYSA-N

> <Salt_Solvent>


> <Salt_Solvent_ID>
0

> <MPID>
19057

> <LogKOA_Ref>
Harner,T & Bidleman,TF (1996)

> <LogKOA>
10.51

> <Tr_1_Tst_0>
1

$$$$
100253
  Mrv171c012251910582D          

 18 20  0  0  0  0            999 V2000
    4.5650    1.3463    0.0000 Cl  0  0  0  0  0  0  0  0  0  0  0  0
    4.8200    0.5617    0.0000 C   0  0  0  0  0  0  0  0  0  0  0  0
    5.6269    0.3902    0.0000 C   0  0  0  0  0  0  0  0  0  0  0  0
    6.1790    1.0033    0.0000 Cl  0  0  0  0  0  0  0  0  0  0  0  0
    5.8819   -0.3944    0.0000 C   0  0  0  0  0  0  0  0  0  0  0  0
    6.6889   -0.5659    0.0000 Cl  0  0  0  0  0  0  0  0  0  0  0  0
    5.3299   -1.0075    0.0000 C   0  0  0  0  0  0  0  0  0  0  0  0
    4.5229   -0.8360    0.0000 C   0  0  0  0  0  0  0  0  0  0  0  0
    4.2679   -0.0514    0.0000 C   0  0  0  0  0  0  0  0  0  0  0  0
    3.4429   -0.0514    0.0000 C   0  0  0  0  0  0  0  0  0  0  0  0
    2.8909    0.5617    0.0000 C   0  0  0  0  0  0  0  0  0  0  0  0
    3.1458    1.3463    0.0000 Cl  0  0  0  0  0  0  0  0  0  0  0  0
    2.0839    0.3902    0.0000 C   0  0  0  0  0  0  0  0  0  0  0  0
    1.5319    1.0033    0.0000 Cl  0  0  0  0  0  0  0  0  0  0  0  0
    1.8290   -0.3944    0.0000 C   0  0  0  0  0  0  0  0  0  0  0  0
    2.3810   -1.0075    0.0000 C   0  0  0  0  0  0  0  0  0  0  0  0
    3.1880   -0.8360    0.0000 C   0  0  0  0  0  0  0  0  0  0  0  0
    3.8554   -1.3209    0.0000 O   0  0  0  0  0  0  0  0  0  0  0  0
  1  2  1  0  0  0  0
  3  2  1  0  0  0  0
  3  4  1  0  0  0  0
  5  3  2  0  0  0  0
  5  6  1  0  0  0  0
  7  5  1  0  0  0  0
  8  7  2  0  0  0  0
  8  9  1  0  0  0  0
  2  9  2  0  0  0  0
  9 10  1  0  0  0  0
 11 10  1  0  0  0  0
 11 12  1  0  0  0  0
 13 11  2  0  0  0  0
 13 14  1  0  0  0  0
 15 13  1  0  0  0  0
 16 15  2  0  0  0  0
 17 16  1  0  0  0  0
 10 17  2  0  0  0  0
 17 18  1  0  0  0  0
 18  8  1  0  0  0  0
M  END
> <ChemID>
100253

> <CAS>
83704-54-5

> <Original_SMILES>
Clc1c2c3c(ccc(Cl)c3Cl)oc2cc(Cl)c1Cl

> <preferred_name>
1,2,3,8,9-Pentachlorodibenzofuran

> <dsstox_substance_id>
DTXSID60232567

> <dsstox_compound_id>
DTXCID90155058

> <qc_level>
Public_Medium

> <Canonical_QSARr>
ClC1=C2C3=C(C=CC(Cl)=C3Cl)OC2=CC(Cl)=C1Cl

> <InChI_Code_QSARr>
InChI=1S/C12H3Cl5O/c13-4-1-2-6-8(10(4)15)9-7(18-6)3-5(14)11(16)12(9)17/h1-3H

> <InChI Key_QSARr>
NKGLWUJPCTUDEH-UHFFFAOYSA-N

> <Salt_Solvent>


> <Salt_Solvent_ID>
0

> <MPID>
19058

> <LogKOA_Ref>
Chen,JW et al. (2001)

> <LogKOA>
10.48

> <Tr_1_Tst_0>
1

$$$$
100254
  Mrv171c012251910582D          

 16 17  0  0  0  0            999 V2000
    3.0937   -1.6512    0.0000 Cl  0  0  0  0  0  0  0  0  0  0  0  0
    3.0937   -0.8262    0.0000 C   0  0  0  0  0  0  0  0  0  0  0  0
    2.3792   -0.4137    0.0000 C   0  0  0  0  0  0  0  0  0  0  0  0
    1.6647   -0.8262    0.0000 Cl  0  0  0  0  0  0  0  0  0  0  0  0
    2.3792    0.4113    0.0000 C   0  0  0  0  0  0  0  0  0  0  0  0
    3.0937    0.8238    0.0000 C   0  0  0  0  0  0  0  0  0  0  0  0
    3.0937    1.6488    0.0000 Cl  0  0  0  0  0  0  0  0  0  0  0  0
    3.8081    0.4113    0.0000 C   0  0  0  0  0  0  0  0  0  0  0  0
    4.5226    0.8238    0.0000 C   0  0  0  0  0  0  0  0  0  0  0  0
    5.2371    0.4113    0.0000 C   0  0  0  0  0  0  0  0  0  0  0  0
    5.2371   -0.4137    0.0000 C   0  0  0  0  0  0  0  0  0  0  0  0
    4.5226   -0.8262    0.0000 C   0  0  0  0  0  0  0  0  0  0  0  0
    4.5226   -1.6512    0.0000 Cl  0  0  0  0  0  0  0  0  0  0  0  0
    3.8081   -0.4137    0.0000 C   0  0  0  0  0  0  0  0  0  0  0  0
    5.9516    0.8238    0.0000 Cl  0  0  0  0  0  0  0  0  0  0  0  0
    4.5226    1.6488    0.0000 Cl  0  0  0  0  0  0  0  0  0  0  0  0
  1  2  1  0  0  0  0
  3  2  2  0  0  0  0
  3  4  1  0  0  0  0
  5  3  1  0  0  0  0
  6  5  2  0  0  0  0
  6  7  1  0  0  0  0
  8  6  1  0  0  0  0
  8  9  1  0  0  0  0
  9 10  2  0  0  0  0
 10 11  1  0  0  0  0
 11 12  2  0  0  0  0
 12 13  1  0  0  0  0
 12 14  1  0  0  0  0
  2 14  1  0  0  0  0
 14  8  2  0  0  0  0
 10 15  1  0  0  0  0
  9 16  1  0  0  0  0
M  END
> <ChemID>
100254

> <CAS>
90948-28-0

> <Original_SMILES>
Clc1cc(Cl)c(Cl)c2c1c(Cl)c(Cl)cc2Cl

> <preferred_name>
Naphthalene, 1,2,4,5,6,8-hexachloro-

> <dsstox_substance_id>
DTXSID90238330

> <dsstox_compound_id>
DTXCID10160821

> <qc_level>
Public_Medium

> <Canonical_QSARr>
ClC1C=C(Cl)C2=C(C=1Cl)C(Cl)=CC(Cl)=C2Cl

> <InChI_Code_QSARr>
InChI=1S/C10H2Cl6/c11-3-1-5(13)9(15)8-4(12)2-6(14)10(16)7(3)8/h1-2H

> <InChI Key_QSARr>
JHKLUUFTHIWTKX-UHFFFAOYSA-N

> <Salt_Solvent>


> <Salt_Solvent_ID>
0

> <MPID>
19059

> <LogKOA_Ref>
Wania,F et al. (2002)

> <LogKOA>
9.69

> <Tr_1_Tst_0>
0

$$$$
100255
  Mrv171c012251910582D          

 19 21  0  0  0  0            999 V2000
    1.8661    0.5840    0.0000 C   0  0  0  0  0  0  0  0  0  0  0  0
    2.4182    1.1971    0.0000 C   0  0  0  0  0  0  0  0  0  0  0  0
    2.1632    1.9817    0.0000 Cl  0  0  0  0  0  0  0  0  0  0  0  0
    3.2252    1.0256    0.0000 C   0  0  0  0  0  0  0  0  0  0  0  0
    3.7772    1.6387    0.0000 Cl  0  0  0  0  0  0  0  0  0  0  0  0
    3.4801    0.2410    0.0000 C   0  0  0  0  0  0  0  0  0  0  0  0
    4.2871    0.0694    0.0000 Cl  0  0  0  0  0  0  0  0  0  0  0  0
    2.9281   -0.3721    0.0000 C   0  0  0  0  0  0  0  0  0  0  0  0
    3.1830   -1.1567    0.0000 Cl  0  0  0  0  0  0  0  0  0  0  0  0
    2.1211   -0.2006    0.0000 C   0  0  0  0  0  0  0  0  0  0  0  0
    1.4536   -0.6855    0.0000 O   0  0  0  0  0  0  0  0  0  0  0  0
    0.7862   -0.2006    0.0000 C   0  0  0  0  0  0  0  0  0  0  0  0
   -0.0208   -0.3721    0.0000 C   0  0  0  0  0  0  0  0  0  0  0  0
   -0.5728    0.2410    0.0000 C   0  0  0  0  0  0  0  0  0  0  0  0
   -0.3179    1.0256    0.0000 C   0  0  0  0  0  0  0  0  0  0  0  0
   -0.8699    1.6387    0.0000 Cl  0  0  0  0  0  0  0  0  0  0  0  0
    0.4891    1.1971    0.0000 C   0  0  0  0  0  0  0  0  0  0  0  0
    0.7441    1.9817    0.0000 Cl  0  0  0  0  0  0  0  0  0  0  0  0
    1.0411    0.5840    0.0000 C   0  0  0  0  0  0  0  0  0  0  0  0
  2  1  1  0  0  0  0
  2  3  1  0  0  0  0
  4  2  2  0  0  0  0
  4  5  1  0  0  0  0
  6  4  1  0  0  0  0
  6  7  1  0  0  0  0
  8  6  2  0  0  0  0
  8  9  1  0  0  0  0
 10  8  1  0  0  0  0
 10  1  2  0  0  0  0
 11 10  1  0  0  0  0
 12 11  1  0  0  0  0
 12 13  1  0  0  0  0
 13 14  2  0  0  0  0
 14 15  1  0  0  0  0
 15 16  1  0  0  0  0
 15 17  2  0  0  0  0
 17 18  1  0  0  0  0
 17 19  1  0  0  0  0
  1 19  1  0  0  0  0
 19 12  2  0  0  0  0
M  END
> <ChemID>
100255

> <CAS>
92341-07-6

> <Original_SMILES>
Clc1ccc2oc3c(c2c1Cl)c(Cl)c(Cl)c(Cl)c3Cl

> <preferred_name>
Dibenzofuran, 1,2,3,4,8,9-hexachloro-

> <dsstox_substance_id>
DTXSID1075276

> <dsstox_compound_id>
DTXCID2048793

> <qc_level>
Public_High

> <Canonical_QSARr>
ClC1C=CC2OC3=C(C=2C=1Cl)C(Cl)=C(Cl)C(Cl)=C3Cl

> <InChI_Code_QSARr>
InChI=1S/C12H2Cl6O/c13-3-1-2-4-5(7(3)14)6-8(15)9(16)10(17)11(18)12(6)19-4/h1-2H

> <InChI Key_QSARr>
VSDUQUBUJRNREH-UHFFFAOYSA-N

> <Salt_Solvent>


> <Salt_Solvent_ID>
0

> <MPID>
19060

> <LogKOA_Ref>
Chen,JW et al. (2001)

> <LogKOA>
10.95

> <Tr_1_Tst_0>
1

$$$$
100256
  Mrv171c012251910582D          

 16 17  0  0  0  0            999 V2000
    3.0937   -1.6512    0.0000 Cl  0  0  0  0  0  0  0  0  0  0  0  0
    3.0937   -0.8262    0.0000 C   0  0  0  0  0  0  0  0  0  0  0  0
    2.3792   -0.4137    0.0000 C   0  0  0  0  0  0  0  0  0  0  0  0
    1.6647   -0.8262    0.0000 Cl  0  0  0  0  0  0  0  0  0  0  0  0
    2.3792    0.4113    0.0000 C   0  0  0  0  0  0  0  0  0  0  0  0
    1.6647    0.8238    0.0000 Cl  0  0  0  0  0  0  0  0  0  0  0  0
    3.0937    0.8238    0.0000 C   0  0  0  0  0  0  0  0  0  0  0  0
    3.8081    0.4113    0.0000 C   0  0  0  0  0  0  0  0  0  0  0  0
    4.5226    0.8238    0.0000 C   0  0  0  0  0  0  0  0  0  0  0  0
    5.2371    0.4113    0.0000 C   0  0  0  0  0  0  0  0  0  0  0  0
    5.2371   -0.4137    0.0000 C   0  0  0  0  0  0  0  0  0  0  0  0
    4.5226   -0.8262    0.0000 C   0  0  0  0  0  0  0  0  0  0  0  0
    4.5226   -1.6512    0.0000 Cl  0  0  0  0  0  0  0  0  0  0  0  0
    3.8081   -0.4137    0.0000 C   0  0  0  0  0  0  0  0  0  0  0  0
    5.9516   -0.8262    0.0000 Cl  0  0  0  0  0  0  0  0  0  0  0  0
    4.5226    1.6488    0.0000 Cl  0  0  0  0  0  0  0  0  0  0  0  0
  1  2  1  0  0  0  0
  3  2  1  0  0  0  0
  3  4  1  0  0  0  0
  5  3  2  0  0  0  0
  5  6  1  0  0  0  0
  7  5  1  0  0  0  0
  8  7  2  0  0  0  0
  8  9  1  0  0  0  0
  9 10  2  0  0  0  0
 10 11  1  0  0  0  0
 11 12  2  0  0  0  0
 12 13  1  0  0  0  0
 12 14  1  0  0  0  0
  2 14  2  0  0  0  0
 14  8  1  0  0  0  0
 11 15  1  0  0  0  0
  9 16  1  0  0  0  0
M  END
> <ChemID>
100256

> <CAS>
103426-94-4

> <Original_SMILES>
Clc1cc2c(c(Cl)c1Cl)c(Cl)c(Cl)cc2Cl

> <preferred_name>
Naphthalene, 1,2,3,5,7,8-hexachloro-

> <dsstox_substance_id>
DTXSID90145833

> <dsstox_compound_id>
DTXCID9068324

> <qc_level>
Public_Medium

> <Canonical_QSARr>
ClC1C=C2C(C(Cl)=C(Cl)C=C2Cl)=C(Cl)C=1Cl

> <InChI_Code_QSARr>
InChI=1S/C10H2Cl6/c11-4-2-6(13)8(14)7-3(4)1-5(12)9(15)10(7)16/h1-2H

> <InChI Key_QSARr>
JPQLLIUTUFJWMH-UHFFFAOYSA-N

> <Salt_Solvent>


> <Salt_Solvent_ID>
0

> <MPID>
19061

> <LogKOA_Ref>
Wania,F et al. (2002)

> <LogKOA>
9.67

> <Tr_1_Tst_0>
1

$$$$
100257
  Mrv171c012251910582D          

 16 17  0  0  0  0            999 V2000
    2.3248   -1.2429    0.0000 C   0  0  0  0  0  0  0  0  0  0  0  0
    1.6103   -0.8304    0.0000 C   0  0  0  0  0  0  0  0  0  0  0  0
    1.6103   -0.0054    0.0000 Cl  0  0  0  0  0  0  0  0  0  0  0  0
    0.8959   -1.2429    0.0000 C   0  0  0  0  0  0  0  0  0  0  0  0
    0.1814   -0.8304    0.0000 Cl  0  0  0  0  0  0  0  0  0  0  0  0
    0.8959   -2.0679    0.0000 C   0  0  0  0  0  0  0  0  0  0  0  0
    0.1814   -2.4804    0.0000 Cl  0  0  0  0  0  0  0  0  0  0  0  0
    1.6103   -2.4804    0.0000 C   0  0  0  0  0  0  0  0  0  0  0  0
    1.6103   -3.3054    0.0000 Cl  0  0  0  0  0  0  0  0  0  0  0  0
    2.3248   -2.0679    0.0000 C   0  0  0  0  0  0  0  0  0  0  0  0
    3.0393   -2.4804    0.0000 C   0  0  0  0  0  0  0  0  0  0  0  0
    3.7538   -2.0679    0.0000 C   0  0  0  0  0  0  0  0  0  0  0  0
    4.4682   -2.4804    0.0000 Cl  0  0  0  0  0  0  0  0  0  0  0  0
    3.7538   -1.2429    0.0000 C   0  0  0  0  0  0  0  0  0  0  0  0
    4.4682   -0.8304    0.0000 Cl  0  0  0  0  0  0  0  0  0  0  0  0
    3.0393   -0.8304    0.0000 C   0  0  0  0  0  0  0  0  0  0  0  0
  2  1  1  0  0  0  0
  2  3  1  0  0  0  0
  4  2  2  0  0  0  0
  4  5  1  0  0  0  0
  6  4  1  0  0  0  0
  6  7  1  0  0  0  0
  8  6  2  0  0  0  0
  8  9  1  0  0  0  0
 10  8  1  0  0  0  0
 10  1  2  0  0  0  0
 11 10  1  0  0  0  0
 12 11  2  0  0  0  0
 12 13  1  0  0  0  0
 14 12  1  0  0  0  0
 14 15  1  0  0  0  0
 16 14  2  0  0  0  0
  1 16  1  0  0  0  0
M  END
> <ChemID>
100257

> <CAS>
103426-96-6

> <Original_SMILES>
Clc1cc2c(cc1Cl)c(Cl)c(Cl)c(Cl)c2Cl

> <preferred_name>
1,2,3,4,6,7-Hexachloronaphthalene

> <dsstox_substance_id>
DTXSID6036885

> <dsstox_compound_id>
DTXCID4016885

> <qc_level>
DSSTox_Low

> <Canonical_QSARr>
ClC1=CC2=C(C=C1Cl)C(Cl)=C(Cl)C(Cl)=C2Cl

> <InChI_Code_QSARr>
InChI=1S/C10H2Cl6/c11-5-1-3-4(2-6(5)12)8(14)10(16)9(15)7(3)13/h1-2H

> <InChI Key_QSARr>
ZRNSVEOEIWQEMU-UHFFFAOYSA-N

> <Salt_Solvent>


> <Salt_Solvent_ID>
0

> <MPID>
19062

> <LogKOA_Ref>
Wania,F et al. (2002)

> <LogKOA>
9.58

> <Tr_1_Tst_0>
1

$$$$
100258
  Mrv171c012251910582D          

 16 17  0  0  0  0            999 V2000
    2.1366   -1.2387    0.0000 C   0  0  0  0  0  0  0  0  0  0  0  0
    1.4222   -0.8262    0.0000 C   0  0  0  0  0  0  0  0  0  0  0  0
    0.7077   -1.2387    0.0000 C   0  0  0  0  0  0  0  0  0  0  0  0
   -0.0068   -0.8262    0.0000 Cl  0  0  0  0  0  0  0  0  0  0  0  0
    0.7077   -2.0637    0.0000 C   0  0  0  0  0  0  0  0  0  0  0  0
   -0.0068   -2.4762    0.0000 Cl  0  0  0  0  0  0  0  0  0  0  0  0
    1.4222   -2.4762    0.0000 C   0  0  0  0  0  0  0  0  0  0  0  0
    1.4222   -3.3012    0.0000 Cl  0  0  0  0  0  0  0  0  0  0  0  0
    2.1366   -2.0637    0.0000 C   0  0  0  0  0  0  0  0  0  0  0  0
    2.8511   -2.4762    0.0000 C   0  0  0  0  0  0  0  0  0  0  0  0
    3.5656   -2.0637    0.0000 C   0  0  0  0  0  0  0  0  0  0  0  0
    4.2801   -2.4762    0.0000 Cl  0  0  0  0  0  0  0  0  0  0  0  0
    3.5656   -1.2387    0.0000 C   0  0  0  0  0  0  0  0  0  0  0  0
    4.2801   -0.8262    0.0000 Cl  0  0  0  0  0  0  0  0  0  0  0  0
    2.8511   -0.8262    0.0000 C   0  0  0  0  0  0  0  0  0  0  0  0
    2.8511   -0.0012    0.0000 Cl  0  0  0  0  0  0  0  0  0  0  0  0
  2  1  1  0  0  0  0
  3  2  2  0  0  0  0
  3  4  1  0  0  0  0
  5  3  1  0  0  0  0
  5  6  1  0  0  0  0
  7  5  2  0  0  0  0
  7  8  1  0  0  0  0
  9  7  1  0  0  0  0
  9  1  2  0  0  0  0
 10  9  1  0  0  0  0
 11 10  2  0  0  0  0
 11 12  1  0  0  0  0
 13 11  1  0  0  0  0
 13 14  1  0  0  0  0
 15 13  2  0  0  0  0
  1 15  1  0  0  0  0
 15 16  1  0  0  0  0
M  END
> <ChemID>
100258

> <CAS>
103426-97-7

> <Original_SMILES>
Clc1cc2c(cc(Cl)c(Cl)c2Cl)c(Cl)c1Cl

> <preferred_name>
1,2,3,5,6,7-Hexachloronaphthalene

> <dsstox_substance_id>
DTXSID1036886

> <dsstox_compound_id>
DTXCID4011837

> <qc_level>
DSSTox_Low

> <Canonical_QSARr>
ClC1=CC2=C(C=C(Cl)C(Cl)=C2Cl)C(Cl)=C1Cl

> <InChI_Code_QSARr>
InChI=1S/C10H2Cl6/c11-5-1-3-4(8(14)9(5)15)2-6(12)10(16)7(3)13/h1-2H

> <InChI Key_QSARr>
XZLJCGGEQLNWDT-UHFFFAOYSA-N

> <Salt_Solvent>


> <Salt_Solvent_ID>
0

> <MPID>
19063

> <LogKOA_Ref>
Wania,F et al. (2002)

> <LogKOA>
9.58

> <Tr_1_Tst_0>
0

$$$$
100259
  Mrv171c012251910582D          

 15 16  0  0  0  0            999 V2000
    3.0910   -1.6500    0.0000 Cl  0  0  0  0  0  0  0  0  0  0  0  0
    3.0910   -0.8250    0.0000 C   0  0  0  0  0  0  0  0  0  0  0  0
    2.3766   -0.4125    0.0000 C   0  0  0  0  0  0  0  0  0  0  0  0
    1.6621   -0.8250    0.0000 Cl  0  0  0  0  0  0  0  0  0  0  0  0
    2.3766    0.4125    0.0000 C   0  0  0  0  0  0  0  0  0  0  0  0
    1.6621    0.8250    0.0000 Cl  0  0  0  0  0  0  0  0  0  0  0  0
    3.0910    0.8250    0.0000 C   0  0  0  0  0  0  0  0  0  0  0  0
    3.8055    0.4125    0.0000 C   0  0  0  0  0  0  0  0  0  0  0  0
    4.5200    0.8250    0.0000 C   0  0  0  0  0  0  0  0  0  0  0  0
    5.2345    0.4125    0.0000 C   0  0  0  0  0  0  0  0  0  0  0  0
    5.2345   -0.4125    0.0000 C   0  0  0  0  0  0  0  0  0  0  0  0
    4.5200   -0.8250    0.0000 C   0  0  0  0  0  0  0  0  0  0  0  0
    4.5200   -1.6500    0.0000 Cl  0  0  0  0  0  0  0  0  0  0  0  0
    3.8055   -0.4125    0.0000 C   0  0  0  0  0  0  0  0  0  0  0  0
    4.5200    1.6500    0.0000 Cl  0  0  0  0  0  0  0  0  0  0  0  0
  1  2  1  0  0  0  0
  3  2  2  0  0  0  0
  3  4  1  0  0  0  0
  5  3  1  0  0  0  0
  5  6  1  0  0  0  0
  7  5  2  0  0  0  0
  8  7  1  0  0  0  0
  8  9  2  0  0  0  0
  9 10  1  0  0  0  0
 10 11  2  0  0  0  0
 11 12  1  0  0  0  0
 12 13  1  0  0  0  0
 12 14  2  0  0  0  0
  2 14  1  0  0  0  0
 14  8  1  0  0  0  0
  9 15  1  0  0  0  0
M  END
> <ChemID>
100259

> <CAS>
150224-24-1

> <Original_SMILES>
Clc1cc2c(c(Cl)c1Cl)c(Cl)ccc2Cl

> <preferred_name>
Naphthalene, 1,2,3,5,8-pentachloro-

> <dsstox_substance_id>
DTXSID70164507

> <dsstox_compound_id>
DTXCID3086998

> <qc_level>
Public_Medium

> <Canonical_QSARr>
ClC1C=CC(Cl)=C2C=C(Cl)C(Cl)=C(Cl)C=12

> <InChI_Code_QSARr>
InChI=1S/C10H3Cl5/c11-5-1-2-6(12)8-4(5)3-7(13)9(14)10(8)15/h1-3H

> <InChI Key_QSARr>
HVYRFNJXZVEGFK-UHFFFAOYSA-N

> <Salt_Solvent>


> <Salt_Solvent_ID>
0

> <MPID>
19064

> <LogKOA_Ref>
Wania,F et al. (2002)

> <LogKOA>
9.1

> <Tr_1_Tst_0>
1

$$$$
100260
  Mrv171c012251910582D          

 18 19  0  0  0  0            999 V2000
    3.4854   -4.5857    0.0000 Br  0  0  0  0  0  0  0  0  0  0  0  0
    3.4854   -3.7607    0.0000 C   0  0  0  0  0  0  0  0  0  0  0  0
    4.1999   -3.3482    0.0000 C   0  0  0  0  0  0  0  0  0  0  0  0
    4.1999   -2.5232    0.0000 C   0  0  0  0  0  0  0  0  0  0  0  0
    3.4854   -2.1107    0.0000 C   0  0  0  0  0  0  0  0  0  0  0  0
    3.4854   -1.2857    0.0000 O   0  0  0  0  0  0  0  0  0  0  0  0
    2.7709   -0.8732    0.0000 C   0  0  0  0  0  0  0  0  0  0  0  0
    2.7709   -0.0482    0.0000 C   0  0  0  0  0  0  0  0  0  0  0  0
    3.4854    0.3643    0.0000 Br  0  0  0  0  0  0  0  0  0  0  0  0
    2.0564    0.3643    0.0000 C   0  0  0  0  0  0  0  0  0  0  0  0
    2.0564    1.1893    0.0000 Br  0  0  0  0  0  0  0  0  0  0  0  0
    1.3420   -0.0482    0.0000 C   0  0  0  0  0  0  0  0  0  0  0  0
    0.6275    0.3643    0.0000 Br  0  0  0  0  0  0  0  0  0  0  0  0
    1.3420   -0.8732    0.0000 C   0  0  0  0  0  0  0  0  0  0  0  0
    2.0564   -1.2857    0.0000 C   0  0  0  0  0  0  0  0  0  0  0  0
    2.7709   -2.5232    0.0000 C   0  0  0  0  0  0  0  0  0  0  0  0
    2.0564   -2.1107    0.0000 Br  0  0  0  0  0  0  0  0  0  0  0  0
    2.7709   -3.3482    0.0000 C   0  0  0  0  0  0  0  0  0  0  0  0
  1  2  1  0  0  0  0
  3  2  2  0  0  0  0
  4  3  1  0  0  0  0
  5  4  2  0  0  0  0
  5  6  1  0  0  0  0
  6  7  1  0  0  0  0
  8  7  2  0  0  0  0
  8  9  1  0  0  0  0
 10  8  1  0  0  0  0
 10 11  1  0  0  0  0
 12 10  2  0  0  0  0
 12 13  1  0  0  0  0
 14 12  1  0  0  0  0
 15 14  2  0  0  0  0
  7 15  1  0  0  0  0
 16  5  1  0  0  0  0
 16 17  1  0  0  0  0
 18 16  2  0  0  0  0
  2 18  1  0  0  0  0
M  END
> <ChemID>
100260

> <CAS>
182346-21-0

> <Original_SMILES>
Brc1cc(Br)c(cc1)Oc1ccc(Br)c(Br)c1Br

> <preferred_name>
2,2',3,4,4'-Pentabromodiphenyl ether (BDE 85)

> <dsstox_substance_id>
DTXSID4052685

> <dsstox_compound_id>
DTXCID8031283

> <qc_level>
DSSTox_High

> <Canonical_QSARr>
BrC1C=CC(OC2=CC=C(Br)C=C2Br)=C(Br)C=1Br

> <InChI_Code_QSARr>
InChI=1S/C12H5Br5O/c13-6-1-3-9(8(15)5-6)18-10-4-2-7(14)11(16)12(10)17/h1-5H

> <InChI Key_QSARr>
DMLQSUZPTTUUDP-UHFFFAOYSA-N

> <Salt_Solvent>


> <Salt_Solvent_ID>
0

> <MPID>
19065

> <LogKOA_Ref>
Harner,T & Shoeib,M (2002)

> <LogKOA>
11.66

> <Tr_1_Tst_0>
1

$$$$
100271
  Mrv171c012251910582D          

 13 14  0  0  0  0            999 V2000
    3.0919   -1.6621    0.0000 Cl  0  0  0  0  0  0  0  0  0  0  0  0
    3.0919   -0.8371    0.0000 C   0  0  0  0  0  0  0  0  0  0  0  0
    2.3774   -0.4246    0.0000 C   0  0  0  0  0  0  0  0  0  0  0  0
    1.6629   -0.8371    0.0000 Cl  0  0  0  0  0  0  0  0  0  0  0  0
    2.3774    0.4004    0.0000 C   0  0  0  0  0  0  0  0  0  0  0  0
    3.0919    0.8129    0.0000 C   0  0  0  0  0  0  0  0  0  0  0  0
    3.8063    0.4004    0.0000 C   0  0  0  0  0  0  0  0  0  0  0  0
    4.5208    0.8129    0.0000 C   0  0  0  0  0  0  0  0  0  0  0  0
    5.2353    0.4004    0.0000 C   0  0  0  0  0  0  0  0  0  0  0  0
    5.2353   -0.4246    0.0000 C   0  0  0  0  0  0  0  0  0  0  0  0
    4.5208   -0.8371    0.0000 C   0  0  0  0  0  0  0  0  0  0  0  0
    3.8063   -0.4246    0.0000 C   0  0  0  0  0  0  0  0  0  0  0  0
    4.5208    1.6379    0.0000 Cl  0  0  0  0  0  0  0  0  0  0  0  0
  1  2  1  0  0  0  0
  3  2  2  0  0  0  0
  3  4  1  0  0  0  0
  5  3  1  0  0  0  0
  6  5  2  0  0  0  0
  7  6  1  0  0  0  0
  7  8  1  0  0  0  0
  8  9  2  0  0  0  0
  9 10  1  0  0  0  0
 10 11  2  0  0  0  0
 11 12  1  0  0  0  0
  2 12  1  0  0  0  0
 12  7  2  0  0  0  0
  8 13  1  0  0  0  0
M  END
> <ChemID>
100271

> <CAS>
55720-33-7

> <Original_SMILES>
Clc1cccc2c1ccc(Cl)c2Cl

> <preferred_name>
Naphthalene, 1,2,5-trichloro-

> <dsstox_substance_id>
DTXSID10204259

> <dsstox_compound_id>
DTXCID60126750

> <qc_level>
Public_Medium

> <Canonical_QSARr>
ClC1C=CC2=C(C=CC=C2Cl)C=1Cl

> <InChI_Code_QSARr>
InChI=1S/C10H5Cl3/c11-8-3-1-2-7-6(8)4-5-9(12)10(7)13/h1-5H

> <InChI Key_QSARr>
MMHZKSMAFILONG-UHFFFAOYSA-N

> <Salt_Solvent>


> <Salt_Solvent_ID>
0

> <MPID>
19066

> <LogKOA_Ref>
Su,Y et al. (2002)

> <LogKOA>
7.5

> <Tr_1_Tst_0>
1

$$$$
100272
  Mrv171c012251910582D          

 13 14  0  0  0  0            999 V2000
    3.0951   -1.2503    0.0000 Cl  0  0  0  0  0  0  0  0  0  0  0  0
    3.0951   -0.4253    0.0000 C   0  0  0  0  0  0  0  0  0  0  0  0
    2.3806   -0.0128    0.0000 C   0  0  0  0  0  0  0  0  0  0  0  0
    1.6661   -0.4253    0.0000 Cl  0  0  0  0  0  0  0  0  0  0  0  0
    2.3806    0.8122    0.0000 C   0  0  0  0  0  0  0  0  0  0  0  0
    3.0951    1.2247    0.0000 C   0  0  0  0  0  0  0  0  0  0  0  0
    3.8095    0.8122    0.0000 C   0  0  0  0  0  0  0  0  0  0  0  0
    4.5240    1.2247    0.0000 C   0  0  0  0  0  0  0  0  0  0  0  0
    5.2385    0.8122    0.0000 C   0  0  0  0  0  0  0  0  0  0  0  0
    5.2385   -0.0128    0.0000 C   0  0  0  0  0  0  0  0  0  0  0  0
    4.5240   -0.4253    0.0000 C   0  0  0  0  0  0  0  0  0  0  0  0
    3.8095   -0.0128    0.0000 C   0  0  0  0  0  0  0  0  0  0  0  0
    5.9530    1.2247    0.0000 Cl  0  0  0  0  0  0  0  0  0  0  0  0
  1  2  1  0  0  0  0
  3  2  2  0  0  0  0
  3  4  1  0  0  0  0
  5  3  1  0  0  0  0
  6  5  2  0  0  0  0
  7  6  1  0  0  0  0
  7  8  1  0  0  0  0
  8  9  2  0  0  0  0
  9 10  1  0  0  0  0
 10 11  2  0  0  0  0
 11 12  1  0  0  0  0
  2 12  1  0  0  0  0
 12  7  2  0  0  0  0
  9 13  1  0  0  0  0
M  END
> <ChemID>
100272

> <CAS>
51570-44-6

> <Original_SMILES>
Clc1cc2ccc(Cl)c(Cl)c2cc1

> <preferred_name>
Naphthalene, 1,2,6-trichloro-

> <dsstox_substance_id>
DTXSID00199524

> <dsstox_compound_id>
DTXCID60122015

> <qc_level>
Public_Medium

> <Canonical_QSARr>
ClC1=CC2C=CC(Cl)=C(Cl)C=2C=C1

> <InChI_Code_QSARr>
InChI=1S/C10H5Cl3/c11-7-2-3-8-6(5-7)1-4-9(12)10(8)13/h1-5H

> <InChI Key_QSARr>
AAUJSCRITBXDJH-UHFFFAOYSA-N

> <Salt_Solvent>


> <Salt_Solvent_ID>
0

> <MPID>
19067

> <LogKOA_Ref>
Su,Y et al. (2002)

> <LogKOA>
7.5

> <Tr_1_Tst_0>
0

$$$$
100273
  Mrv171c012251910582D          

 13 14  0  0  0  0            999 V2000
    3.0951   -1.2533    0.0000 Cl  0  0  0  0  0  0  0  0  0  0  0  0
    3.0951   -0.4283    0.0000 C   0  0  0  0  0  0  0  0  0  0  0  0
    2.3806   -0.0158    0.0000 C   0  0  0  0  0  0  0  0  0  0  0  0
    1.6661   -0.4283    0.0000 Cl  0  0  0  0  0  0  0  0  0  0  0  0
    2.3806    0.8092    0.0000 C   0  0  0  0  0  0  0  0  0  0  0  0
    3.0951    1.2217    0.0000 C   0  0  0  0  0  0  0  0  0  0  0  0
    3.8095    0.8092    0.0000 C   0  0  0  0  0  0  0  0  0  0  0  0
    4.5240    1.2217    0.0000 C   0  0  0  0  0  0  0  0  0  0  0  0
    5.2385    0.8092    0.0000 C   0  0  0  0  0  0  0  0  0  0  0  0
    5.2385   -0.0158    0.0000 C   0  0  0  0  0  0  0  0  0  0  0  0
    4.5240   -0.4283    0.0000 C   0  0  0  0  0  0  0  0  0  0  0  0
    3.8095   -0.0158    0.0000 C   0  0  0  0  0  0  0  0  0  0  0  0
    5.9530   -0.4283    0.0000 Cl  0  0  0  0  0  0  0  0  0  0  0  0
  1  2  1  0  0  0  0
  3  2  2  0  0  0  0
  3  4  1  0  0  0  0
  5  3  1  0  0  0  0
  6  5  2  0  0  0  0
  7  6  1  0  0  0  0
  7  8  1  0  0  0  0
  8  9  2  0  0  0  0
  9 10  1  0  0  0  0
 10 11  2  0  0  0  0
 11 12  1  0  0  0  0
  2 12  1  0  0  0  0
 12  7  2  0  0  0  0
 10 13  1  0  0  0  0
M  END
> <ChemID>
100273

> <CAS>
55720-34-8

> <Original_SMILES>
Clc1cc2c(cc1)ccc(Cl)c2Cl

> <preferred_name>
Naphthalene, 1,2,7-trichloro-

> <dsstox_substance_id>
DTXSID20204260

> <dsstox_compound_id>
DTXCID20126751

> <qc_level>
Public_Medium

> <Canonical_QSARr>
ClC1=CC2=C(C=C1)C=CC(Cl)=C2Cl

> <InChI_Code_QSARr>
InChI=1S/C10H5Cl3/c11-7-3-1-6-2-4-9(12)10(13)8(6)5-7/h1-5H

> <InChI Key_QSARr>
QYYUVUXSJZJCLQ-UHFFFAOYSA-N

> <Salt_Solvent>


> <Salt_Solvent_ID>
0

> <MPID>
19068

> <LogKOA_Ref>
Su,Y et al. (2002)

> <LogKOA>
7.5

> <Tr_1_Tst_0>
1

$$$$
100274
  Mrv171c012251910582D          

 13 14  0  0  0  0            999 V2000
    2.5423   -1.2397    0.0000 Cl  0  0  0  0  0  0  0  0  0  0  0  0
    2.5423   -0.4147    0.0000 C   0  0  0  0  0  0  0  0  0  0  0  0
    1.8278   -0.0022    0.0000 C   0  0  0  0  0  0  0  0  0  0  0  0
    1.8278    0.8228    0.0000 C   0  0  0  0  0  0  0  0  0  0  0  0
    2.5423    1.2353    0.0000 C   0  0  0  0  0  0  0  0  0  0  0  0
    3.2567    0.8228    0.0000 C   0  0  0  0  0  0  0  0  0  0  0  0
    3.9712    1.2353    0.0000 C   0  0  0  0  0  0  0  0  0  0  0  0
    4.6857    0.8228    0.0000 C   0  0  0  0  0  0  0  0  0  0  0  0
    4.6857   -0.0022    0.0000 C   0  0  0  0  0  0  0  0  0  0  0  0
    3.9712   -0.4147    0.0000 C   0  0  0  0  0  0  0  0  0  0  0  0
    3.2567   -0.0022    0.0000 C   0  0  0  0  0  0  0  0  0  0  0  0
    5.4002   -0.4147    0.0000 Cl  0  0  0  0  0  0  0  0  0  0  0  0
    5.4002    1.2353    0.0000 Cl  0  0  0  0  0  0  0  0  0  0  0  0
  1  2  1  0  0  0  0
  3  2  2  0  0  0  0
  4  3  1  0  0  0  0
  5  4  2  0  0  0  0
  6  5  1  0  0  0  0
  6  7  2  0  0  0  0
  7  8  1  0  0  0  0
  8  9  2  0  0  0  0
  9 10  1  0  0  0  0
 10 11  2  0  0  0  0
  2 11  1  0  0  0  0
 11  6  1  0  0  0  0
  9 12  1  0  0  0  0
  8 13  1  0  0  0  0
M  END
> <ChemID>
100274

> <CAS>
55720-39-3

> <Original_SMILES>
Clc1cccc2cc(Cl)c(Cl)cc12

> <preferred_name>
Naphthalene, 1,6,7-trichloro-

> <dsstox_substance_id>
DTXSID20204265

> <dsstox_compound_id>
DTXCID20126756

> <qc_level>
Public_Medium

> <Canonical_QSARr>
ClC1C=C2C(=CC=1Cl)C=CC=C2Cl

> <InChI_Code_QSARr>
InChI=1S/C10H5Cl3/c11-8-3-1-2-6-4-9(12)10(13)5-7(6)8/h1-5H

> <InChI Key_QSARr>
FUEZTEBYLIMNHN-UHFFFAOYSA-N

> <Salt_Solvent>


> <Salt_Solvent_ID>
0

> <MPID>
19069

> <LogKOA_Ref>
Su,Y et al. (2002)

> <LogKOA>
7.5

> <Tr_1_Tst_0>
1

$$$$
100275
  Mrv171c012251910582D          

 13 14  0  0  0  0            999 V2000
    1.7641   -1.2375    0.0000 C   0  0  0  0  0  0  0  0  0  0  0  0
    1.0496   -0.8250    0.0000 C   0  0  0  0  0  0  0  0  0  0  0  0
    1.0496    0.0000    0.0000 Cl  0  0  0  0  0  0  0  0  0  0  0  0
    0.3351   -1.2375    0.0000 C   0  0  0  0  0  0  0  0  0  0  0  0
    0.3351   -2.0625    0.0000 C   0  0  0  0  0  0  0  0  0  0  0  0
   -0.3793   -2.4750    0.0000 Cl  0  0  0  0  0  0  0  0  0  0  0  0
    1.0496   -2.4750    0.0000 C   0  0  0  0  0  0  0  0  0  0  0  0
    1.7641   -2.0625    0.0000 C   0  0  0  0  0  0  0  0  0  0  0  0
    2.4785   -2.4750    0.0000 C   0  0  0  0  0  0  0  0  0  0  0  0
    2.4785   -3.3000    0.0000 Cl  0  0  0  0  0  0  0  0  0  0  0  0
    3.1930   -2.0625    0.0000 C   0  0  0  0  0  0  0  0  0  0  0  0
    3.1930   -1.2375    0.0000 C   0  0  0  0  0  0  0  0  0  0  0  0
    2.4785   -0.8250    0.0000 C   0  0  0  0  0  0  0  0  0  0  0  0
  2  1  1  0  0  0  0
  2  3  1  0  0  0  0
  4  2  2  0  0  0  0
  5  4  1  0  0  0  0
  5  6  1  0  0  0  0
  7  5  2  0  0  0  0
  8  7  1  0  0  0  0
  8  1  2  0  0  0  0
  9  8  1  0  0  0  0
  9 10  1  0  0  0  0
 11  9  2  0  0  0  0
 12 11  1  0  0  0  0
 13 12  2  0  0  0  0
  1 13  1  0  0  0  0
M  END
> <ChemID>
100275

> <CAS>
51570-43-5

> <Original_SMILES>
Clc1cc2c(cccc2Cl)c(Cl)c1

> <preferred_name>


> <dsstox_substance_id>
DTXSID20872600

> <dsstox_compound_id>
DTXCID60820241

> <qc_level>


> <Canonical_QSARr>
ClC1=CC(Cl)=CC2=C1C=CC=C2Cl

> <InChI_Code_QSARr>
InChI=1S/C10H5Cl3/c11-6-4-8-7(10(13)5-6)2-1-3-9(8)12/h1-5H

> <InChI Key_QSARr>
DZHZYPCCEISGSQ-UHFFFAOYSA-N

> <Salt_Solvent>


> <Salt_Solvent_ID>
0

> <MPID>
19070

> <LogKOA_Ref>
Harner,T & Bidleman,TF (1998)

> <LogKOA>
7.32

> <Tr_1_Tst_0>
1

$$$$
100276
  Mrv171c012251910582D          

 13 14  0  0  0  0            999 V2000
    2.3806   -1.6515    0.0000 Cl  0  0  0  0  0  0  0  0  0  0  0  0
    2.3806   -0.8265    0.0000 C   0  0  0  0  0  0  0  0  0  0  0  0
    1.6661   -0.4140    0.0000 C   0  0  0  0  0  0  0  0  0  0  0  0
    1.6661    0.4110    0.0000 C   0  0  0  0  0  0  0  0  0  0  0  0
    2.3806    0.8235    0.0000 C   0  0  0  0  0  0  0  0  0  0  0  0
    2.3806    1.6485    0.0000 Cl  0  0  0  0  0  0  0  0  0  0  0  0
    3.0951    0.4110    0.0000 C   0  0  0  0  0  0  0  0  0  0  0  0
    3.8095    0.8235    0.0000 C   0  0  0  0  0  0  0  0  0  0  0  0
    4.5240    0.4110    0.0000 C   0  0  0  0  0  0  0  0  0  0  0  0
    4.5240   -0.4140    0.0000 C   0  0  0  0  0  0  0  0  0  0  0  0
    3.8095   -0.8265    0.0000 C   0  0  0  0  0  0  0  0  0  0  0  0
    3.0951   -0.4140    0.0000 C   0  0  0  0  0  0  0  0  0  0  0  0
    5.2385   -0.8265    0.0000 Cl  0  0  0  0  0  0  0  0  0  0  0  0
  1  2  1  0  0  0  0
  3  2  1  0  0  0  0
  4  3  2  0  0  0  0
  5  4  1  0  0  0  0
  5  6  1  0  0  0  0
  7  5  2  0  0  0  0
  7  8  1  0  0  0  0
  8  9  2  0  0  0  0
  9 10  1  0  0  0  0
 10 11  2  0  0  0  0
 11 12  1  0  0  0  0
  2 12  2  0  0  0  0
 12  7  1  0  0  0  0
 10 13  1  0  0  0  0
M  END
> <ChemID>
100276

> <CAS>
2437-54-9

> <Original_SMILES>
Clc1cc2c(cc1)c(Cl)ccc2Cl

> <preferred_name>
Naphthalene, 1,4,6-trichloro-

> <dsstox_substance_id>
DTXSID50179114

> <dsstox_compound_id>
DTXCID80101605

> <qc_level>
Public_Medium

> <Canonical_QSARr>
ClC1=CC2C(C=C1)=C(Cl)C=CC=2Cl

> <InChI_Code_QSARr>
InChI=1S/C10H5Cl3/c11-6-1-2-7-8(5-6)10(13)4-3-9(7)12/h1-5H

> <InChI Key_QSARr>
RLTTZFDRZKJVKJ-UHFFFAOYSA-N

> <Salt_Solvent>


> <Salt_Solvent_ID>
0

> <MPID>
19071

> <LogKOA_Ref>
Harner,T & Bidleman,TF (1998)

> <LogKOA>
7.27

> <Tr_1_Tst_0>
0

$$$$
100277
  Mrv171c012251910582D          

 13 14  0  0  0  0            999 V2000
    2.3775   -1.6379    0.0000 Cl  0  0  0  0  0  0  0  0  0  0  0  0
    2.3775   -0.8129    0.0000 C   0  0  0  0  0  0  0  0  0  0  0  0
    1.6630   -0.4004    0.0000 C   0  0  0  0  0  0  0  0  0  0  0  0
    1.6630    0.4246    0.0000 C   0  0  0  0  0  0  0  0  0  0  0  0
    2.3775    0.8371    0.0000 C   0  0  0  0  0  0  0  0  0  0  0  0
    2.3775    1.6621    0.0000 Cl  0  0  0  0  0  0  0  0  0  0  0  0
    3.0919    0.4246    0.0000 C   0  0  0  0  0  0  0  0  0  0  0  0
    3.8064    0.8371    0.0000 C   0  0  0  0  0  0  0  0  0  0  0  0
    4.5209    0.4246    0.0000 C   0  0  0  0  0  0  0  0  0  0  0  0
    4.5209   -0.4004    0.0000 C   0  0  0  0  0  0  0  0  0  0  0  0
    3.8064   -0.8129    0.0000 C   0  0  0  0  0  0  0  0  0  0  0  0
    3.8064   -1.6379    0.0000 Cl  0  0  0  0  0  0  0  0  0  0  0  0
    3.0919   -0.4004    0.0000 C   0  0  0  0  0  0  0  0  0  0  0  0
  1  2  1  0  0  0  0
  3  2  1  0  0  0  0
  4  3  2  0  0  0  0
  5  4  1  0  0  0  0
  5  6  1  0  0  0  0
  7  5  2  0  0  0  0
  7  8  1  0  0  0  0
  8  9  2  0  0  0  0
  9 10  1  0  0  0  0
 10 11  2  0  0  0  0
 11 12  1  0  0  0  0
 11 13  1  0  0  0  0
  2 13  2  0  0  0  0
 13  7  1  0  0  0  0
M  END
> <ChemID>
100277

> <CAS>
2437-55-0

> <Original_SMILES>
Clc1ccc(Cl)c2cccc(Cl)c12

> <preferred_name>
Naphthalene, 1,4,5-trichloro-

> <dsstox_substance_id>
DTXSID10179115

> <dsstox_compound_id>
DTXCID40101606

> <qc_level>
Public_Medium

> <Canonical_QSARr>
ClC1C=CC(Cl)=C2C=1C=CC=C2Cl

> <InChI_Code_QSARr>
InChI=1S/C10H5Cl3/c11-7-4-5-9(13)10-6(7)2-1-3-8(10)12/h1-5H

> <InChI Key_QSARr>
VQSNXLCFFHGXTI-UHFFFAOYSA-N

> <Salt_Solvent>


> <Salt_Solvent_ID>
0

> <MPID>
19072

> <LogKOA_Ref>
Harner,T & Bidleman,TF (1998)

> <LogKOA>
7.56

> <Tr_1_Tst_0>
1

$$$$
100278
  Mrv171c012251910582D          

 14 15  0  0  0  0            999 V2000
    3.0939   -1.2532    0.0000 Cl  0  0  0  0  0  0  0  0  0  0  0  0
    3.0939   -0.4282    0.0000 C   0  0  0  0  0  0  0  0  0  0  0  0
    2.3794   -0.0157    0.0000 C   0  0  0  0  0  0  0  0  0  0  0  0
    1.6650   -0.4282    0.0000 Cl  0  0  0  0  0  0  0  0  0  0  0  0
    2.3794    0.8093    0.0000 C   0  0  0  0  0  0  0  0  0  0  0  0
    1.6650    1.2218    0.0000 Cl  0  0  0  0  0  0  0  0  0  0  0  0
    3.0939    1.2218    0.0000 C   0  0  0  0  0  0  0  0  0  0  0  0
    3.8084    0.8093    0.0000 C   0  0  0  0  0  0  0  0  0  0  0  0
    4.5228    1.2218    0.0000 C   0  0  0  0  0  0  0  0  0  0  0  0
    5.2373    0.8093    0.0000 C   0  0  0  0  0  0  0  0  0  0  0  0
    5.2373   -0.0157    0.0000 C   0  0  0  0  0  0  0  0  0  0  0  0
    4.5228   -0.4282    0.0000 C   0  0  0  0  0  0  0  0  0  0  0  0
    3.8084   -0.0157    0.0000 C   0  0  0  0  0  0  0  0  0  0  0  0
    5.9518   -0.4282    0.0000 Cl  0  0  0  0  0  0  0  0  0  0  0  0
  1  2  1  0  0  0  0
  3  2  1  0  0  0  0
  3  4  1  0  0  0  0
  5  3  2  0  0  0  0
  5  6  1  0  0  0  0
  7  5  1  0  0  0  0
  8  7  2  0  0  0  0
  8  9  1  0  0  0  0
  9 10  2  0  0  0  0
 10 11  1  0  0  0  0
 11 12  2  0  0  0  0
 12 13  1  0  0  0  0
  2 13  2  0  0  0  0
 13  8  1  0  0  0  0
 11 14  1  0  0  0  0
M  END
> <ChemID>
100278

> <CAS>
55720-41-7

> <Original_SMILES>
Clc1cc2c(cc(Cl)c(Cl)c2Cl)cc1

> <preferred_name>
Naphthalene, 1,2,3,7-tetrachloro-

> <dsstox_substance_id>
DTXSID40204267

> <dsstox_compound_id>
DTXCID40126758

> <qc_level>
Public_Medium

> <Canonical_QSARr>
ClC1=CC2C(=CC(Cl)=C(Cl)C=2Cl)C=C1

> <InChI_Code_QSARr>
InChI=1S/C10H4Cl4/c11-6-2-1-5-3-8(12)10(14)9(13)7(5)4-6/h1-4H

> <InChI Key_QSARr>
AULMCNDOHMTPGC-UHFFFAOYSA-N

> <Salt_Solvent>


> <Salt_Solvent_ID>
0

> <MPID>
19073

> <LogKOA_Ref>
Su,Y et al. (2002)

> <LogKOA>
8.35

> <Tr_1_Tst_0>
1

$$$$
100279
  Mrv171c012251910582D          

 14 15  0  0  0  0            999 V2000
    3.0939   -1.6486    0.0000 Cl  0  0  0  0  0  0  0  0  0  0  0  0
    3.0939   -0.8236    0.0000 C   0  0  0  0  0  0  0  0  0  0  0  0
    2.3794   -0.4111    0.0000 C   0  0  0  0  0  0  0  0  0  0  0  0
    1.6650   -0.8236    0.0000 Cl  0  0  0  0  0  0  0  0  0  0  0  0
    2.3794    0.4139    0.0000 C   0  0  0  0  0  0  0  0  0  0  0  0
    3.0939    0.8264    0.0000 C   0  0  0  0  0  0  0  0  0  0  0  0
    3.0939    1.6514    0.0000 Cl  0  0  0  0  0  0  0  0  0  0  0  0
    3.8084    0.4139    0.0000 C   0  0  0  0  0  0  0  0  0  0  0  0
    4.5228    0.8264    0.0000 C   0  0  0  0  0  0  0  0  0  0  0  0
    5.2373    0.4139    0.0000 C   0  0  0  0  0  0  0  0  0  0  0  0
    5.2373   -0.4111    0.0000 C   0  0  0  0  0  0  0  0  0  0  0  0
    4.5228   -0.8236    0.0000 C   0  0  0  0  0  0  0  0  0  0  0  0
    3.8084   -0.4111    0.0000 C   0  0  0  0  0  0  0  0  0  0  0  0
    5.9518    0.8264    0.0000 Cl  0  0  0  0  0  0  0  0  0  0  0  0
  1  2  1  0  0  0  0
  3  2  2  0  0  0  0
  3  4  1  0  0  0  0
  5  3  1  0  0  0  0
  6  5  2  0  0  0  0
  6  7  1  0  0  0  0
  8  6  1  0  0  0  0
  8  9  1  0  0  0  0
  9 10  2  0  0  0  0
 10 11  1  0  0  0  0
 11 12  2  0  0  0  0
 12 13  1  0  0  0  0
  2 13  1  0  0  0  0
 13  8  2  0  0  0  0
 10 14  1  0  0  0  0
M  END
> <ChemID>
100279

> <CAS>
51570-45-7

> <Original_SMILES>
Clc1cc2c(cc1)c(Cl)c(Cl)cc2Cl

> <preferred_name>
Naphthalene, 1,2,4,6-tetrachloro-

> <dsstox_substance_id>
DTXSID60199525

> <dsstox_compound_id>
DTXCID20122016

> <qc_level>
Public_Medium

> <Canonical_QSARr>
ClC1C=C(Cl)C2C=C(Cl)C=CC=2C=1Cl

> <InChI_Code_QSARr>
InChI=1S/C10H4Cl4/c11-5-1-2-6-7(3-5)8(12)4-9(13)10(6)14/h1-4H

> <InChI Key_QSARr>
GLVVZPZGCNEVEM-UHFFFAOYSA-N

> <Salt_Solvent>


> <Salt_Solvent_ID>
0

> <MPID>
19074

> <LogKOA_Ref>
Harner,T & Bidleman,TF (1998)

> <LogKOA>
8.08

> <Tr_1_Tst_0>
1

$$$$
100280
  Mrv171c012251910582D          

 14 15  0  0  0  0            999 V2000
    3.0909   -1.6378    0.0000 Cl  0  0  0  0  0  0  0  0  0  0  0  0
    3.0909   -0.8128    0.0000 C   0  0  0  0  0  0  0  0  0  0  0  0
    2.3764   -0.4003    0.0000 C   0  0  0  0  0  0  0  0  0  0  0  0
    2.3764    0.4247    0.0000 C   0  0  0  0  0  0  0  0  0  0  0  0
    1.6620    0.8372    0.0000 Cl  0  0  0  0  0  0  0  0  0  0  0  0
    3.0909    0.8372    0.0000 C   0  0  0  0  0  0  0  0  0  0  0  0
    3.0909    1.6622    0.0000 Cl  0  0  0  0  0  0  0  0  0  0  0  0
    3.8054    0.4247    0.0000 C   0  0  0  0  0  0  0  0  0  0  0  0
    4.5199    0.8372    0.0000 C   0  0  0  0  0  0  0  0  0  0  0  0
    5.2343    0.4247    0.0000 C   0  0  0  0  0  0  0  0  0  0  0  0
    5.2343   -0.4003    0.0000 C   0  0  0  0  0  0  0  0  0  0  0  0
    4.5199   -0.8128    0.0000 C   0  0  0  0  0  0  0  0  0  0  0  0
    4.5199   -1.6378    0.0000 Cl  0  0  0  0  0  0  0  0  0  0  0  0
    3.8054   -0.4003    0.0000 C   0  0  0  0  0  0  0  0  0  0  0  0
  1  2  1  0  0  0  0
  3  2  2  0  0  0  0
  4  3  1  0  0  0  0
  4  5  1  0  0  0  0
  6  4  2  0  0  0  0
  6  7  1  0  0  0  0
  8  6  1  0  0  0  0
  8  9  1  0  0  0  0
  9 10  2  0  0  0  0
 10 11  1  0  0  0  0
 11 12  2  0  0  0  0
 12 13  1  0  0  0  0
 12 14  1  0  0  0  0
  2 14  1  0  0  0  0
 14  8  2  0  0  0  0
M  END
> <ChemID>
100280

> <CAS>
6733-54-6

> <Original_SMILES>
Clc1cc(Cl)c2c(cccc2Cl)c1Cl

> <preferred_name>
Naphthalene, 1,2,4,5-tetrachloro-

> <dsstox_substance_id>
DTXSID90217680

> <dsstox_compound_id>
DTXCID40140171

> <qc_level>
Public_Medium

> <Canonical_QSARr>
ClC1C=C(Cl)C2=C(C=CC=C2Cl)C=1Cl

> <InChI_Code_QSARr>
InChI=1S/C10H4Cl4/c11-6-3-1-2-5-9(6)7(12)4-8(13)10(5)14/h1-4H

> <InChI Key_QSARr>
BIVDISPRSYAHQQ-UHFFFAOYSA-N

> <Salt_Solvent>


> <Salt_Solvent_ID>
0

> <MPID>
19075

> <LogKOA_Ref>
Harner,T & Bidleman,TF (1998)

> <LogKOA>
8.58

> <Tr_1_Tst_0>
0

$$$$
100281
  Mrv171c012251910582D          

 14 15  0  0  0  0            999 V2000
    3.0909   -1.6378    0.0000 Cl  0  0  0  0  0  0  0  0  0  0  0  0
    3.0909   -0.8128    0.0000 C   0  0  0  0  0  0  0  0  0  0  0  0
    2.3764   -0.4003    0.0000 C   0  0  0  0  0  0  0  0  0  0  0  0
    1.6620   -0.8128    0.0000 Cl  0  0  0  0  0  0  0  0  0  0  0  0
    2.3764    0.4247    0.0000 C   0  0  0  0  0  0  0  0  0  0  0  0
    3.0909    0.8372    0.0000 C   0  0  0  0  0  0  0  0  0  0  0  0
    3.0909    1.6622    0.0000 Cl  0  0  0  0  0  0  0  0  0  0  0  0
    3.8054    0.4247    0.0000 C   0  0  0  0  0  0  0  0  0  0  0  0
    4.5199    0.8372    0.0000 C   0  0  0  0  0  0  0  0  0  0  0  0
    5.2343    0.4247    0.0000 C   0  0  0  0  0  0  0  0  0  0  0  0
    5.2343   -0.4003    0.0000 C   0  0  0  0  0  0  0  0  0  0  0  0
    4.5199   -0.8128    0.0000 C   0  0  0  0  0  0  0  0  0  0  0  0
    4.5199   -1.6378    0.0000 Cl  0  0  0  0  0  0  0  0  0  0  0  0
    3.8054   -0.4003    0.0000 C   0  0  0  0  0  0  0  0  0  0  0  0
  1  2  1  0  0  0  0
  3  2  2  0  0  0  0
  3  4  1  0  0  0  0
  5  3  1  0  0  0  0
  6  5  2  0  0  0  0
  6  7  1  0  0  0  0
  8  6  1  0  0  0  0
  8  9  1  0  0  0  0
  9 10  2  0  0  0  0
 10 11  1  0  0  0  0
 11 12  2  0  0  0  0
 12 13  1  0  0  0  0
 12 14  1  0  0  0  0
  2 14  1  0  0  0  0
 14  8  2  0  0  0  0
M  END
> <ChemID>
100281

> <CAS>
6529-87-9

> <Original_SMILES>
Clc1cc(Cl)c2cccc(Cl)c2c1Cl

> <preferred_name>
Naphthalene, 1,2,4,8-tetrachloro-

> <dsstox_substance_id>
DTXSID40215636

> <dsstox_compound_id>
DTXCID70138127

> <qc_level>
Public_Medium

> <Canonical_QSARr>
ClC1C=C(Cl)C2C=CC=C(Cl)C=2C=1Cl

> <InChI_Code_QSARr>
InChI=1S/C10H4Cl4/c11-6-3-1-2-5-7(12)4-8(13)10(14)9(5)6/h1-4H

> <InChI Key_QSARr>
OBUSZUCZKSCTMW-UHFFFAOYSA-N

> <Salt_Solvent>


> <Salt_Solvent_ID>
0

> <MPID>
19076

> <LogKOA_Ref>
Harner,T & Bidleman,TF (1998)

> <LogKOA>
8.41

> <Tr_1_Tst_0>
1

$$$$
100282
  Mrv171c012251910582D          

 14 15  0  0  0  0            999 V2000
    1.6389   -1.2375    0.0000 C   0  0  0  0  0  0  0  0  0  0  0  0
    0.9245   -0.8250    0.0000 C   0  0  0  0  0  0  0  0  0  0  0  0
    0.9245   -0.0000    0.0000 Cl  0  0  0  0  0  0  0  0  0  0  0  0
    0.2100   -1.2375    0.0000 C   0  0  0  0  0  0  0  0  0  0  0  0
   -0.5045   -0.8250    0.0000 Cl  0  0  0  0  0  0  0  0  0  0  0  0
    0.2100   -2.0625    0.0000 C   0  0  0  0  0  0  0  0  0  0  0  0
    0.9245   -2.4750    0.0000 C   0  0  0  0  0  0  0  0  0  0  0  0
    1.6389   -2.0625    0.0000 C   0  0  0  0  0  0  0  0  0  0  0  0
    2.3534   -2.4750    0.0000 C   0  0  0  0  0  0  0  0  0  0  0  0
    2.3534   -3.3000    0.0000 Cl  0  0  0  0  0  0  0  0  0  0  0  0
    3.0679   -2.0625    0.0000 C   0  0  0  0  0  0  0  0  0  0  0  0
    3.0679   -1.2375    0.0000 C   0  0  0  0  0  0  0  0  0  0  0  0
    2.3534   -0.8250    0.0000 C   0  0  0  0  0  0  0  0  0  0  0  0
    2.3534   -0.0000    0.0000 Cl  0  0  0  0  0  0  0  0  0  0  0  0
  2  1  1  0  0  0  0
  2  3  1  0  0  0  0
  4  2  2  0  0  0  0
  4  5  1  0  0  0  0
  6  4  1  0  0  0  0
  7  6  2  0  0  0  0
  8  7  1  0  0  0  0
  8  1  2  0  0  0  0
  9  8  1  0  0  0  0
  9 10  1  0  0  0  0
 11  9  2  0  0  0  0
 12 11  1  0  0  0  0
 13 12  2  0  0  0  0
  1 13  1  0  0  0  0
 13 14  1  0  0  0  0
M  END
> <ChemID>
100282

> <CAS>
149864-80-2

> <Original_SMILES>
Clc1ccc(Cl)c2ccc(Cl)c(Cl)c12

> <preferred_name>


> <dsstox_substance_id>
DTXSID60872760

> <dsstox_compound_id>
DTXCID90820350

> <qc_level>


> <Canonical_QSARr>
ClC1C=CC2=C(C=1Cl)C(Cl)=CC=C2Cl

> <InChI_Code_QSARr>
InChI=1S/C10H4Cl4/c11-6-3-4-7(12)9-5(6)1-2-8(13)10(9)14/h1-4H

> <InChI Key_QSARr>
DLTBLLHAQLBHDR-UHFFFAOYSA-N

> <Salt_Solvent>


> <Salt_Solvent_ID>
0

> <MPID>
19077

> <LogKOA_Ref>
Harner,T & Bidleman,TF (1998)

> <LogKOA>
8.4

> <Tr_1_Tst_0>
1

$$$$
100283
  Mrv171c012251910582D          

 14 15  0  0  0  0            999 V2000
    2.3775   -1.6500    0.0000 Cl  0  0  0  0  0  0  0  0  0  0  0  0
    2.3775   -0.8250    0.0000 C   0  0  0  0  0  0  0  0  0  0  0  0
    1.6630   -0.4125    0.0000 C   0  0  0  0  0  0  0  0  0  0  0  0
    1.6630    0.4125    0.0000 C   0  0  0  0  0  0  0  0  0  0  0  0
    2.3775    0.8250    0.0000 C   0  0  0  0  0  0  0  0  0  0  0  0
    2.3775    1.6500    0.0000 Cl  0  0  0  0  0  0  0  0  0  0  0  0
    3.0919    0.4125    0.0000 C   0  0  0  0  0  0  0  0  0  0  0  0
    3.8064    0.8250    0.0000 C   0  0  0  0  0  0  0  0  0  0  0  0
    4.5209    0.4125    0.0000 C   0  0  0  0  0  0  0  0  0  0  0  0
    4.5209   -0.4125    0.0000 C   0  0  0  0  0  0  0  0  0  0  0  0
    3.8064   -0.8250    0.0000 C   0  0  0  0  0  0  0  0  0  0  0  0
    3.8064   -1.6500    0.0000 Cl  0  0  0  0  0  0  0  0  0  0  0  0
    3.0919   -0.4125    0.0000 C   0  0  0  0  0  0  0  0  0  0  0  0
    3.8064    1.6500    0.0000 Cl  0  0  0  0  0  0  0  0  0  0  0  0
  1  2  1  0  0  0  0
  3  2  1  0  0  0  0
  4  3  2  0  0  0  0
  5  4  1  0  0  0  0
  5  6  1  0  0  0  0
  7  5  2  0  0  0  0
  7  8  1  0  0  0  0
  8  9  2  0  0  0  0
  9 10  1  0  0  0  0
 10 11  2  0  0  0  0
 11 12  1  0  0  0  0
 11 13  1  0  0  0  0
  2 13  2  0  0  0  0
 13  7  1  0  0  0  0
  8 14  1  0  0  0  0
M  END
> <ChemID>
100283

> <CAS>
3432-57-3

> <Original_SMILES>
Clc1ccc(Cl)c2c1c(Cl)ccc2Cl

> <preferred_name>
Naphthalene, 1,4,5,8-tetrachloro-

> <dsstox_substance_id>
DTXSID60187886

> <dsstox_compound_id>
DTXCID20110377

> <qc_level>
Public_Medium

> <Canonical_QSARr>
ClC1C=CC(Cl)=C2C=1C(Cl)=CC=C2Cl

> <InChI_Code_QSARr>
InChI=1S/C10H4Cl4/c11-5-1-2-6(12)10-8(14)4-3-7(13)9(5)10/h1-4H

> <InChI Key_QSARr>
LITCKAVLJAKHOE-UHFFFAOYSA-N

> <Salt_Solvent>


> <Salt_Solvent_ID>
0

> <MPID>
19078

> <LogKOA_Ref>
Harner,T & Bidleman,TF (1998)

> <LogKOA>
8.45

> <Tr_1_Tst_0>
1

$$$$
100284
  Mrv171c012251910582D          

 14 15  0  0  0  0            999 V2000
    3.0909   -1.2396    0.0000 Cl  0  0  0  0  0  0  0  0  0  0  0  0
    3.0909   -0.4146    0.0000 C   0  0  0  0  0  0  0  0  0  0  0  0
    2.3765   -0.0021    0.0000 C   0  0  0  0  0  0  0  0  0  0  0  0
    1.6620   -0.4146    0.0000 Cl  0  0  0  0  0  0  0  0  0  0  0  0
    2.3765    0.8229    0.0000 C   0  0  0  0  0  0  0  0  0  0  0  0
    1.6620    1.2354    0.0000 Cl  0  0  0  0  0  0  0  0  0  0  0  0
    3.0909    1.2354    0.0000 C   0  0  0  0  0  0  0  0  0  0  0  0
    3.8054    0.8229    0.0000 C   0  0  0  0  0  0  0  0  0  0  0  0
    4.5199    1.2354    0.0000 C   0  0  0  0  0  0  0  0  0  0  0  0
    5.2343    0.8229    0.0000 C   0  0  0  0  0  0  0  0  0  0  0  0
    5.2343   -0.0021    0.0000 C   0  0  0  0  0  0  0  0  0  0  0  0
    4.5199   -0.4146    0.0000 C   0  0  0  0  0  0  0  0  0  0  0  0
    4.5199   -1.2396    0.0000 Cl  0  0  0  0  0  0  0  0  0  0  0  0
    3.8054   -0.0021    0.0000 C   0  0  0  0  0  0  0  0  0  0  0  0
  1  2  1  0  0  0  0
  3  2  1  0  0  0  0
  3  4  1  0  0  0  0
  5  3  2  0  0  0  0
  5  6  1  0  0  0  0
  7  5  1  0  0  0  0
  8  7  2  0  0  0  0
  8  9  1  0  0  0  0
  9 10  2  0  0  0  0
 10 11  1  0  0  0  0
 11 12  2  0  0  0  0
 12 13  1  0  0  0  0
 12 14  1  0  0  0  0
  2 14  2  0  0  0  0
 14  8  1  0  0  0  0
M  END
> <ChemID>
100284

> <CAS>
149864-81-3

> <Original_SMILES>
Clc1cc2cccc(Cl)c2c(Cl)c1Cl

> <preferred_name>
1,2,3,8-tetrachloronaphthalene

> <dsstox_substance_id>
DTXSID60335269

> <dsstox_compound_id>
DTXCID10286358

> <qc_level>
Public_Low

> <Canonical_QSARr>
ClC1C=C2C=CC=C(Cl)C2=C(Cl)C=1Cl

> <InChI_Code_QSARr>
InChI=1S/C10H4Cl4/c11-6-3-1-2-5-4-7(12)9(13)10(14)8(5)6/h1-4H

> <InChI Key_QSARr>
UVMHXYSILPJXPK-UHFFFAOYSA-N

> <Salt_Solvent>


> <Salt_Solvent_ID>
0

> <MPID>
19079

> <LogKOA_Ref>
Su,Y et al. (2002)

> <LogKOA>
8.65

> <Tr_1_Tst_0>
0

$$$$
100285
  Mrv171c012251910582D          

 14 15  0  0  0  0            999 V2000
    3.0948   -1.6392    0.0000 Cl  0  0  0  0  0  0  0  0  0  0  0  0
    3.0948   -0.8142    0.0000 C   0  0  0  0  0  0  0  0  0  0  0  0
    2.3803   -0.4017    0.0000 C   0  0  0  0  0  0  0  0  0  0  0  0
    1.6659   -0.8142    0.0000 Cl  0  0  0  0  0  0  0  0  0  0  0  0
    2.3803    0.4233    0.0000 C   0  0  0  0  0  0  0  0  0  0  0  0
    3.0948    0.8358    0.0000 C   0  0  0  0  0  0  0  0  0  0  0  0
    3.8093    0.4233    0.0000 C   0  0  0  0  0  0  0  0  0  0  0  0
    4.5237    0.8358    0.0000 C   0  0  0  0  0  0  0  0  0  0  0  0
    5.2382    0.4233    0.0000 C   0  0  0  0  0  0  0  0  0  0  0  0
    5.2382   -0.4017    0.0000 C   0  0  0  0  0  0  0  0  0  0  0  0
    4.5237   -0.8142    0.0000 C   0  0  0  0  0  0  0  0  0  0  0  0
    3.8093   -0.4017    0.0000 C   0  0  0  0  0  0  0  0  0  0  0  0
    5.9527    0.8358    0.0000 Cl  0  0  0  0  0  0  0  0  0  0  0  0
    4.5237    1.6608    0.0000 Cl  0  0  0  0  0  0  0  0  0  0  0  0
  1  2  1  0  0  0  0
  3  2  2  0  0  0  0
  3  4  1  0  0  0  0
  5  3  1  0  0  0  0
  6  5  2  0  0  0  0
  7  6  1  0  0  0  0
  7  8  1  0  0  0  0
  8  9  2  0  0  0  0
  9 10  1  0  0  0  0
 10 11  2  0  0  0  0
 11 12  1  0  0  0  0
  2 12  1  0  0  0  0
 12  7  2  0  0  0  0
  9 13  1  0  0  0  0
  8 14  1  0  0  0  0
M  END
> <ChemID>
100285

> <CAS>
67922-22-9

> <Original_SMILES>
Clc1ccc2c(ccc(Cl)c2Cl)c1Cl

> <preferred_name>
Naphthalene, 1,2,5,6-tetrachloro-

> <dsstox_substance_id>
DTXSID30218136

> <dsstox_compound_id>
DTXCID50140627

> <qc_level>
Public_Medium

> <Canonical_QSARr>
ClC1C=CC2=C(C=CC(Cl)=C2Cl)C=1Cl

> <InChI_Code_QSARr>
InChI=1S/C10H4Cl4/c11-7-3-1-5-6(10(7)14)2-4-8(12)9(5)13/h1-4H

> <InChI Key_QSARr>
ZPUUGNBIWHBXBM-UHFFFAOYSA-N

> <Salt_Solvent>


> <Salt_Solvent_ID>
0

> <MPID>
19080

> <LogKOA_Ref>
Su,Y et al. (2002)

> <LogKOA>
8.28

> <Tr_1_Tst_0>
1

$$$$
100286
  Mrv171c012251910582D          

 14 15  0  0  0  0            999 V2000
    2.8907   -1.2410    0.0000 Cl  0  0  0  0  0  0  0  0  0  0  0  0
    2.8907   -0.4160    0.0000 C   0  0  0  0  0  0  0  0  0  0  0  0
    2.1762   -0.0035    0.0000 C   0  0  0  0  0  0  0  0  0  0  0  0
    1.4617   -0.4160    0.0000 Cl  0  0  0  0  0  0  0  0  0  0  0  0
    2.1762    0.8215    0.0000 C   0  0  0  0  0  0  0  0  0  0  0  0
    2.8907    1.2340    0.0000 C   0  0  0  0  0  0  0  0  0  0  0  0
    3.6052    0.8215    0.0000 C   0  0  0  0  0  0  0  0  0  0  0  0
    4.3196    1.2340    0.0000 C   0  0  0  0  0  0  0  0  0  0  0  0
    5.0341    0.8215    0.0000 C   0  0  0  0  0  0  0  0  0  0  0  0
    5.0341   -0.0035    0.0000 C   0  0  0  0  0  0  0  0  0  0  0  0
    4.3196   -0.4160    0.0000 C   0  0  0  0  0  0  0  0  0  0  0  0
    3.6052   -0.0035    0.0000 C   0  0  0  0  0  0  0  0  0  0  0  0
    5.7486   -0.4160    0.0000 Cl  0  0  0  0  0  0  0  0  0  0  0  0
    5.7486    1.2340    0.0000 Cl  0  0  0  0  0  0  0  0  0  0  0  0
  1  2  1  0  0  0  0
  3  2  2  0  0  0  0
  3  4  1  0  0  0  0
  5  3  1  0  0  0  0
  6  5  2  0  0  0  0
  7  6  1  0  0  0  0
  7  8  2  0  0  0  0
  8  9  1  0  0  0  0
  9 10  2  0  0  0  0
 10 11  1  0  0  0  0
 11 12  2  0  0  0  0
  2 12  1  0  0  0  0
 12  7  1  0  0  0  0
 10 13  1  0  0  0  0
  9 14  1  0  0  0  0
M  END
> <ChemID>
100286

> <CAS>
149864-79-9

> <Original_SMILES>
Clc1c2cc(Cl)c(Cl)cc2ccc1Cl

> <preferred_name>
Naphthalene, 1,2,6,7-tetrachloro-

> <dsstox_substance_id>
DTXSID00164419

> <dsstox_compound_id>
DTXCID1086910

> <qc_level>
Public_Medium

> <Canonical_QSARr>
ClC1C2=CC(Cl)=C(Cl)C=C2C=CC=1Cl

> <InChI_Code_QSARr>
InChI=1S/C10H4Cl4/c11-7-2-1-5-3-8(12)9(13)4-6(5)10(7)14/h1-4H

> <InChI Key_QSARr>
AXLIBZIJTKPCHR-UHFFFAOYSA-N

> <Salt_Solvent>


> <Salt_Solvent_ID>
0

> <MPID>
19081

> <LogKOA_Ref>
Su,Y et al. (2002)

> <LogKOA>
8.34

> <Tr_1_Tst_0>
1

$$$$
100287
  Mrv171c012251910582D          

 14 15  0  0  0  0            999 V2000
    3.0948   -1.2382    0.0000 Cl  0  0  0  0  0  0  0  0  0  0  0  0
    3.0948   -0.4132    0.0000 C   0  0  0  0  0  0  0  0  0  0  0  0
    2.3803   -0.0007    0.0000 C   0  0  0  0  0  0  0  0  0  0  0  0
    2.3803    0.8243    0.0000 C   0  0  0  0  0  0  0  0  0  0  0  0
    1.6659    1.2368    0.0000 Cl  0  0  0  0  0  0  0  0  0  0  0  0
    3.0948    1.2368    0.0000 C   0  0  0  0  0  0  0  0  0  0  0  0
    3.8093    0.8243    0.0000 C   0  0  0  0  0  0  0  0  0  0  0  0
    4.5237    1.2368    0.0000 C   0  0  0  0  0  0  0  0  0  0  0  0
    5.2382    0.8243    0.0000 C   0  0  0  0  0  0  0  0  0  0  0  0
    5.2382   -0.0007    0.0000 C   0  0  0  0  0  0  0  0  0  0  0  0
    4.5237   -0.4132    0.0000 C   0  0  0  0  0  0  0  0  0  0  0  0
    4.5237   -1.2382    0.0000 Cl  0  0  0  0  0  0  0  0  0  0  0  0
    3.8093   -0.0007    0.0000 C   0  0  0  0  0  0  0  0  0  0  0  0
    5.9527    1.2368    0.0000 Cl  0  0  0  0  0  0  0  0  0  0  0  0
  1  2  1  0  0  0  0
  3  2  1  0  0  0  0
  4  3  2  0  0  0  0
  4  5  1  0  0  0  0
  6  4  1  0  0  0  0
  7  6  2  0  0  0  0
  7  8  1  0  0  0  0
  8  9  2  0  0  0  0
  9 10  1  0  0  0  0
 10 11  2  0  0  0  0
 11 12  1  0  0  0  0
 11 13  1  0  0  0  0
  2 13  2  0  0  0  0
 13  7  1  0  0  0  0
  9 14  1  0  0  0  0
M  END
> <ChemID>
100287

> <CAS>
150224-15-0

> <Original_SMILES>
Clc1cc2cc(Cl)cc(Cl)c2c(Cl)c1

> <preferred_name>
Naphthalene, 1,3,6,8-tetrachloro-

> <dsstox_substance_id>
DTXSID40164498

> <dsstox_compound_id>
DTXCID4086989

> <qc_level>
Public_Medium

> <Canonical_QSARr>
ClC1C=C(Cl)C=C2C=C(Cl)C=C(Cl)C=12

> <InChI_Code_QSARr>
InChI=1S/C10H4Cl4/c11-6-1-5-2-7(12)4-9(14)10(5)8(13)3-6/h1-4H

> <InChI Key_QSARr>
XXWQPOHDPJIYIN-UHFFFAOYSA-N

> <Salt_Solvent>


> <Salt_Solvent_ID>
0

> <MPID>
19082

> <LogKOA_Ref>
Su,Y et al. (2002)

> <LogKOA>
8.28

> <Tr_1_Tst_0>
1

$$$$
100288
  Mrv171c012251910582D          

 14 15  0  0  0  0            999 V2000
    1.6688   -0.8250    0.0000 Cl  0  0  0  0  0  0  0  0  0  0  0  0
    2.3833   -0.4125    0.0000 C   0  0  0  0  0  0  0  0  0  0  0  0
    2.3833    0.4125    0.0000 C   0  0  0  0  0  0  0  0  0  0  0  0
    1.6688    0.8250    0.0000 Cl  0  0  0  0  0  0  0  0  0  0  0  0
    3.0978    0.8250    0.0000 C   0  0  0  0  0  0  0  0  0  0  0  0
    3.8123    0.4125    0.0000 C   0  0  0  0  0  0  0  0  0  0  0  0
    4.5267    0.8250    0.0000 C   0  0  0  0  0  0  0  0  0  0  0  0
    5.2412    0.4125    0.0000 C   0  0  0  0  0  0  0  0  0  0  0  0
    5.2412   -0.4125    0.0000 C   0  0  0  0  0  0  0  0  0  0  0  0
    4.5267   -0.8250    0.0000 C   0  0  0  0  0  0  0  0  0  0  0  0
    3.8123   -0.4125    0.0000 C   0  0  0  0  0  0  0  0  0  0  0  0
    3.0978   -0.8250    0.0000 C   0  0  0  0  0  0  0  0  0  0  0  0
    5.9557   -0.8250    0.0000 Cl  0  0  0  0  0  0  0  0  0  0  0  0
    5.9557    0.8250    0.0000 Cl  0  0  0  0  0  0  0  0  0  0  0  0
  1  2  1  0  0  0  0
  3  2  1  0  0  0  0
  3  4  1  0  0  0  0
  5  3  2  0  0  0  0
  6  5  1  0  0  0  0
  6  7  2  0  0  0  0
  7  8  1  0  0  0  0
  8  9  2  0  0  0  0
  9 10  1  0  0  0  0
 10 11  2  0  0  0  0
 11  6  1  0  0  0  0
 12 11  1  0  0  0  0
  2 12  2  0  0  0  0
  9 13  1  0  0  0  0
  8 14  1  0  0  0  0
M  END
> <ChemID>
100288

> <CAS>
34588-40-4

> <Original_SMILES>
Clc1cc2cc(Cl)c(Cl)cc2cc1Cl

> <preferred_name>
Naphthalene, 2,3,6,7-tetrachloro-

> <dsstox_substance_id>
DTXSID50188145

> <dsstox_compound_id>
DTXCID80110636

> <qc_level>
Public_Medium

> <Canonical_QSARr>
ClC1C=C2C=C(Cl)C(Cl)=CC2=CC=1Cl

> <InChI_Code_QSARr>
InChI=1S/C10H4Cl4/c11-7-1-5-2-9(13)10(14)4-6(5)3-8(7)12/h1-4H

> <InChI Key_QSARr>
XTTLUUBHRXWFSZ-UHFFFAOYSA-N

> <Salt_Solvent>


> <Salt_Solvent_ID>
0

> <MPID>
19083

> <LogKOA_Ref>
Su,Y et al. (2002)

> <LogKOA>
8.45

> <Tr_1_Tst_0>
0

$$$$
100289
  Mrv171c012251910582D          

 14 15  0  0  0  0            999 V2000
    3.0948   -1.2410    0.0000 Cl  0  0  0  0  0  0  0  0  0  0  0  0
    3.0948   -0.4160    0.0000 C   0  0  0  0  0  0  0  0  0  0  0  0
    2.3803   -0.0035    0.0000 C   0  0  0  0  0  0  0  0  0  0  0  0
    1.6659   -0.4160    0.0000 Cl  0  0  0  0  0  0  0  0  0  0  0  0
    2.3803    0.8215    0.0000 C   0  0  0  0  0  0  0  0  0  0  0  0
    3.0948    1.2340    0.0000 C   0  0  0  0  0  0  0  0  0  0  0  0
    3.8093    0.8215    0.0000 C   0  0  0  0  0  0  0  0  0  0  0  0
    4.5237    1.2340    0.0000 C   0  0  0  0  0  0  0  0  0  0  0  0
    5.2382    0.8215    0.0000 C   0  0  0  0  0  0  0  0  0  0  0  0
    5.2382   -0.0035    0.0000 C   0  0  0  0  0  0  0  0  0  0  0  0
    4.5237   -0.4160    0.0000 C   0  0  0  0  0  0  0  0  0  0  0  0
    4.5237   -1.2410    0.0000 Cl  0  0  0  0  0  0  0  0  0  0  0  0
    3.8093   -0.0035    0.0000 C   0  0  0  0  0  0  0  0  0  0  0  0
    5.9527   -0.4160    0.0000 Cl  0  0  0  0  0  0  0  0  0  0  0  0
  1  2  1  0  0  0  0
  3  2  2  0  0  0  0
  3  4  1  0  0  0  0
  5  3  1  0  0  0  0
  6  5  2  0  0  0  0
  7  6  1  0  0  0  0
  7  8  1  0  0  0  0
  8  9  2  0  0  0  0
  9 10  1  0  0  0  0
 10 11  2  0  0  0  0
 11 12  1  0  0  0  0
 11 13  1  0  0  0  0
  2 13  1  0  0  0  0
 13  7  2  0  0  0  0
 10 14  1  0  0  0  0
M  END
> <ChemID>
100289

> <CAS>
149864-82-4

> <Original_SMILES>
Clc1ccc2ccc(Cl)c(Cl)c2c1Cl

> <preferred_name>
Naphthalene, 1,2,7,8-tetrachloro-

> <dsstox_substance_id>
DTXSID10164420

> <dsstox_compound_id>
DTXCID6086911

> <qc_level>
Public_Medium

> <Canonical_QSARr>
ClC1C=CC2C=CC(Cl)=C(Cl)C=2C=1Cl

> <InChI_Code_QSARr>
InChI=1S/C10H4Cl4/c11-6-3-1-5-2-4-7(12)10(14)8(5)9(6)13/h1-4H

> <InChI Key_QSARr>
DARLUNVQYCQWRW-UHFFFAOYSA-N

> <Salt_Solvent>


> <Salt_Solvent_ID>
0

> <MPID>
19084

> <LogKOA_Ref>
Su,Y et al. (2002)

> <LogKOA>
8.65

> <Tr_1_Tst_0>
1

$$$$
100290
  Mrv171c012251910582D          

 14 15  0  0  0  0            999 V2000
   -0.0000   -1.6500    0.0000 C   0  0  0  0  0  0  0  0  0  0  0  0
   -0.7145   -1.2375    0.0000 C   0  0  0  0  0  0  0  0  0  0  0  0
   -0.7145   -0.4125    0.0000 Br  0  0  0  0  0  0  0  0  0  0  0  0
   -1.4290   -1.6500    0.0000 C   0  0  0  0  0  0  0  0  0  0  0  0
   -1.4290   -2.4750    0.0000 C   0  0  0  0  0  0  0  0  0  0  0  0
   -0.7145   -2.8875    0.0000 C   0  0  0  0  0  0  0  0  0  0  0  0
   -0.0000   -2.4750    0.0000 C   0  0  0  0  0  0  0  0  0  0  0  0
    0.7145   -2.8875    0.0000 O   0  0  0  0  0  0  0  0  0  0  0  0
    1.4289   -2.4750    0.0000 C   0  0  0  0  0  0  0  0  0  0  0  0
    2.1434   -2.8875    0.0000 C   0  0  0  0  0  0  0  0  0  0  0  0
    2.8579   -2.4750    0.0000 C   0  0  0  0  0  0  0  0  0  0  0  0
    2.8579   -1.6500    0.0000 C   0  0  0  0  0  0  0  0  0  0  0  0
    2.1434   -1.2375    0.0000 C   0  0  0  0  0  0  0  0  0  0  0  0
    1.4289   -1.6500    0.0000 C   0  0  0  0  0  0  0  0  0  0  0  0
  2  1  1  0  0  0  0
  2  3  1  0  0  0  0
  4  2  2  0  0  0  0
  5  4  1  0  0  0  0
  6  5  2  0  0  0  0
  7  6  1  0  0  0  0
  1  7  2  0  0  0  0
  7  8  1  0  0  0  0
  8  9  1  0  0  0  0
 10  9  1  0  0  0  0
 11 10  2  0  0  0  0
 12 11  1  0  0  0  0
 13 12  2  0  0  0  0
 14 13  1  0  0  0  0
  9 14  2  0  0  0  0
M  END
> <ChemID>
100290

> <CAS>
6876-00-2

> <Original_SMILES>
Brc1cc(ccc1)Oc1ccccc1

> <preferred_name>
PBDE 002

> <dsstox_substance_id>
DTXSID9074773

> <dsstox_compound_id>
DTXCID1046217

> <qc_level>
Public_High

> <Canonical_QSARr>
BrC1C=C(C=CC=1)OC1C=CC=CC=1

> <InChI_Code_QSARr>
InChI=1S/C12H9BrO/c13-10-5-4-8-12(9-10)14-11-6-2-1-3-7-11/h1-9H

> <InChI Key_QSARr>
AHDAKFFMKLQPTD-UHFFFAOYSA-N

> <Salt_Solvent>


> <Salt_Solvent_ID>
0

> <MPID>
19085

> <LogKOA_Ref>
Wania,F et al. (2002)

> <LogKOA>
7.36

> <Tr_1_Tst_0>
1

$$$$
100291
  Mrv171c012251910582D          

 15 16  0  0  0  0            999 V2000
    4.3174    0.4400    0.0000 Br  0  0  0  0  0  0  0  0  0  0  0  0
    3.6029    0.8525    0.0000 C   0  0  0  0  0  0  0  0  0  0  0  0
    3.6029    1.6775    0.0000 C   0  0  0  0  0  0  0  0  0  0  0  0
    2.8884    2.0900    0.0000 C   0  0  0  0  0  0  0  0  0  0  0  0
    2.8884    2.9150    0.0000 Br  0  0  0  0  0  0  0  0  0  0  0  0
    2.1740    1.6775    0.0000 C   0  0  0  0  0  0  0  0  0  0  0  0
    2.1740    0.8525    0.0000 C   0  0  0  0  0  0  0  0  0  0  0  0
    2.8884    0.4400    0.0000 C   0  0  0  0  0  0  0  0  0  0  0  0
    2.8884   -0.3850    0.0000 O   0  0  0  0  0  0  0  0  0  0  0  0
    3.6029   -0.7975    0.0000 C   0  0  0  0  0  0  0  0  0  0  0  0
    3.6029   -1.6225    0.0000 C   0  0  0  0  0  0  0  0  0  0  0  0
    4.3174   -2.0350    0.0000 C   0  0  0  0  0  0  0  0  0  0  0  0
    5.0319   -1.6225    0.0000 C   0  0  0  0  0  0  0  0  0  0  0  0
    5.0319   -0.7975    0.0000 C   0  0  0  0  0  0  0  0  0  0  0  0
    4.3174   -0.3850    0.0000 C   0  0  0  0  0  0  0  0  0  0  0  0
  1  2  1  0  0  0  0
  3  2  1  0  0  0  0
  4  3  2  0  0  0  0
  4  5  1  0  0  0  0
  6  4  1  0  0  0  0
  7  6  2  0  0  0  0
  8  7  1  0  0  0  0
  2  8  2  0  0  0  0
  8  9  1  0  0  0  0
  9 10  1  0  0  0  0
 11 10  1  0  0  0  0
 12 11  2  0  0  0  0
 13 12  1  0  0  0  0
 14 13  2  0  0  0  0
 15 14  1  0  0  0  0
 10 15  2  0  0  0  0
M  END
> <ChemID>
100291

> <CAS>
171977-44-9

> <Original_SMILES>
Brc1cc(Br)c(cc1)Oc1ccccc1

> <preferred_name>
PUBCHEM_14942774

> <dsstox_substance_id>
DTXSID70565813

> <dsstox_compound_id>
DTXCID90516589

> <qc_level>
Public_Low

> <Canonical_QSARr>
BrC1C=C(Br)C=CC=1OC1C=CC=CC=1

> <InChI_Code_QSARr>
InChI=1S/C12H8Br2O/c13-9-6-7-12(11(14)8-9)15-10-4-2-1-3-5-10/h1-8H

> <InChI Key_QSARr>
JMCIHKKTRDLVCO-UHFFFAOYSA-N

> <Salt_Solvent>


> <Salt_Solvent_ID>
0

> <MPID>
19086

> <LogKOA_Ref>
Wania,F et al. (2002)

> <LogKOA>
8.37

> <Tr_1_Tst_0>
1

$$$$
100292
  Mrv171c012251910582D          

 15 16  0  0  0  0            999 V2000
    4.3174    1.8700    0.0000 Br  0  0  0  0  0  0  0  0  0  0  0  0
    3.6029    1.4575    0.0000 C   0  0  0  0  0  0  0  0  0  0  0  0
    2.8884    1.8700    0.0000 C   0  0  0  0  0  0  0  0  0  0  0  0
    2.8884    2.6950    0.0000 Br  0  0  0  0  0  0  0  0  0  0  0  0
    2.1740    1.4575    0.0000 C   0  0  0  0  0  0  0  0  0  0  0  0
    2.1740    0.6325    0.0000 C   0  0  0  0  0  0  0  0  0  0  0  0
    2.8884    0.2200    0.0000 C   0  0  0  0  0  0  0  0  0  0  0  0
    2.8884   -0.6050    0.0000 O   0  0  0  0  0  0  0  0  0  0  0  0
    3.6029   -1.0175    0.0000 C   0  0  0  0  0  0  0  0  0  0  0  0
    3.6029   -1.8425    0.0000 C   0  0  0  0  0  0  0  0  0  0  0  0
    4.3174   -2.2550    0.0000 C   0  0  0  0  0  0  0  0  0  0  0  0
    5.0319   -1.8425    0.0000 C   0  0  0  0  0  0  0  0  0  0  0  0
    5.0319   -1.0175    0.0000 C   0  0  0  0  0  0  0  0  0  0  0  0
    4.3174   -0.6050    0.0000 C   0  0  0  0  0  0  0  0  0  0  0  0
    3.6029    0.6325    0.0000 C   0  0  0  0  0  0  0  0  0  0  0  0
  1  2  1  0  0  0  0
  3  2  2  0  0  0  0
  3  4  1  0  0  0  0
  5  3  1  0  0  0  0
  6  5  2  0  0  0  0
  7  6  1  0  0  0  0
  7  8  1  0  0  0  0
  8  9  1  0  0  0  0
 10  9  1  0  0  0  0
 11 10  2  0  0  0  0
 12 11  1  0  0  0  0
 13 12  2  0  0  0  0
 14 13  1  0  0  0  0
  9 14  2  0  0  0  0
 15  7  2  0  0  0  0
  2 15  1  0  0  0  0
M  END
> <ChemID>
100292

> <CAS>
189084-59-1

> <Original_SMILES>
Brc1ccc(cc1Br)Oc1ccccc1

> <preferred_name>
3,4-Dibromodiphenyl ether

> <dsstox_substance_id>
DTXSID40477015

> <dsstox_compound_id>
DTXCID10427825

> <qc_level>
Public_Low

> <Canonical_QSARr>
BrC1C=CC(=CC=1Br)OC1C=CC=CC=1

> <InChI_Code_QSARr>
InChI=1S/C12H8Br2O/c13-11-7-6-10(8-12(11)14)15-9-4-2-1-3-5-9/h1-8H

> <InChI Key_QSARr>
SUUJFDKVPDCZQZ-UHFFFAOYSA-N

> <Salt_Solvent>


> <Salt_Solvent_ID>
0

> <MPID>
19087

> <LogKOA_Ref>
Wania,F et al. (2002)

> <LogKOA>
8.55

> <Tr_1_Tst_0>
0

$$$$
100293
  Mrv171c012251910582D          

 15 16  0  0  0  0            999 V2000
    3.5553   -0.9625    0.0000 Br  0  0  0  0  0  0  0  0  0  0  0  0
    4.2698   -0.5500    0.0000 C   0  0  0  0  0  0  0  0  0  0  0  0
    4.9843   -0.9625    0.0000 C   0  0  0  0  0  0  0  0  0  0  0  0
    5.6987   -0.5500    0.0000 C   0  0  0  0  0  0  0  0  0  0  0  0
    5.6987    0.2750    0.0000 C   0  0  0  0  0  0  0  0  0  0  0  0
    4.9843    0.6875    0.0000 C   0  0  0  0  0  0  0  0  0  0  0  0
    4.9843    1.5125    0.0000 Br  0  0  0  0  0  0  0  0  0  0  0  0
    4.2698    0.2750    0.0000 C   0  0  0  0  0  0  0  0  0  0  0  0
    3.5553    0.6875    0.0000 O   0  0  0  0  0  0  0  0  0  0  0  0
    2.8409    0.2750    0.0000 C   0  0  0  0  0  0  0  0  0  0  0  0
    2.1264    0.6875    0.0000 C   0  0  0  0  0  0  0  0  0  0  0  0
    1.4119    0.2750    0.0000 C   0  0  0  0  0  0  0  0  0  0  0  0
    1.4119   -0.5500    0.0000 C   0  0  0  0  0  0  0  0  0  0  0  0
    2.1264   -0.9625    0.0000 C   0  0  0  0  0  0  0  0  0  0  0  0
    2.8409   -0.5500    0.0000 C   0  0  0  0  0  0  0  0  0  0  0  0
  1  2  1  0  0  0  0
  3  2  1  0  0  0  0
  4  3  2  0  0  0  0
  5  4  1  0  0  0  0
  6  5  2  0  0  0  0
  6  7  1  0  0  0  0
  8  6  1  0  0  0  0
  2  8  2  0  0  0  0
  8  9  1  0  0  0  0
  9 10  1  0  0  0  0
 11 10  1  0  0  0  0
 12 11  2  0  0  0  0
 13 12  1  0  0  0  0
 14 13  2  0  0  0  0
 15 14  1  0  0  0  0
 10 15  2  0  0  0  0
M  END
> <ChemID>
100293

> <CAS>
51930-04-2

> <Original_SMILES>
Brc1cccc(Br)c1Oc1ccccc1

> <preferred_name>
Benzene, 1,3-dibromo-2-phenoxy-

> <dsstox_substance_id>
DTXSID00477016

> <dsstox_compound_id>
DTXCID70427826

> <qc_level>
Public_Low

> <Canonical_QSARr>
BrC1C=CC=C(Br)C=1OC1C=CC=CC=1

> <InChI_Code_QSARr>
InChI=1S/C12H8Br2O/c13-10-7-4-8-11(14)12(10)15-9-5-2-1-3-6-9/h1-8H

> <InChI Key_QSARr>
MUVDKHMQIZJFTC-UHFFFAOYSA-N

> <Salt_Solvent>


> <Salt_Solvent_ID>
0

> <MPID>
19088

> <LogKOA_Ref>
Wania,F et al. (2002)

> <LogKOA>
8.12

> <Tr_1_Tst_0>
1

$$$$
100294
  Mrv171c012251910582D          

 15 16  0  0  0  0            999 V2000
    3.1743   -0.4125    0.0000 Br  0  0  0  0  0  0  0  0  0  0  0  0
    3.8888   -0.8250    0.0000 C   0  0  0  0  0  0  0  0  0  0  0  0
    3.8888   -1.6500    0.0000 C   0  0  0  0  0  0  0  0  0  0  0  0
    4.6032   -2.0625    0.0000 C   0  0  0  0  0  0  0  0  0  0  0  0
    5.3177   -1.6500    0.0000 C   0  0  0  0  0  0  0  0  0  0  0  0
    5.3177   -0.8250    0.0000 C   0  0  0  0  0  0  0  0  0  0  0  0
    4.6032   -0.4125    0.0000 C   0  0  0  0  0  0  0  0  0  0  0  0
    4.6032    0.4125    0.0000 O   0  0  0  0  0  0  0  0  0  0  0  0
    3.8888    0.8250    0.0000 C   0  0  0  0  0  0  0  0  0  0  0  0
    3.8888    1.6500    0.0000 C   0  0  0  0  0  0  0  0  0  0  0  0
    3.1743    2.0625    0.0000 C   0  0  0  0  0  0  0  0  0  0  0  0
    2.4598    1.6500    0.0000 C   0  0  0  0  0  0  0  0  0  0  0  0
    1.7453    2.0625    0.0000 Br  0  0  0  0  0  0  0  0  0  0  0  0
    2.4598    0.8250    0.0000 C   0  0  0  0  0  0  0  0  0  0  0  0
    3.1743    0.4125    0.0000 C   0  0  0  0  0  0  0  0  0  0  0  0
  1  2  1  0  0  0  0
  3  2  2  0  0  0  0
  4  3  1  0  0  0  0
  5  4  2  0  0  0  0
  6  5  1  0  0  0  0
  7  6  2  0  0  0  0
  2  7  1  0  0  0  0
  7  8  1  0  0  0  0
  8  9  1  0  0  0  0
 10  9  1  0  0  0  0
 11 10  2  0  0  0  0
 12 11  1  0  0  0  0
 12 13  1  0  0  0  0
 14 12  2  0  0  0  0
 15 14  1  0  0  0  0
  9 15  2  0  0  0  0
M  END
> <ChemID>
100294

> <CAS>
147217-71-8

> <Original_SMILES>
Brc1ccc(cc1)Oc1ccccc1Br

> <preferred_name>
PUBCHEM_15738106

> <dsstox_substance_id>
DTXSID50577712

> <dsstox_compound_id>
DTXCID70528483

> <qc_level>
Public_Low

> <Canonical_QSARr>
BrC1C=CC(=CC=1)OC1=CC=CC=C1Br

> <InChI_Code_QSARr>
InChI=1S/C12H8Br2O/c13-9-5-7-10(8-6-9)15-12-4-2-1-3-11(12)14/h1-8H

> <InChI Key_QSARr>
RJQLQJZMLISKRJ-UHFFFAOYSA-N

> <Salt_Solvent>


> <Salt_Solvent_ID>
0

> <MPID>
19089

> <LogKOA_Ref>
Wania,F et al. (2002)

> <LogKOA>
8.47

> <Tr_1_Tst_0>
0

$$$$
100295
  Mrv171c012251910582D          

 15 16  0  0  0  0            999 V2000
    3.1743   -2.0625    0.0000 Br  0  0  0  0  0  0  0  0  0  0  0  0
    3.8888   -1.6500    0.0000 C   0  0  0  0  0  0  0  0  0  0  0  0
    4.6032   -2.0625    0.0000 C   0  0  0  0  0  0  0  0  0  0  0  0
    5.3177   -1.6500    0.0000 C   0  0  0  0  0  0  0  0  0  0  0  0
    5.3177   -0.8250    0.0000 C   0  0  0  0  0  0  0  0  0  0  0  0
    4.6032   -0.4125    0.0000 C   0  0  0  0  0  0  0  0  0  0  0  0
    4.6032    0.4125    0.0000 O   0  0  0  0  0  0  0  0  0  0  0  0
    3.8888    0.8250    0.0000 C   0  0  0  0  0  0  0  0  0  0  0  0
    3.8888    1.6500    0.0000 C   0  0  0  0  0  0  0  0  0  0  0  0
    3.1743    2.0625    0.0000 C   0  0  0  0  0  0  0  0  0  0  0  0
    2.4598    1.6500    0.0000 C   0  0  0  0  0  0  0  0  0  0  0  0
    1.7453    2.0625    0.0000 Br  0  0  0  0  0  0  0  0  0  0  0  0
    2.4598    0.8250    0.0000 C   0  0  0  0  0  0  0  0  0  0  0  0
    3.1743    0.4125    0.0000 C   0  0  0  0  0  0  0  0  0  0  0  0
    3.8888   -0.8250    0.0000 C   0  0  0  0  0  0  0  0  0  0  0  0
  1  2  1  0  0  0  0
  3  2  2  0  0  0  0
  4  3  1  0  0  0  0
  5  4  2  0  0  0  0
  6  5  1  0  0  0  0
  6  7  1  0  0  0  0
  7  8  1  0  0  0  0
  9  8  1  0  0  0  0
 10  9  2  0  0  0  0
 11 10  1  0  0  0  0
 11 12  1  0  0  0  0
 13 11  2  0  0  0  0
 14 13  1  0  0  0  0
  8 14  2  0  0  0  0
 15  6  2  0  0  0  0
  2 15  1  0  0  0  0
M  END
> <ChemID>
100295

> <CAS>
83694-71-7

> <Original_SMILES>
Brc1ccc(cc1)Oc1cc(Br)ccc1

> <preferred_name>
PUBCHEM_15738105

> <dsstox_substance_id>
DTXSID90577711

> <dsstox_compound_id>
DTXCID10528482

> <qc_level>
Public_Low

> <Canonical_QSARr>
BrC1C=C(C=CC=1)OC1C=CC(Br)=CC=1

> <InChI_Code_QSARr>
InChI=1S/C12H8Br2O/c13-9-4-6-11(7-5-9)15-12-3-1-2-10(14)8-12/h1-8H

> <InChI Key_QSARr>
BGPOVBPKODCMMN-UHFFFAOYSA-N

> <Salt_Solvent>


> <Salt_Solvent_ID>
0

> <MPID>
19090

> <LogKOA_Ref>
Wania,F et al. (2002)

> <LogKOA>
8.57

> <Tr_1_Tst_0>
1

$$$$
