100001
  Mrv171c012251911022D          

 19 20  0  0  0  0            999 V2000
    1.3190   -2.0632    0.0000 Cl  0  0  0  0  0  0  0  0  0  0  0  0
    1.7315   -2.7776    0.0000 C   0  0  0  0  0  0  0  0  0  0  0  0
    2.1440   -3.4921    0.0000 Cl  0  0  0  0  0  0  0  0  0  0  0  0
    1.0170   -3.1901    0.0000 Cl  0  0  0  0  0  0  0  0  0  0  0  0
    2.4459   -2.3651    0.0000 C   0  0  0  0  0  0  0  0  0  0  0  0
    2.4459   -1.5401    0.0000 C   0  0  0  0  0  0  0  0  0  0  0  0
    3.1604   -1.1276    0.0000 C   0  0  0  0  0  0  0  0  0  0  0  0
    3.1604   -0.3026    0.0000 C   0  0  0  0  0  0  0  0  0  0  0  0
    2.4459    0.1099    0.0000 C   0  0  0  0  0  0  0  0  0  0  0  0
    2.4459    0.9349    0.0000 Cl  0  0  0  0  0  0  0  0  0  0  0  0
    1.7315   -0.3026    0.0000 C   0  0  0  0  0  0  0  0  0  0  0  0
    1.7315   -1.1276    0.0000 C   0  0  0  0  0  0  0  0  0  0  0  0
    3.1604   -2.7776    0.0000 C   0  0  0  0  0  0  0  0  0  0  0  0
    3.1604   -3.6026    0.0000 C   0  0  0  0  0  0  0  0  0  0  0  0
    3.8749   -4.0151    0.0000 C   0  0  0  0  0  0  0  0  0  0  0  0
    4.5894   -3.6026    0.0000 C   0  0  0  0  0  0  0  0  0  0  0  0
    5.3038   -4.0151    0.0000 Cl  0  0  0  0  0  0  0  0  0  0  0  0
    4.5894   -2.7776    0.0000 C   0  0  0  0  0  0  0  0  0  0  0  0
    3.8749   -2.3651    0.0000 C   0  0  0  0  0  0  0  0  0  0  0  0
  1  2  1  0  0  0  0
  2  3  1  0  0  0  0
  2  4  1  0  0  0  0
  2  5  1  0  0  0  0
  5  6  1  0  0  0  0
  7  6  1  0  0  0  0
  8  7  2  0  0  0  0
  9  8  1  0  0  0  0
  9 10  1  0  0  0  0
 11  9  2  0  0  0  0
 12 11  1  0  0  0  0
  6 12  2  0  0  0  0
  5 13  1  0  0  0  0
 14 13  1  0  0  0  0
 15 14  2  0  0  0  0
 16 15  1  0  0  0  0
 16 17  1  0  0  0  0
 18 16  2  0  0  0  0
 19 18  1  0  0  0  0
 13 19  2  0  0  0  0
M  END
> <ChemID>
100001

> <CAS>
50-29-3

> <Original_SMILES>
ClC(Cl)(Cl)C(c1ccc(Cl)cc1)c1ccc(Cl)cc1

> <preferred_name>
p,p'-DDT

> <dsstox_substance_id>
DTXSID4020375

> <dsstox_compound_id>
DTXCID20375

> <qc_level>
DSSTox_High

> <Canonical_QSARr>
ClC(Cl)(Cl)C(C1C=CC(Cl)=CC=1)C1C=CC(Cl)=CC=1

> <InChI_Code_QSARr>
InChI=1S/C14H9Cl5/c15-11-5-1-9(2-6-11)13(14(17,18)19)10-3-7-12(16)8-4-10/h1-8,13H

> <InChI Key_QSARr>
YVGGHNCTFXOJCH-UHFFFAOYSA-N

> <Salt_Solvent>


> <Salt_Solvent_ID>
0

> <MPID>
99278

> <KocRef>
Schuurmann-Main

> <LogKOC>
5.31

> <Tr_1_Tst_0>
1

$$$$
100002
  Mrv171c012251911022D          

 20 24  0  0  0  0            999 V2000
    2.8348   -2.5049    0.0000 C   0  0  0  0  0  0  0  0  0  0  0  0
    3.1048   -1.7254    0.0000 C   0  0  0  0  0  0  0  0  0  0  0  0
    3.9149   -1.5695    0.0000 C   0  0  0  0  0  0  0  0  0  0  0  0
    4.4550   -2.1931    0.0000 C   0  0  0  0  0  0  0  0  0  0  0  0
    5.2652   -2.0372    0.0000 C   0  0  0  0  0  0  0  0  0  0  0  0
    5.5352   -1.2576    0.0000 C   0  0  0  0  0  0  0  0  0  0  0  0
    4.9951   -0.6340    0.0000 C   0  0  0  0  0  0  0  0  0  0  0  0
    4.1850   -0.7899    0.0000 C   0  0  0  0  0  0  0  0  0  0  0  0
    3.6449   -0.1663    0.0000 C   0  0  0  0  0  0  0  0  0  0  0  0
    2.8348   -0.3222    0.0000 C   0  0  0  0  0  0  0  0  0  0  0  0
    2.5647   -1.1017    0.0000 C   0  0  0  0  0  0  0  0  0  0  0  0
    1.7546   -1.2576    0.0000 C   0  0  0  0  0  0  0  0  0  0  0  0
    1.2145   -0.6340    0.0000 C   0  0  0  0  0  0  0  0  0  0  0  0
    1.4845    0.1456    0.0000 C   0  0  0  0  0  0  0  0  0  0  0  0
    2.2947    0.3015    0.0000 C   0  0  0  0  0  0  0  0  0  0  0  0
    0.4043   -0.7899    0.0000 C   0  0  0  0  0  0  0  0  0  0  0  0
    0.1343   -1.5695    0.0000 C   0  0  0  0  0  0  0  0  0  0  0  0
    0.6744   -2.1931    0.0000 C   0  0  0  0  0  0  0  0  0  0  0  0
    1.4845   -2.0372    0.0000 C   0  0  0  0  0  0  0  0  0  0  0  0
    2.0246   -2.6608    0.0000 C   0  0  0  0  0  0  0  0  0  0  0  0
  2  1  1  0  0  0  0
  2  3  2  0  0  0  0
  4  3  1  0  0  0  0
  5  4  2  0  0  0  0
  6  5  1  0  0  0  0
  7  6  2  0  0  0  0
  8  7  1  0  0  0  0
  3  8  1  0  0  0  0
  8  9  2  0  0  0  0
  9 10  1  0  0  0  0
 10 11  1  0  0  0  0
 11  2  1  0  0  0  0
 11 12  2  0  0  0  0
 12 13  1  0  0  0  0
 13 14  2  0  0  0  0
 14 15  1  0  0  0  0
 15 10  2  0  0  0  0
 13 16  1  0  0  0  0
 16 17  2  0  0  0  0
 17 18  1  0  0  0  0
 18 19  2  0  0  0  0
 19 12  1  0  0  0  0
 20 19  1  0  0  0  0
  1 20  2  0  0  0  0
M  END
> <ChemID>
100002

> <CAS>
50-32-8

> <Original_SMILES>
c1c2ccccc2c2ccc3cccc4ccc1c2c34

> <preferred_name>
Benzo(a)pyrene

> <dsstox_substance_id>
DTXSID2020139

> <dsstox_compound_id>
DTXCID40139

> <qc_level>
DSSTox_Low

> <Canonical_QSARr>
C1C2=CC=C3C=CC=C4C=CC(C2=C34)=C2C=CC=CC2=1

> <InChI_Code_QSARr>
InChI=1S/C20H12/c1-2-7-17-15(4-1)12-16-9-8-13-5-3-6-14-10-11-18(17)20(16)19(13)14/h1-12H

> <InChI Key_QSARr>
FMMWHPNWAFZXNH-UHFFFAOYSA-N

> <Salt_Solvent>


> <Salt_Solvent_ID>
0

> <MPID>
99279

> <KocRef>
SRC 1992 NonPolar Val

> <LogKOC>
5.95

> <Tr_1_Tst_0>
1

$$$$
100003
  Mrv171c012251911022D          

 21 22  0  0  0  0            999 V2000
    4.2446   -2.5643    0.0000 O   0  0  0  0  0  0  0  0  0  0  0  0
    4.2446   -1.7393    0.0000 C   0  0  0  0  0  0  0  0  0  0  0  0
    3.5302   -1.3268    0.0000 N   0  0  0  0  0  0  0  0  0  0  0  0
    2.8157   -1.7393    0.0000 C   0  0  0  0  0  0  0  0  0  0  0  0
    2.1012   -1.3268    0.0000 C   0  0  0  0  0  0  0  0  0  0  0  0
    2.1012   -0.5018    0.0000 Cl  0  0  0  0  0  0  0  0  0  0  0  0
    1.3867   -1.7393    0.0000 C   0  0  0  0  0  0  0  0  0  0  0  0
    1.3867   -2.5643    0.0000 C   0  0  0  0  0  0  0  0  0  0  0  0
    0.6723   -2.9768    0.0000 N   0  3  0  0  0  0  0  0  0  0  0  0
    0.6723   -3.8018    0.0000 O   0  5  0  0  0  0  0  0  0  0  0  0
   -0.0422   -2.5643    0.0000 O   0  0  0  0  0  0  0  0  0  0  0  0
    2.1012   -2.9768    0.0000 C   0  0  0  0  0  0  0  0  0  0  0  0
    2.8157   -2.5643    0.0000 C   0  0  0  0  0  0  0  0  0  0  0  0
    4.9591   -1.3268    0.0000 C   0  0  0  0  0  0  0  0  0  0  0  0
    5.6736   -1.7393    0.0000 C   0  0  0  0  0  0  0  0  0  0  0  0
    6.3880   -1.3268    0.0000 C   0  0  0  0  0  0  0  0  0  0  0  0
    7.1025   -1.7393    0.0000 Cl  0  0  0  0  0  0  0  0  0  0  0  0
    6.3880   -0.5018    0.0000 C   0  0  0  0  0  0  0  0  0  0  0  0
    5.6736   -0.0893    0.0000 C   0  0  0  0  0  0  0  0  0  0  0  0
    4.9591   -0.5018    0.0000 C   0  0  0  0  0  0  0  0  0  0  0  0
    4.2446   -0.0893    0.0000 O   0  0  0  0  0  0  0  0  0  0  0  0
  1  2  2  0  0  0  0
  2  3  1  0  0  0  0
  3  4  1  0  0  0  0
  5  4  1  0  0  0  0
  5  6  1  0  0  0  0
  7  5  2  0  0  0  0
  8  7  1  0  0  0  0
  8  9  1  0  0  0  0
  9 10  1  0  0  0  0
  9 11  2  0  0  0  0
 12  8  2  0  0  0  0
 13 12  1  0  0  0  0
  4 13  2  0  0  0  0
  2 14  1  0  0  0  0
 15 14  1  0  0  0  0
 16 15  2  0  0  0  0
 16 17  1  0  0  0  0
 18 16  1  0  0  0  0
 19 18  2  0  0  0  0
 20 19  1  0  0  0  0
 14 20  2  0  0  0  0
 20 21  1  0  0  0  0
M  CHG  2   9   1  10  -1
M  END
> <ChemID>
100003

> <CAS>
50-65-7

> <Original_SMILES>
[O-][N+](=O)c1cc(Cl)c(cc1)NC(=O)c1cc(Cl)ccc1O

> <preferred_name>
Niclosamide

> <dsstox_substance_id>
DTXSID7040362

> <dsstox_compound_id>
DTXCID5020362

> <qc_level>
DSSTox_Low

> <Canonical_QSARr>
[O-][N+](=O)C1C=C(Cl)C(=CC=1)NC(=O)C1C=C(Cl)C=CC=1O

> <InChI_Code_QSARr>
InChI=1S/C13H8Cl2N2O4/c14-7-1-4-12(18)9(5-7)13(19)16-11-3-2-8(17(20)21)6-10(11)15/h1-6,18H,(H,16,19)

> <InChI Key_QSARr>
RJMUSRYZPJIFPJ-UHFFFAOYSA-N

> <Salt_Solvent>


> <Salt_Solvent_ID>
0

> <MPID>
99280

> <KocRef>
SRC 1992 Supplement

> <LogKOC>
3.35

> <Tr_1_Tst_0>
1

$$$$
100004
  Mrv171c012251911022D          

 12 12  0  0  0  0            999 V2000
    2.0152   -2.4712    0.0000 C   0  0  0  0  0  0  0  0  0  0  0  0
    2.0152   -3.2962    0.0000 C   0  0  0  0  0  0  0  0  0  0  0  0
    2.7296   -2.0587    0.0000 N   0  0  0  0  0  0  0  0  0  0  0  0
    2.7296   -1.2337    0.0000 C   0  0  0  0  0  0  0  0  0  0  0  0
    3.4441   -0.8212    0.0000 C   0  0  0  0  0  0  0  0  0  0  0  0
    3.4441    0.0038    0.0000 C   0  0  0  0  0  0  0  0  0  0  0  0
    2.7296    0.4163    0.0000 C   0  0  0  0  0  0  0  0  0  0  0  0
    2.7296    1.2413    0.0000 O   0  0  0  0  0  0  0  0  0  0  0  0
    2.0152    1.6538    0.0000 C   0  0  0  0  0  0  0  0  0  0  0  0
    2.0152    0.0038    0.0000 C   0  0  0  0  0  0  0  0  0  0  0  0
    2.0152   -0.8212    0.0000 C   0  0  0  0  0  0  0  0  0  0  0  0
    1.3007   -2.0587    0.0000 O   0  0  0  0  0  0  0  0  0  0  0  0
  1  2  1  0  0  0  0
  1  3  1  0  0  0  0
  3  4  1  0  0  0  0
  5  4  1  0  0  0  0
  6  5  2  0  0  0  0
  7  6  1  0  0  0  0
  7  8  1  0  0  0  0
  8  9  1  0  0  0  0
 10  7  2  0  0  0  0
 11 10  1  0  0  0  0
  4 11  2  0  0  0  0
  1 12  2  0  0  0  0
M  END
> <ChemID>
100004

> <CAS>
51-66-1

> <Original_SMILES>
CC(=O)Nc1ccc(cc1)OC

> <preferred_name>
N-(4-Methoxyphenyl)acetamide

> <dsstox_substance_id>
DTXSID6026325

> <dsstox_compound_id>
DTXCID806325

> <qc_level>
DSSTox_Low

> <Canonical_QSARr>
CC(=O)NC1C=CC(=CC=1)OC

> <InChI_Code_QSARr>
InChI=1S/C9H11NO2/c1-7(11)10-8-3-5-9(12-2)6-4-8/h3-6H,1-2H3,(H,10,11)

> <InChI Key_QSARr>
XVAIDCNLVLTVFM-UHFFFAOYSA-N

> <Salt_Solvent>


> <Salt_Solvent_ID>
0

> <MPID>
99281

> <KocRef>
Schuurmann-Main

> <LogKOC>
1.4

> <Tr_1_Tst_0>
0

$$$$
100005
  Mrv171c012251911022D          

 12 11  0  0  0  0            999 V2000
    0.9717   -1.7855    0.0000 P   0  0  0  0  0  0  0  0  0  0  0  0
    0.2573   -2.1980    0.0000 O   0  0  0  0  0  0  0  0  0  0  0  0
    0.2573   -3.0230    0.0000 C   0  0  0  0  0  0  0  0  0  0  0  0
    1.3842   -2.4999    0.0000 O   0  0  0  0  0  0  0  0  0  0  0  0
    2.2092   -2.4999    0.0000 C   0  0  0  0  0  0  0  0  0  0  0  0
    0.5592   -1.0710    0.0000 O   0  0  0  0  0  0  0  0  0  0  0  0
    1.6862   -1.3730    0.0000 C   0  0  0  0  0  0  0  0  0  0  0  0
    2.4007   -1.7855    0.0000 O   0  0  0  0  0  0  0  0  0  0  0  0
    1.6862   -0.5480    0.0000 C   0  0  0  0  0  0  0  0  0  0  0  0
    1.6862    0.2770    0.0000 Cl  0  0  0  0  0  0  0  0  0  0  0  0
    2.5112   -0.5480    0.0000 Cl  0  0  0  0  0  0  0  0  0  0  0  0
    0.8612   -0.5480    0.0000 Cl  0  0  0  0  0  0  0  0  0  0  0  0
  1  2  1  0  0  0  0
  2  3  1  0  0  0  0
  1  4  1  0  0  0  0
  4  5  1  0  0  0  0
  1  6  2  0  0  0  0
  1  7  1  0  0  0  0
  7  8  1  0  0  0  0
  7  9  1  0  0  0  0
  9 10  1  0  0  0  0
  9 11  1  0  0  0  0
  9 12  1  0  0  0  0
M  END
> <ChemID>
100005

> <CAS>
52-68-6

> <Original_SMILES>
COP(=O)(OC)C(O)C(Cl)(Cl)Cl

> <preferred_name>
Trichlorfon

> <dsstox_substance_id>
DTXSID0021389

> <dsstox_compound_id>
DTXCID701389

> <qc_level>
DSSTox_Low

> <Canonical_QSARr>
COP(=O)(OC)C(O)C(Cl)(Cl)Cl

> <InChI_Code_QSARr>
InChI=1S/C4H8Cl3O4P/c1-10-12(9,11-2)3(8)4(5,6)7/h3,8H,1-2H3

> <InChI Key_QSARr>
NFACJZMKEDPNKN-UHFFFAOYSA-N

> <Salt_Solvent>


> <Salt_Solvent_ID>
0

> <MPID>
99282

> <KocRef>
Schuurmann-Main

> <LogKOC>
1.9

> <Tr_1_Tst_0>
1

$$$$
100006
  Mrv171c012251911022D          

 22 26  0  0  0  0            999 V2000
    3.7119   -2.1422    0.0000 C   0  0  0  0  0  0  0  0  0  0  0  0
    4.1244   -1.4277    0.0000 C   0  0  0  0  0  0  0  0  0  0  0  0
    4.9494   -1.4277    0.0000 C   0  0  0  0  0  0  0  0  0  0  0  0
    5.3619   -2.1422    0.0000 C   0  0  0  0  0  0  0  0  0  0  0  0
    6.1869   -2.1422    0.0000 C   0  0  0  0  0  0  0  0  0  0  0  0
    6.5994   -1.4277    0.0000 C   0  0  0  0  0  0  0  0  0  0  0  0
    6.1869   -0.7133    0.0000 C   0  0  0  0  0  0  0  0  0  0  0  0
    5.3619   -0.7133    0.0000 C   0  0  0  0  0  0  0  0  0  0  0  0
    4.9494    0.0012    0.0000 C   0  0  0  0  0  0  0  0  0  0  0  0
    4.1244    0.0012    0.0000 C   0  0  0  0  0  0  0  0  0  0  0  0
    3.7119   -0.7133    0.0000 C   0  0  0  0  0  0  0  0  0  0  0  0
    2.8869   -0.7133    0.0000 C   0  0  0  0  0  0  0  0  0  0  0  0
    2.4744   -1.4277    0.0000 C   0  0  0  0  0  0  0  0  0  0  0  0
    1.6494   -1.4277    0.0000 C   0  0  0  0  0  0  0  0  0  0  0  0
    1.2369   -0.7133    0.0000 C   0  0  0  0  0  0  0  0  0  0  0  0
    0.4119   -0.7133    0.0000 C   0  0  0  0  0  0  0  0  0  0  0  0
   -0.0006   -1.4277    0.0000 C   0  0  0  0  0  0  0  0  0  0  0  0
    0.4119   -2.1422    0.0000 C   0  0  0  0  0  0  0  0  0  0  0  0
    1.2369   -2.1422    0.0000 C   0  0  0  0  0  0  0  0  0  0  0  0
    1.6494   -2.8567    0.0000 C   0  0  0  0  0  0  0  0  0  0  0  0
    2.4744   -2.8567    0.0000 C   0  0  0  0  0  0  0  0  0  0  0  0
    2.8869   -2.1422    0.0000 C   0  0  0  0  0  0  0  0  0  0  0  0
  2  1  1  0  0  0  0
  2  3  2  0  0  0  0
  4  3  1  0  0  0  0
  5  4  2  0  0  0  0
  6  5  1  0  0  0  0
  7  6  2  0  0  0  0
  8  7  1  0  0  0  0
  3  8  1  0  0  0  0
  8  9  2  0  0  0  0
  9 10  1  0  0  0  0
 10 11  2  0  0  0  0
 11  2  1  0  0  0  0
 12 11  1  0  0  0  0
 13 12  2  0  0  0  0
 13 14  1  0  0  0  0
 15 14  2  0  0  0  0
 16 15  1  0  0  0  0
 17 16  2  0  0  0  0
 18 17  1  0  0  0  0
 19 18  2  0  0  0  0
 14 19  1  0  0  0  0
 19 20  1  0  0  0  0
 20 21  2  0  0  0  0
 21 22  1  0  0  0  0
  1 22  2  0  0  0  0
 22 13  1  0  0  0  0
M  END
> <ChemID>
100006

> <CAS>
53-70-3

> <Original_SMILES>
c1c2c3ccccc3ccc2cc2c3ccccc3ccc21

> <preferred_name>
Dibenz(a,h)anthracene

> <dsstox_substance_id>
DTXSID9020409

> <dsstox_compound_id>
DTXCID10409

> <qc_level>
DSSTox_Low

> <Canonical_QSARr>
C1=C2C3=CC=CC=C3C=CC2=CC2=C3C=CC=CC3=CC=C21

> <InChI_Code_QSARr>
InChI=1S/C22H14/c1-3-7-19-15(5-1)9-11-17-14-22-18(13-21(17)19)12-10-16-6-2-4-8-20(16)22/h1-14H

> <InChI Key_QSARr>
LHRCREOYAASXPZ-UHFFFAOYSA-N

> <Salt_Solvent>


> <Salt_Solvent_ID>
0

> <MPID>
99283

> <KocRef>
Schuurmann-Main

> <LogKOC>
6.22

> <Tr_1_Tst_0>
1

$$$$
100007
  Mrv171c012251911022D          

 17 19  0  0  0  0            999 V2000
    2.8751   -1.2058    0.0000 C   0  0  0  0  0  0  0  0  0  0  0  0
    3.4272   -0.5927    0.0000 C   0  0  0  0  0  0  0  0  0  0  0  0
    4.2341   -0.7643    0.0000 C   0  0  0  0  0  0  0  0  0  0  0  0
    4.4891   -1.5489    0.0000 C   0  0  0  0  0  0  0  0  0  0  0  0
    5.2961   -1.7204    0.0000 N   0  0  0  0  0  0  0  0  0  0  0  0
    5.8481   -1.1073    0.0000 C   0  0  0  0  0  0  0  0  0  0  0  0
    6.6551   -1.2789    0.0000 O   0  0  0  0  0  0  0  0  0  0  0  0
    5.5931   -0.3227    0.0000 C   0  0  0  0  0  0  0  0  0  0  0  0
    3.9370   -2.1620    0.0000 C   0  0  0  0  0  0  0  0  0  0  0  0
    3.1301   -1.9905    0.0000 C   0  0  0  0  0  0  0  0  0  0  0  0
    2.4626   -2.4754    0.0000 C   0  0  0  0  0  0  0  0  0  0  0  0
    1.7952   -1.9905    0.0000 C   0  0  0  0  0  0  0  0  0  0  0  0
    0.9882   -2.1620    0.0000 C   0  0  0  0  0  0  0  0  0  0  0  0
    0.4362   -1.5489    0.0000 C   0  0  0  0  0  0  0  0  0  0  0  0
    0.6911   -0.7643    0.0000 C   0  0  0  0  0  0  0  0  0  0  0  0
    1.4981   -0.5927    0.0000 C   0  0  0  0  0  0  0  0  0  0  0  0
    2.0501   -1.2058    0.0000 C   0  0  0  0  0  0  0  0  0  0  0  0
  2  1  2  0  0  0  0
  3  2  1  0  0  0  0
  4  3  2  0  0  0  0
  4  5  1  0  0  0  0
  5  6  1  0  0  0  0
  6  7  2  0  0  0  0
  6  8  1  0  0  0  0
  9  4  1  0  0  0  0
 10  9  2  0  0  0  0
 10  1  1  0  0  0  0
 11 10  1  0  0  0  0
 12 11  1  0  0  0  0
 12 13  1  0  0  0  0
 13 14  2  0  0  0  0
 14 15  1  0  0  0  0
 15 16  2  0  0  0  0
 16 17  1  0  0  0  0
  1 17  1  0  0  0  0
 17 12  2  0  0  0  0
M  END
> <ChemID>
100007

> <CAS>
53-96-3

> <Original_SMILES>
CC(=O)Nc1cc2Cc3ccccc3-c2cc1

> <preferred_name>
2-Acetylaminofluorene

> <dsstox_substance_id>
DTXSID0039227

> <dsstox_compound_id>
DTXCID7018

> <qc_level>
DSSTox_Low

> <Canonical_QSARr>
CC(=O)NC1C=C2CC3C=CC=CC=3C2=CC=1

> <InChI_Code_QSARr>
InChI=1S/C15H13NO/c1-10(17)16-13-6-7-15-12(9-13)8-11-4-2-3-5-14(11)15/h2-7,9H,8H2,1H3,(H,16,17)

> <InChI Key_QSARr>
CZIHNRWJTSTCEX-UHFFFAOYSA-N

> <Salt_Solvent>


> <Salt_Solvent_ID>
0

> <MPID>
99284

> <KocRef>
Schuurmann-Main

> <LogKOC>
3.14

> <Tr_1_Tst_0>
1

$$$$
100008
  Mrv171c012251911022D          

 12 13  0  0  0  0            999 V2000
    1.2348   -2.1775    0.0000 N   0  0  0  0  0  0  0  0  0  0  0  0
    0.4502   -1.9226    0.0000 C   0  0  0  0  0  0  0  0  0  0  0  0
    1.4897   -2.9622    0.0000 C   0  0  0  0  0  0  0  0  0  0  0  0
    2.3147   -2.9622    0.0000 C   0  0  0  0  0  0  0  0  0  0  0  0
    2.5697   -2.1775    0.0000 C   0  0  0  0  0  0  0  0  0  0  0  0
    1.9022   -1.6926    0.0000 C   0  0  0  0  0  0  0  0  0  0  0  0
    1.9022   -0.8676    0.0000 C   0  0  0  0  0  0  0  0  0  0  0  0
    2.6167   -0.4551    0.0000 C   0  0  0  0  0  0  0  0  0  0  0  0
    2.6167    0.3699    0.0000 C   0  0  0  0  0  0  0  0  0  0  0  0
    1.9022    0.7824    0.0000 C   0  0  0  0  0  0  0  0  0  0  0  0
    1.1877    0.3699    0.0000 N   0  0  0  0  0  0  0  0  0  0  0  0
    1.1877   -0.4551    0.0000 C   0  0  0  0  0  0  0  0  0  0  0  0
  1  2  1  0  0  0  0
  3  1  1  0  0  0  0
  4  3  1  0  0  0  0
  5  4  1  0  0  0  0
  6  5  1  0  0  0  0
  1  6  1  0  0  0  0
  6  7  1  0  0  0  0
  8  7  1  0  0  0  0
  9  8  2  0  0  0  0
 10  9  1  0  0  0  0
 11 10  2  0  0  0  0
 12 11  1  0  0  0  0
  7 12  2  0  0  0  0
M  END
> <ChemID>
100008

> <CAS>
54-11-5

> <Original_SMILES>
CN1CCC[C@H]1c1c[n]ccc1

> <preferred_name>
Nicotine

> <dsstox_substance_id>
DTXSID1020930

> <dsstox_compound_id>
DTXCID50930

> <qc_level>
DSSTox_Low

> <Canonical_QSARr>
CN1CCCC1C1=CN=CC=C1

> <InChI_Code_QSARr>
InChI=1S/C10H14N2/c1-12-7-3-5-10(12)9-4-2-6-11-8-9/h2,4,6,8,10H,3,5,7H2,1H3

> <InChI Key_QSARr>
SNICXCGAKADSCV-UHFFFAOYSA-N

> <Salt_Solvent>


> <Salt_Solvent_ID>
0

> <MPID>
99285

> <KocRef>
Schuurmann-Main

> <LogKOC>
2.01

> <Tr_1_Tst_0>
0

$$$$
100009
  Mrv171c012251911022D          

  9  9  0  0  0  0            999 V2000
    2.1337   -0.9436    0.0000 C   0  0  0  0  0  0  0  0  0  0  0  0
    1.4193   -0.5311    0.0000 C   0  0  0  0  0  0  0  0  0  0  0  0
    1.4193    0.2939    0.0000 C   0  0  0  0  0  0  0  0  0  0  0  0
    0.7048    0.7064    0.0000 N   0  0  0  0  0  0  0  0  0  0  0  0
    2.1337    0.7064    0.0000 O   0  0  0  0  0  0  0  0  0  0  0  0
    0.7048   -0.9436    0.0000 C   0  0  0  0  0  0  0  0  0  0  0  0
    0.7048   -1.7686    0.0000 C   0  0  0  0  0  0  0  0  0  0  0  0
    1.4193   -2.1811    0.0000 C   0  0  0  0  0  0  0  0  0  0  0  0
    2.1337   -1.7686    0.0000 C   0  0  0  0  0  0  0  0  0  0  0  0
  2  1  1  0  0  0  0
  2  3  1  0  0  0  0
  3  4  1  0  0  0  0
  3  5  2  0  0  0  0
  6  2  2  0  0  0  0
  7  6  1  0  0  0  0
  8  7  2  0  0  0  0
  9  8  1  0  0  0  0
  1  9  2  0  0  0  0
M  END
> <ChemID>
100009

> <CAS>
55-21-0

> <Original_SMILES>
NC(=O)c1ccccc1

> <preferred_name>
Benzamide

> <dsstox_substance_id>
DTXSID0021709

> <dsstox_compound_id>
DTXCID101709

> <qc_level>
DSSTox_Low

> <Canonical_QSARr>
NC(=O)C1C=CC=CC=1

> <InChI_Code_QSARr>
InChI=1S/C7H7NO/c8-7(9)6-4-2-1-3-5-6/h1-5H,(H2,8,9)

> <InChI Key_QSARr>
KXDAEFPNCMNJSK-UHFFFAOYSA-N

> <Salt_Solvent>


> <Salt_Solvent_ID>
0

> <MPID>
99286

> <KocRef>
SRC 1992 Validation

> <LogKOC>
1.46

> <Tr_1_Tst_0>
1

$$$$
100010
  Mrv171c012251911022D          

 16 16  0  0  0  0            999 V2000
    3.9709   -2.3001    0.0000 S   0  0  0  0  0  0  0  0  0  0  0  0
    4.3834   -3.0146    0.0000 P   0  0  0  0  0  0  0  0  0  0  0  0
    3.6690   -3.4271    0.0000 O   0  0  0  0  0  0  0  0  0  0  0  0
    3.6690   -4.2521    0.0000 C   0  0  0  0  0  0  0  0  0  0  0  0
    4.7959   -3.7291    0.0000 O   0  0  0  0  0  0  0  0  0  0  0  0
    4.3834   -4.4436    0.0000 C   0  0  0  0  0  0  0  0  0  0  0  0
    5.0979   -2.6021    0.0000 O   0  0  0  0  0  0  0  0  0  0  0  0
    5.0979   -1.7771    0.0000 C   0  0  0  0  0  0  0  0  0  0  0  0
    5.8124   -1.3646    0.0000 C   0  0  0  0  0  0  0  0  0  0  0  0
    5.8124   -0.5396    0.0000 C   0  0  0  0  0  0  0  0  0  0  0  0
    5.0979   -0.1271    0.0000 C   0  0  0  0  0  0  0  0  0  0  0  0
    5.0979    0.6979    0.0000 S   0  0  0  0  0  0  0  0  0  0  0  0
    4.3834    1.1104    0.0000 C   0  0  0  0  0  0  0  0  0  0  0  0
    4.3834   -0.5396    0.0000 C   0  0  0  0  0  0  0  0  0  0  0  0
    3.6690   -0.1271    0.0000 C   0  0  0  0  0  0  0  0  0  0  0  0
    4.3834   -1.3646    0.0000 C   0  0  0  0  0  0  0  0  0  0  0  0
  1  2  2  0  0  0  0
  2  3  1  0  0  0  0
  3  4  1  0  0  0  0
  2  5  1  0  0  0  0
  5  6  1  0  0  0  0
  2  7  1  0  0  0  0
  7  8  1  0  0  0  0
  9  8  1  0  0  0  0
 10  9  2  0  0  0  0
 11 10  1  0  0  0  0
 11 12  1  0  0  0  0
 12 13  1  0  0  0  0
 14 11  2  0  0  0  0
 14 15  1  0  0  0  0
 16 14  1  0  0  0  0
  8 16  2  0  0  0  0
M  END
> <ChemID>
100010

> <CAS>
55-38-9

> <Original_SMILES>
Cc1cc(ccc1SC)OP(=S)(OC)OC

> <preferred_name>
Fenthion

> <dsstox_substance_id>
DTXSID8020620

> <dsstox_compound_id>
DTXCID00620

> <qc_level>
DSSTox_High

> <Canonical_QSARr>
CC1C=C(C=CC=1SC)OP(=S)(OC)OC

> <InChI_Code_QSARr>
InChI=1S/C10H15O3PS2/c1-8-7-9(5-6-10(8)16-4)13-14(15,11-2)12-3/h5-7H,1-4H3

> <InChI Key_QSARr>
PNVJTZOFSHSLTO-UHFFFAOYSA-N

> <Salt_Solvent>


> <Salt_Solvent_ID>
0

> <MPID>
99287

> <KocRef>
Schuurmann-Main

> <LogKOC>
3.18

> <Tr_1_Tst_0>
1

$$$$
100011
  Mrv171c012251911022D          

  9  9  0  0  0  0            999 V2000
    1.4290    0.8250    0.0000 N   0  0  0  0  0  0  0  0  0  0  0  0
    0.7145    1.2375    0.0000 C   0  0  0  0  0  0  0  0  0  0  0  0
    0.7145    2.0625    0.0000 S   0  0  0  0  0  0  0  0  0  0  0  0
    0.0000    0.8250    0.0000 N   0  0  0  0  0  0  0  0  0  0  0  0
    0.0000    0.0000    0.0000 C   0  0  0  0  0  0  0  0  0  0  0  0
   -0.7144   -0.4125    0.0000 O   0  0  0  0  0  0  0  0  0  0  0  0
    0.7145   -0.4125    0.0000 C   0  0  0  0  0  0  0  0  0  0  0  0
    1.4290    0.0000    0.0000 C   0  0  0  0  0  0  0  0  0  0  0  0
    2.1434   -0.4125    0.0000 C   0  0  0  0  0  0  0  0  0  0  0  0
  2  1  1  0  0  0  0
  2  3  2  0  0  0  0
  4  2  1  0  0  0  0
  5  4  1  0  0  0  0
  5  6  2  0  0  0  0
  7  5  1  0  0  0  0
  8  7  1  0  0  0  0
  1  8  2  0  0  0  0
  8  9  1  0  0  0  0
M  END
> <ChemID>
100011

> <CAS>
56-04-2

> <Original_SMILES>
CC1=CC(=O)NC(=S)N1

> <preferred_name>
6-Methyl-2-thiouracil

> <dsstox_substance_id>
DTXSID2020890

> <dsstox_compound_id>
DTXCID60890

> <qc_level>
DSSTox_High

> <Canonical_QSARr>
CC1CC(=O)NC(=S)N=1

> <InChI_Code_QSARr>
InChI=1S/C5H6N2OS/c1-3-2-4(8)7-5(9)6-3/h2H2,1H3,(H,7,8,9)

> <InChI Key_QSARr>
VDIAYBNYJCMVED-UHFFFAOYSA-N

> <Salt_Solvent>


> <Salt_Solvent_ID>
0

> <MPID>
99288

> <KocRef>
Schuurmann-Main

> <LogKOC>
2.14

> <Tr_1_Tst_0>
1

$$$$
100012
  Mrv171c012251911022D          

  5  4  0  0  0  0            999 V2000
    0.8250   -1.6500    0.0000 Cl  0  0  0  0  0  0  0  0  0  0  0  0
    0.8250   -0.8250    0.0000 C   0  0  0  0  0  0  0  0  0  0  0  0
    0.8250    0.0000    0.0000 Cl  0  0  0  0  0  0  0  0  0  0  0  0
    1.6500   -0.8250    0.0000 Cl  0  0  0  0  0  0  0  0  0  0  0  0
    0.0000   -0.8250    0.0000 Cl  0  0  0  0  0  0  0  0  0  0  0  0
  1  2  1  0  0  0  0
  2  3  1  0  0  0  0
  2  4  1  0  0  0  0
  2  5  1  0  0  0  0
M  END
> <ChemID>
100012

> <CAS>
56-23-5

> <Original_SMILES>
ClC(Cl)(Cl)Cl

> <preferred_name>
Carbon tetrachloride

> <dsstox_substance_id>
DTXSID8020250

> <dsstox_compound_id>
DTXCID20250

> <qc_level>
DSSTox_Low

> <Canonical_QSARr>
ClC(Cl)(Cl)Cl

> <InChI_Code_QSARr>
InChI=1S/CCl4/c2-1(3,4)5

> <InChI Key_QSARr>
VZGDMQKNWNREIO-UHFFFAOYSA-N

> <Salt_Solvent>


> <Salt_Solvent_ID>
0

> <MPID>
99289

> <KocRef>
SRC 1992 Non-Polar

> <LogKOC>
1.85

> <Tr_1_Tst_0>
0

$$$$
100013
  Mrv171c012251911022D          

 18 18  0  0  0  0            999 V2000
    2.3786   -1.4485    0.0000 S   0  0  0  0  0  0  0  0  0  0  0  0
    2.7911   -2.1629    0.0000 P   0  0  0  0  0  0  0  0  0  0  0  0
    2.0766   -2.5754    0.0000 O   0  0  0  0  0  0  0  0  0  0  0  0
    2.0766   -3.4004    0.0000 C   0  0  0  0  0  0  0  0  0  0  0  0
    1.3621   -3.8129    0.0000 C   0  0  0  0  0  0  0  0  0  0  0  0
    3.2036   -2.8774    0.0000 O   0  0  0  0  0  0  0  0  0  0  0  0
    2.7911   -3.5919    0.0000 C   0  0  0  0  0  0  0  0  0  0  0  0
    3.2036   -4.3063    0.0000 C   0  0  0  0  0  0  0  0  0  0  0  0
    3.5055   -1.7504    0.0000 O   0  0  0  0  0  0  0  0  0  0  0  0
    3.5055   -0.9254    0.0000 C   0  0  0  0  0  0  0  0  0  0  0  0
    4.2200   -0.5129    0.0000 C   0  0  0  0  0  0  0  0  0  0  0  0
    4.2200    0.3121    0.0000 C   0  0  0  0  0  0  0  0  0  0  0  0
    3.5055    0.7246    0.0000 C   0  0  0  0  0  0  0  0  0  0  0  0
    3.5055    1.5496    0.0000 N   0  3  0  0  0  0  0  0  0  0  0  0
    2.7911    1.9621    0.0000 O   0  5  0  0  0  0  0  0  0  0  0  0
    4.2200    1.9621    0.0000 O   0  0  0  0  0  0  0  0  0  0  0  0
    2.7911    0.3121    0.0000 C   0  0  0  0  0  0  0  0  0  0  0  0
    2.7911   -0.5129    0.0000 C   0  0  0  0  0  0  0  0  0  0  0  0
  1  2  2  0  0  0  0
  2  3  1  0  0  0  0
  3  4  1  0  0  0  0
  4  5  1  0  0  0  0
  2  6  1  0  0  0  0
  6  7  1  0  0  0  0
  7  8  1  0  0  0  0
  2  9  1  0  0  0  0
  9 10  1  0  0  0  0
 11 10  1  0  0  0  0
 12 11  2  0  0  0  0
 13 12  1  0  0  0  0
 13 14  1  0  0  0  0
 14 15  1  0  0  0  0
 14 16  2  0  0  0  0
 17 13  2  0  0  0  0
 18 17  1  0  0  0  0
 10 18  2  0  0  0  0
M  CHG  2  14   1  15  -1
M  END
> <ChemID>
100013

> <CAS>
56-38-2

> <Original_SMILES>
CCOP(=S)(Oc1ccc(cc1)[N+]([O-])=O)OCC

> <preferred_name>
Parathion

> <dsstox_substance_id>
DTXSID7021100

> <dsstox_compound_id>
DTXCID301100

> <qc_level>
DSSTox_Low

> <Canonical_QSARr>
CCOP(=S)(OC1C=CC(=CC=1)[N+]([O-])=O)OCC

> <InChI_Code_QSARr>
InChI=1S/C10H14NO5PS/c1-3-14-17(18,15-4-2)16-10-7-5-9(6-8-10)11(12)13/h5-8H,3-4H2,1-2H3

> <InChI Key_QSARr>
LCCNCVORNKJIRZ-UHFFFAOYSA-N

> <Salt_Solvent>


> <Salt_Solvent_ID>
0

> <MPID>
99290

> <KocRef>
Schuurmann-Main

> <LogKOC>
3.2

> <Tr_1_Tst_0>
1

$$$$
100014
  Mrv171c012251911022D          

 21 25  0  0  0  0            999 V2000
   -0.1803   -1.6094    0.0000 C   0  0  0  0  0  0  0  0  0  0  0  0
    0.5896   -1.3132    0.0000 C   0  0  0  0  0  0  0  0  0  0  0  0
    0.7181   -0.4983    0.0000 C   0  0  0  0  0  0  0  0  0  0  0  0
    1.4881   -0.2020    0.0000 C   0  0  0  0  0  0  0  0  0  0  0  0
    2.1296   -0.7207    0.0000 C   0  0  0  0  0  0  0  0  0  0  0  0
    2.0012   -1.5357    0.0000 C   0  0  0  0  0  0  0  0  0  0  0  0
    2.5208   -2.1764    0.0000 C   0  0  0  0  0  0  0  0  0  0  0  0
    3.3356   -2.0467    0.0000 C   0  0  0  0  0  0  0  0  0  0  0  0
    3.8553   -2.6875    0.0000 C   0  0  0  0  0  0  0  0  0  0  0  0
    4.6700   -2.5578    0.0000 C   0  0  0  0  0  0  0  0  0  0  0  0
    4.9651   -1.7874    0.0000 C   0  0  0  0  0  0  0  0  0  0  0  0
    5.7798   -1.6577    0.0000 C   0  0  0  0  0  0  0  0  0  0  0  0
    6.0749   -0.8873    0.0000 C   0  0  0  0  0  0  0  0  0  0  0  0
    5.5552   -0.2465    0.0000 C   0  0  0  0  0  0  0  0  0  0  0  0
    4.7405   -0.3762    0.0000 C   0  0  0  0  0  0  0  0  0  0  0  0
    4.4454   -1.1466    0.0000 C   0  0  0  0  0  0  0  0  0  0  0  0
    3.6306   -1.2763    0.0000 C   0  0  0  0  0  0  0  0  0  0  0  0
    3.1110   -0.6356    0.0000 C   0  0  0  0  0  0  0  0  0  0  0  0
    2.0720   -2.8687    0.0000 C   0  0  0  0  0  0  0  0  0  0  0  0
    1.2750   -2.6557    0.0000 C   0  0  0  0  0  0  0  0  0  0  0  0
    1.2312   -1.8319    0.0000 C   0  0  0  0  0  0  0  0  0  0  0  0
  1  2  1  0  0  0  0
  3  2  1  0  0  0  0
  4  3  2  0  0  0  0
  5  4  1  0  0  0  0
  5  6  2  0  0  0  0
  6  7  1  0  0  0  0
  7  8  2  0  0  0  0
  9  8  1  0  0  0  0
 10  9  2  0  0  0  0
 11 10  1  0  0  0  0
 11 12  2  0  0  0  0
 12 13  1  0  0  0  0
 13 14  2  0  0  0  0
 14 15  1  0  0  0  0
 15 16  2  0  0  0  0
 16 11  1  0  0  0  0
 17 16  1  0  0  0  0
  8 17  1  0  0  0  0
 17 18  2  0  0  0  0
 18  5  1  0  0  0  0
  7 19  1  0  0  0  0
 19 20  1  0  0  0  0
 20 21  1  0  0  0  0
  2 21  2  0  0  0  0
 21  6  1  0  0  0  0
M  END
> <ChemID>
100014

> <CAS>
56-49-5

> <Original_SMILES>
Cc1ccc2cc3c(ccc4ccccc43)c3CCc1c32

> <preferred_name>
3-Methylcholanthrene

> <dsstox_substance_id>
DTXSID0020862

> <dsstox_compound_id>
DTXCID60862

> <qc_level>
DSSTox_Low

> <Canonical_QSARr>
CC1C=CC2C=C3C4=CC=CC=C4C=CC3=C3CCC=1C3=2

> <InChI_Code_QSARr>
InChI=1S/C21H16/c1-13-6-7-15-12-20-17-5-3-2-4-14(17)8-9-18(20)19-11-10-16(13)21(15)19/h2-9,12H,10-11H2,1H3

> <InChI Key_QSARr>
PPQNQXQZIWHJRB-UHFFFAOYSA-N

> <Salt_Solvent>


> <Salt_Solvent_ID>
0

> <MPID>
99291

> <KocRef>
Schuurmann-Main

> <LogKOC>
6.1

> <Tr_1_Tst_0>
1

$$$$
100015
  Mrv171c012251911022D          

 20 21  0  0  0  0            999 V2000
   -0.7145   -0.4125    0.0000 C   0  0  0  0  0  0  0  0  0  0  0  0
   -0.7145   -1.2375    0.0000 C   0  0  0  0  0  0  0  0  0  0  0  0
    0.0000   -1.6500    0.0000 C   0  0  0  0  0  0  0  0  0  0  0  0
    0.0000   -2.4750    0.0000 C   0  0  0  0  0  0  0  0  0  0  0  0
    0.7145   -2.8875    0.0000 C   0  0  0  0  0  0  0  0  0  0  0  0
    0.7145   -3.7125    0.0000 C   0  0  0  0  0  0  0  0  0  0  0  0
    0.0000   -4.1250    0.0000 C   0  0  0  0  0  0  0  0  0  0  0  0
    0.0000   -4.9500    0.0000 O   0  0  0  0  0  0  0  0  0  0  0  0
   -0.7145   -3.7125    0.0000 C   0  0  0  0  0  0  0  0  0  0  0  0
   -0.7145   -2.8875    0.0000 C   0  0  0  0  0  0  0  0  0  0  0  0
    0.7145   -1.2375    0.0000 C   0  0  0  0  0  0  0  0  0  0  0  0
    1.4289   -1.6500    0.0000 C   0  0  0  0  0  0  0  0  0  0  0  0
    2.1434   -1.2375    0.0000 C   0  0  0  0  0  0  0  0  0  0  0  0
    0.7145   -0.4125    0.0000 C   0  0  0  0  0  0  0  0  0  0  0  0
    0.0000    0.0000    0.0000 C   0  0  0  0  0  0  0  0  0  0  0  0
    0.0000    0.8250    0.0000 C   0  0  0  0  0  0  0  0  0  0  0  0
    0.7145    1.2375    0.0000 C   0  0  0  0  0  0  0  0  0  0  0  0
    0.7145    2.0625    0.0000 O   0  0  0  0  0  0  0  0  0  0  0  0
    1.4289    0.8250    0.0000 C   0  0  0  0  0  0  0  0  0  0  0  0
    1.4289   -0.0000    0.0000 C   0  0  0  0  0  0  0  0  0  0  0  0
  1  2  1  0  0  0  0
  3  2  1  4  0  0  0
  3  4  1  0  0  0  0
  4  5  1  0  0  0  0
  5  6  2  0  0  0  0
  6  7  1  0  0  0  0
  7  8  1  0  0  0  0
  7  9  2  0  0  0  0
  9 10  1  0  0  0  0
  4 10  2  0  0  0  0
  3 11  2  0  0  0  0
 11 12  1  0  0  0  0
 12 13  1  0  0  0  0
 11 14  1  0  0  0  0
 14 15  1  0  0  0  0
 15 16  2  0  0  0  0
 16 17  1  0  0  0  0
 17 18  1  0  0  0  0
 17 19  2  0  0  0  0
 19 20  1  0  0  0  0
 14 20  2  0  0  0  0
M  END
> <ChemID>
100015

> <CAS>
56-53-1

> <Original_SMILES>
CC/C(/c1ccc(O)cc1)=C(/CC)\c1ccc(O)cc1

> <preferred_name>
Diethylstilbestrol

> <dsstox_substance_id>
DTXSID3020465

> <dsstox_compound_id>
DTXCID10465

> <qc_level>
DSSTox_Low

> <Canonical_QSARr>
CCC(C1C=CC(O)=CC=1)=C(CC)C1C=CC(O)=CC=1

> <InChI_Code_QSARr>
InChI=1S/C18H20O2/c1-3-17(13-5-9-15(19)10-6-13)18(4-2)14-7-11-16(20)12-8-14/h5-12,19-20H,3-4H2,1-2H3

> <InChI Key_QSARr>
RGLYKWWBQGJZGM-UHFFFAOYSA-N

> <Salt_Solvent>


> <Salt_Solvent_ID>
0

> <MPID>
99292

> <KocRef>
Schuurmann-Main

> <LogKOC>
4.14

> <Tr_1_Tst_0>
1

$$$$
100016
  Mrv171c012251911022D          

 18 21  0  0  0  0            999 V2000
    2.8633   -1.7226    0.0000 C   0  0  0  0  0  0  0  0  0  0  0  0
    3.6734   -1.5667    0.0000 C   0  0  0  0  0  0  0  0  0  0  0  0
    3.9434   -0.7872    0.0000 C   0  0  0  0  0  0  0  0  0  0  0  0
    4.7536   -0.6313    0.0000 C   0  0  0  0  0  0  0  0  0  0  0  0
    5.2937   -1.2549    0.0000 C   0  0  0  0  0  0  0  0  0  0  0  0
    5.0236   -2.0345    0.0000 C   0  0  0  0  0  0  0  0  0  0  0  0
    4.2135   -2.1904    0.0000 C   0  0  0  0  0  0  0  0  0  0  0  0
    3.9434   -2.9699    0.0000 C   0  0  0  0  0  0  0  0  0  0  0  0
    3.1333   -3.1258    0.0000 C   0  0  0  0  0  0  0  0  0  0  0  0
    2.5932   -2.5022    0.0000 C   0  0  0  0  0  0  0  0  0  0  0  0
    1.7831   -2.6581    0.0000 C   0  0  0  0  0  0  0  0  0  0  0  0
    1.2430   -2.0345    0.0000 C   0  0  0  0  0  0  0  0  0  0  0  0
    0.4329   -2.1904    0.0000 C   0  0  0  0  0  0  0  0  0  0  0  0
   -0.1072   -1.5667    0.0000 C   0  0  0  0  0  0  0  0  0  0  0  0
    0.1628   -0.7872    0.0000 C   0  0  0  0  0  0  0  0  0  0  0  0
    0.9730   -0.6313    0.0000 C   0  0  0  0  0  0  0  0  0  0  0  0
    1.5130   -1.2549    0.0000 C   0  0  0  0  0  0  0  0  0  0  0  0
    2.3232   -1.0990    0.0000 C   0  0  0  0  0  0  0  0  0  0  0  0
  2  1  1  0  0  0  0
  2  3  1  0  0  0  0
  3  4  2  0  0  0  0
  4  5  1  0  0  0  0
  5  6  2  0  0  0  0
  6  7  1  0  0  0  0
  7  2  2  0  0  0  0
  8  7  1  0  0  0  0
  9  8  2  0  0  0  0
 10  9  1  0  0  0  0
 10  1  1  0  0  0  0
 11 10  2  0  0  0  0
 12 11  1  0  0  0  0
 12 13  1  0  0  0  0
 13 14  2  0  0  0  0
 14 15  1  0  0  0  0
 15 16  2  0  0  0  0
 16 17  1  0  0  0  0
 17 12  2  0  0  0  0
 18 17  1  0  0  0  0
  1 18  2  0  0  0  0
M  END
> <ChemID>
100016

> <CAS>
56-55-3

> <Original_SMILES>
c1c2c3ccccc3ccc2cc2ccccc21

> <preferred_name>
Benz(a)anthracene

> <dsstox_substance_id>
DTXSID5023902

> <dsstox_compound_id>
DTXCID903902

> <qc_level>
DSSTox_Low

> <Canonical_QSARr>
C1=C2C3C=CC=CC=3C=CC2=CC2C=CC=CC=21

> <InChI_Code_QSARr>
InChI=1S/C18H12/c1-2-7-15-12-18-16(11-14(15)6-1)10-9-13-5-3-4-8-17(13)18/h1-12H

> <InChI Key_QSARr>
DXBHBZVCASKNBY-UHFFFAOYSA-N

> <Salt_Solvent>


> <Salt_Solvent_ID>
0

> <MPID>
99293

> <KocRef>
Schuurmann-Main

> <LogKOC>
5.3

> <Tr_1_Tst_0>
0

$$$$
100017
  Mrv171c012251911022D          

  4  3  0  0  0  0            999 V2000
    0.8246   -0.7143    0.0000 C   0  0  0  0  0  0  0  0  0  0  0  0
    1.2371    0.0002    0.0000 O   0  0  0  0  0  0  0  0  0  0  0  0
    1.2371   -1.4287    0.0000 N   0  0  0  0  0  0  0  0  0  0  0  0
   -0.0004   -0.7143    0.0000 N   0  0  0  0  0  0  0  0  0  0  0  0
  1  2  2  0  0  0  0
  1  3  1  0  0  0  0
  1  4  1  0  0  0  0
M  END
> <ChemID>
100017

> <CAS>
57-13-6

> <Original_SMILES>
NC(N)=O

> <preferred_name>
Urea

> <dsstox_substance_id>
DTXSID4021426

> <dsstox_compound_id>
DTXCID901426

> <qc_level>
DSSTox_Low

> <Canonical_QSARr>
NC(N)=O

> <InChI_Code_QSARr>
InChI=1S/CH4N2O/c2-1(3)4/h(H4,2,3,4)

> <InChI Key_QSARr>
XSQUKJJJFZCRTK-UHFFFAOYSA-N

> <Salt_Solvent>


> <Salt_Solvent_ID>
0

> <MPID>
99294

> <KocRef>
Schuurmann-Main

> <LogKOC>
0.15

> <Tr_1_Tst_0>
1

$$$$
100018
  Mrv171c012251911022D          

  5  4  0  0  0  0            999 V2000
    2.2164   -0.9681    0.0000 C   0  0  0  0  0  0  0  0  0  0  0  0
    1.3914   -0.9681    0.0000 C   0  0  0  0  0  0  0  0  0  0  0  0
    0.9789   -1.6826    0.0000 O   0  0  0  0  0  0  0  0  0  0  0  0
    0.9789   -0.2536    0.0000 C   0  0  0  0  0  0  0  0  0  0  0  0
    0.1539   -0.2536    0.0000 O   0  0  0  0  0  0  0  0  0  0  0  0
  1  2  1  0  0  0  0
  2  3  1  0  0  0  0
  2  4  1  0  0  0  0
  4  5  1  0  0  0  0
M  END
> <ChemID>
100018

> <CAS>
57-55-6

> <Original_SMILES>
CC(O)CO

> <preferred_name>
1,2-Propylene glycol

> <dsstox_substance_id>
DTXSID0021206

> <dsstox_compound_id>
DTXCID901206

> <qc_level>
DSSTox_High

> <Canonical_QSARr>
CC(O)CO

> <InChI_Code_QSARr>
InChI=1S/C3H8O2/c1-3(5)2-4/h3-5H,2H2,1H3

> <InChI Key_QSARr>
DNIAPMSPPWPWGF-UHFFFAOYSA-N

> <Salt_Solvent>


> <Salt_Solvent_ID>
0

> <MPID>
99295

> <KocRef>
Schuurmann-Main

> <LogKOC>
0.36

> <Tr_1_Tst_0>
1

$$$$
100019
  Mrv171c012251911022D          

 18 20  0  0  0  0            999 V2000
    1.3175   -1.5147    0.0000 C   0  0  0  0  0  0  0  0  0  0  0  0
    0.4609   -1.4936    0.0000 Cl  0  0  0  0  0  0  0  0  0  0  0  0
    1.7956   -2.1870    0.0000 C   0  0  0  0  0  0  0  0  0  0  0  0
    1.3151   -2.9094    0.0000 Cl  0  0  0  0  0  0  0  0  0  0  0  0
    2.4995   -2.0217    0.0000 C   0  0  0  0  0  0  0  0  0  0  0  0
    3.2930   -2.3598    0.0000 C   0  0  0  0  0  0  0  0  0  0  0  0
    3.5861   -3.1936    0.0000 Cl  0  0  0  0  0  0  0  0  0  0  0  0
    3.5077   -1.5369    0.0000 C   0  0  0  0  0  0  0  0  0  0  0  0
    2.8824   -2.3390    0.0000 Cl  0  0  0  0  0  0  0  0  0  0  0  0
    2.8734   -0.6796    0.0000 Cl  0  0  0  0  0  0  0  0  0  0  0  0
    3.3098   -0.7099    0.0000 C   0  0  0  0  0  0  0  0  0  0  0  0
    3.5557    0.1537    0.0000 Cl  0  0  0  0  0  0  0  0  0  0  0  0
    2.5912   -1.1151    0.0000 C   0  0  0  0  0  0  0  0  0  0  0  0
    1.8092   -0.8522    0.0000 C   0  0  0  0  0  0  0  0  0  0  0  0
    4.0200   -1.1296    0.0000 C   0  0  0  0  0  0  0  0  0  0  0  0
    4.7861   -0.7240    0.0000 Cl  0  0  0  0  0  0  0  0  0  0  0  0
    4.0117   -1.9546    0.0000 C   0  0  0  0  0  0  0  0  0  0  0  0
    4.7785   -2.3615    0.0000 Cl  0  0  0  0  0  0  0  0  0  0  0  0
  1  2  1  0  0  0  0
  3  1  1  0  0  0  0
  3  4  1  0  0  0  0
  5  3  1  0  0  0  0
  5  6  1  0  0  0  0
  6  7  1  0  0  0  0
  8  6  1  0  0  0  0
  8  9  1  0  0  0  0
  8 10  1  0  0  0  0
 11  8  1  0  0  0  0
 11 12  1  0  0  0  0
 11 13  1  0  0  0  0
 13  5  1  0  0  0  0
 14 13  1  0  0  0  0
  1 14  1  0  0  0  0
 15 11  1  0  0  0  0
 15 16  1  0  0  0  0
 17 15  2  0  0  0  0
  6 17  1  0  0  0  0
 17 18  1  0  0  0  0
M  END
> <ChemID>
100019

> <CAS>
57-74-9

> <Original_SMILES>
ClC1(Cl)C2(Cl)C3CC(Cl)C(Cl)C3C1(Cl)C(Cl)=C2Cl

> <preferred_name>
Chlordane

> <dsstox_substance_id>
DTXSID7020267

> <dsstox_compound_id>
DTXCID0028117

> <qc_level>
DSSTox_High

> <Canonical_QSARr>
ClC1(Cl)C2(Cl)C3CC(Cl)C(Cl)C3C1(Cl)C(Cl)=C2Cl

> <InChI_Code_QSARr>
InChI=1S/C10H6Cl8/c11-3-1-2-4(5(3)12)9(16)7(14)6(13)8(2,15)10(9,17)18/h2-5H,1H2

> <InChI Key_QSARr>
BIWJNBZANLAXMG-UHFFFAOYSA-N

> <Salt_Solvent>


> <Salt_Solvent_ID>
0

> <MPID>
99296

> <KocRef>
USDA Pest Prop DB

> <LogKOC>
4.78

> <Tr_1_Tst_0>
1

$$$$
100020
  Mrv171c012251911022D          

 20 23  0  0  0  0            999 V2000
    2.7405   -0.0454    0.0000 C   0  0  0  0  0  0  0  0  0  0  0  0
    2.4705   -0.8249    0.0000 C   0  0  0  0  0  0  0  0  0  0  0  0
    3.0106   -1.4486    0.0000 C   0  0  0  0  0  0  0  0  0  0  0  0
    3.8207   -1.2927    0.0000 C   0  0  0  0  0  0  0  0  0  0  0  0
    4.0908   -0.5131    0.0000 C   0  0  0  0  0  0  0  0  0  0  0  0
    4.9009   -0.3572    0.0000 C   0  0  0  0  0  0  0  0  0  0  0  0
    5.4410   -0.9808    0.0000 C   0  0  0  0  0  0  0  0  0  0  0  0
    5.1709   -1.7604    0.0000 C   0  0  0  0  0  0  0  0  0  0  0  0
    4.3608   -1.9163    0.0000 C   0  0  0  0  0  0  0  0  0  0  0  0
    4.0908   -2.6959    0.0000 C   0  0  0  0  0  0  0  0  0  0  0  0
    3.2806   -2.8518    0.0000 C   0  0  0  0  0  0  0  0  0  0  0  0
    2.7405   -2.2281    0.0000 C   0  0  0  0  0  0  0  0  0  0  0  0
    1.9304   -2.3840    0.0000 C   0  0  0  0  0  0  0  0  0  0  0  0
    1.6604   -3.1636    0.0000 C   0  0  0  0  0  0  0  0  0  0  0  0
    1.3903   -1.7604    0.0000 C   0  0  0  0  0  0  0  0  0  0  0  0
    0.5802   -1.9163    0.0000 C   0  0  0  0  0  0  0  0  0  0  0  0
    0.0401   -1.2927    0.0000 C   0  0  0  0  0  0  0  0  0  0  0  0
    0.3101   -0.5131    0.0000 C   0  0  0  0  0  0  0  0  0  0  0  0
    1.1203   -0.3572    0.0000 C   0  0  0  0  0  0  0  0  0  0  0  0
    1.6604   -0.9808    0.0000 C   0  0  0  0  0  0  0  0  0  0  0  0
  1  2  1  0  0  0  0
  3  2  1  0  0  0  0
  3  4  2  0  0  0  0
  5  4  1  0  0  0  0
  6  5  2  0  0  0  0
  7  6  1  0  0  0  0
  8  7  2  0  0  0  0
  9  8  1  0  0  0  0
  4  9  1  0  0  0  0
  9 10  2  0  0  0  0
 10 11  1  0  0  0  0
 11 12  2  0  0  0  0
 12  3  1  0  0  0  0
 13 12  1  0  0  0  0
 13 14  1  0  0  0  0
 15 13  2  0  0  0  0
 15 16  1  0  0  0  0
 16 17  2  0  0  0  0
 17 18  1  0  0  0  0
 18 19  2  0  0  0  0
 19 20  1  0  0  0  0
  2 20  2  0  0  0  0
 20 15  1  0  0  0  0
M  END
> <ChemID>
100020

> <CAS>
57-97-6

> <Original_SMILES>
Cc1c2ccc3ccccc3c2c(C)c2ccccc12

> <preferred_name>
7,12-Dimethylbenz(a)anthracene

> <dsstox_substance_id>
DTXSID1020510

> <dsstox_compound_id>
DTXCID70510

> <qc_level>
DSSTox_High

> <Canonical_QSARr>
CC1C2=CC=C3C=CC=CC3=C2C(C)=C2C=CC=CC=12

> <InChI_Code_QSARr>
InChI=1S/C20H16/c1-13-16-8-5-6-9-17(16)14(2)20-18(13)12-11-15-7-3-4-10-19(15)20/h3-12H,1-2H3

> <InChI Key_QSARr>
ARSRBNBHOADGJU-UHFFFAOYSA-N

> <Salt_Solvent>


> <Salt_Solvent_ID>
0

> <MPID>
99297

> <KocRef>
Schuurmann-Main

> <LogKOC>
5.37

> <Tr_1_Tst_0>
0

$$$$
100021
  Mrv171c012251911022D          

 12 12  0  0  0  0            999 V2000
    2.1693   -1.2482    0.0000 C   0  0  0  0  0  0  0  0  0  0  0  0
    2.8837   -0.8357    0.0000 Cl  0  0  0  0  0  0  0  0  0  0  0  0
    1.4548   -0.8357    0.0000 C   0  0  0  0  0  0  0  0  0  0  0  0
    1.4548   -0.0107    0.0000 Cl  0  0  0  0  0  0  0  0  0  0  0  0
    0.7403   -1.2482    0.0000 C   0  0  0  0  0  0  0  0  0  0  0  0
    0.0258   -0.8357    0.0000 Cl  0  0  0  0  0  0  0  0  0  0  0  0
    0.7403   -2.0732    0.0000 C   0  0  0  0  0  0  0  0  0  0  0  0
    0.0258   -2.4857    0.0000 Cl  0  0  0  0  0  0  0  0  0  0  0  0
    1.4548   -2.4857    0.0000 C   0  0  0  0  0  0  0  0  0  0  0  0
    1.4548   -3.3107    0.0000 Cl  0  0  0  0  0  0  0  0  0  0  0  0
    2.1693   -2.0732    0.0000 C   0  0  0  0  0  0  0  0  0  0  0  0
    2.8837   -2.4857    0.0000 Cl  0  0  0  0  0  0  0  0  0  0  0  0
  1  2  1  0  0  0  0
  3  1  1  0  0  0  0
  3  4  1  0  0  0  0
  5  3  1  0  0  0  0
  5  6  1  0  0  0  0
  7  5  1  0  0  0  0
  7  8  1  0  0  0  0
  9  7  1  0  0  0  0
  9 10  1  0  0  0  0
 11  9  1  0  0  0  0
  1 11  1  0  0  0  0
 11 12  1  0  0  0  0
M  END
> <ChemID>
100021

> <CAS>
58-89-9|319-84-6

> <Original_SMILES>
Cl[C@@H]1[C@@H](Cl)[C@H](Cl)[C@H](Cl)[C@@H](Cl)[C@@H]1Cl

> <preferred_name>
Lindane|alpha-1,2,3,4,5,6-Hexachlorocyclohexane

> <dsstox_substance_id>
DTXSID2020686|DTXSID2020684

> <dsstox_compound_id>
DTXCID40196532|DTXCID00196533

> <qc_level>
DSSTox_High

> <Canonical_QSARr>
ClC1C(Cl)C(Cl)C(Cl)C(Cl)C1Cl

> <InChI_Code_QSARr>
InChI=1S/C6H6Cl6/c7-1-2(8)4(10)6(12)5(11)3(1)9/h1-6H

> <InChI Key_QSARr>
JLYXXMFPNIAWKQ-UHFFFAOYSA-N

> <Salt_Solvent>


> <Salt_Solvent_ID>
0

> <MPID>
99298|99585

> <KocRef>
Schuurmann-Main|SRC 1992 NonPolar Val

> <LogKOC>
3.17

> <Tr_1_Tst_0>
1

$$$$
100022
  Mrv171c012251911022D          

 11 11  0  0  0  0            999 V2000
    2.8003   -0.5297    0.0000 O   0  0  0  0  0  0  0  0  0  0  0  0
    2.0858   -0.9422    0.0000 C   0  0  0  0  0  0  0  0  0  0  0  0
    1.3713   -0.5297    0.0000 C   0  0  0  0  0  0  0  0  0  0  0  0
    1.3713    0.2953    0.0000 Cl  0  0  0  0  0  0  0  0  0  0  0  0
    0.6569   -0.9422    0.0000 C   0  0  0  0  0  0  0  0  0  0  0  0
    0.6569   -1.7672    0.0000 C   0  0  0  0  0  0  0  0  0  0  0  0
   -0.0576   -2.1797    0.0000 Cl  0  0  0  0  0  0  0  0  0  0  0  0
    1.3713   -2.1797    0.0000 C   0  0  0  0  0  0  0  0  0  0  0  0
    1.3713   -3.0047    0.0000 Cl  0  0  0  0  0  0  0  0  0  0  0  0
    2.0858   -1.7672    0.0000 C   0  0  0  0  0  0  0  0  0  0  0  0
    2.8003   -2.1797    0.0000 Cl  0  0  0  0  0  0  0  0  0  0  0  0
  1  2  1  0  0  0  0
  3  2  1  0  0  0  0
  3  4  1  0  0  0  0
  5  3  2  0  0  0  0
  6  5  1  0  0  0  0
  6  7  1  0  0  0  0
  8  6  2  0  0  0  0
  8  9  1  0  0  0  0
 10  8  1  0  0  0  0
  2 10  2  0  0  0  0
 10 11  1  0  0  0  0
M  END
> <ChemID>
100022

> <CAS>
58-90-2

> <Original_SMILES>
Oc1c(Cl)cc(Cl)c(Cl)c1Cl

> <preferred_name>
2,3,4,6-Tetrachlorophenol

> <dsstox_substance_id>
DTXSID9021716

> <dsstox_compound_id>
DTXCID201716

> <qc_level>
DSSTox_Low

> <Canonical_QSARr>
OC1C(Cl)=CC(Cl)=C(Cl)C=1Cl

> <InChI_Code_QSARr>
InChI=1S/C6H2Cl4O/c7-2-1-3(8)6(11)5(10)4(2)9/h1,11H

> <InChI Key_QSARr>
VGVRPFIJEJYOFN-UHFFFAOYSA-N

> <Salt_Solvent>


> <Salt_Solvent_ID>
0

> <MPID>
99299

> <KocRef>
Schuurmann-Main

> <LogKOC>
3.35

> <Tr_1_Tst_0>
1

$$$$
100023
  Mrv171c012251911022D          

 15 16  0  0  0  0            999 V2000
    1.4289   -1.6500    0.0000 N   0  0  0  0  0  0  0  0  0  0  0  0
    1.4289   -2.4750    0.0000 C   0  0  0  0  0  0  0  0  0  0  0  0
    2.1434   -2.8875    0.0000 C   0  0  0  0  0  0  0  0  0  0  0  0
    2.1434   -3.7125    0.0000 C   0  0  0  0  0  0  0  0  0  0  0  0
    1.4289   -4.1250    0.0000 C   0  0  0  0  0  0  0  0  0  0  0  0
    0.7145   -3.7125    0.0000 C   0  0  0  0  0  0  0  0  0  0  0  0
    0.7145   -2.8875    0.0000 C   0  0  0  0  0  0  0  0  0  0  0  0
    1.4289   -4.9500    0.0000 N   0  0  0  0  0  0  0  0  0  0  0  0
    2.1434   -5.3625    0.0000 N   0  0  0  0  0  0  0  0  0  0  0  0
    2.1434   -6.1875    0.0000 C   0  0  0  0  0  0  0  0  0  0  0  0
    2.8579   -6.6000    0.0000 C   0  0  0  0  0  0  0  0  0  0  0  0
    2.8579   -7.4250    0.0000 C   0  0  0  0  0  0  0  0  0  0  0  0
    2.1434   -7.8375    0.0000 C   0  0  0  0  0  0  0  0  0  0  0  0
    1.4289   -7.4250    0.0000 C   0  0  0  0  0  0  0  0  0  0  0  0
    1.4289   -6.6000    0.0000 C   0  0  0  0  0  0  0  0  0  0  0  0
  1  2  1  0  0  0  0
  2  3  1  0  0  0  0
  3  4  2  0  0  0  0
  4  5  1  0  0  0  0
  5  6  2  0  0  0  0
  6  7  1  0  0  0  0
  2  7  2  0  0  0  0
  8  5  1  4  0  0  0
  8  9  2  0  0  0  0
  9 10  1  0  0  0  0
 10 11  1  0  0  0  0
 11 12  2  0  0  0  0
 12 13  1  0  0  0  0
 13 14  2  0  0  0  0
 14 15  1  0  0  0  0
 10 15  2  0  0  0  0
M  END
> <ChemID>
100023

> <CAS>
60-09-3

> <Original_SMILES>
Nc1ccc(cc1)/N=N/c1ccccc1

> <preferred_name>
4-Aminoazobenzene

> <dsstox_substance_id>
DTXSID6024460

> <dsstox_compound_id>
DTXCID004460

> <qc_level>
DSSTox_Low

> <Canonical_QSARr>
NC1C=CC(=CC=1)N=NC1C=CC=CC=1

> <InChI_Code_QSARr>
InChI=1S/C12H11N3/c13-10-6-8-12(9-7-10)15-14-11-4-2-1-3-5-11/h1-9H,13H2

> <InChI Key_QSARr>
QPQKUYVSJWQSDY-UHFFFAOYSA-N

> <Salt_Solvent>


> <Salt_Solvent_ID>
0

> <MPID>
99300

> <KocRef>
Schuurmann-Main

> <LogKOC>
2.79

> <Tr_1_Tst_0>
1

$$$$
100024
  Mrv171c012251911022D          

 17 18  0  0  0  0            999 V2000
    2.3741   -3.9643    0.0000 C   0  0  0  0  0  0  0  0  0  0  0  0
    3.0886   -3.5518    0.0000 N   0  0  0  0  0  0  0  0  0  0  0  0
    3.8031   -3.9643    0.0000 C   0  0  0  0  0  0  0  0  0  0  0  0
    3.0886   -2.7268    0.0000 C   0  0  0  0  0  0  0  0  0  0  0  0
    3.8031   -2.3143    0.0000 C   0  0  0  0  0  0  0  0  0  0  0  0
    3.8031   -1.4893    0.0000 C   0  0  0  0  0  0  0  0  0  0  0  0
    3.0886   -1.0768    0.0000 C   0  0  0  0  0  0  0  0  0  0  0  0
    3.0886   -0.2518    0.0000 N   0  0  0  0  0  0  0  0  0  0  0  0
    3.8031    0.1607    0.0000 N   0  0  0  0  0  0  0  0  0  0  0  0
    3.8031    0.9857    0.0000 C   0  0  0  0  0  0  0  0  0  0  0  0
    4.5175    1.3982    0.0000 C   0  0  0  0  0  0  0  0  0  0  0  0
    4.5175    2.2232    0.0000 C   0  0  0  0  0  0  0  0  0  0  0  0
    3.8031    2.6357    0.0000 C   0  0  0  0  0  0  0  0  0  0  0  0
    3.0886    2.2232    0.0000 C   0  0  0  0  0  0  0  0  0  0  0  0
    3.0886    1.3982    0.0000 C   0  0  0  0  0  0  0  0  0  0  0  0
    2.3741   -1.4893    0.0000 C   0  0  0  0  0  0  0  0  0  0  0  0
    2.3741   -2.3143    0.0000 C   0  0  0  0  0  0  0  0  0  0  0  0
  1  2  1  0  0  0  0
  2  3  1  0  0  0  0
  2  4  1  0  0  0  0
  5  4  1  0  0  0  0
  6  5  2  0  0  0  0
  7  6  1  0  0  0  0
  8  7  1  4  0  0  0
  8  9  2  0  0  0  0
  9 10  1  0  0  0  0
 11 10  1  0  0  0  0
 12 11  2  0  0  0  0
 13 12  1  0  0  0  0
 14 13  2  0  0  0  0
 15 14  1  0  0  0  0
 10 15  2  0  0  0  0
 16  7  2  0  0  0  0
 17 16  1  0  0  0  0
  4 17  2  0  0  0  0
M  END
> <ChemID>
100024

> <CAS>
60-11-7

> <Original_SMILES>
CN(C)c1ccc(cc1)N=Nc1ccccc1

> <preferred_name>
4-(Dimethylamino)azobenzene

> <dsstox_substance_id>
DTXSID5020491

> <dsstox_compound_id>
DTXCID50491

> <qc_level>
DSSTox_Low

> <Canonical_QSARr>
CN(C)C1C=CC(=CC=1)N=NC1C=CC=CC=1

> <InChI_Code_QSARr>
InChI=1S/C14H15N3/c1-17(2)14-10-8-13(9-11-14)16-15-12-6-4-3-5-7-12/h3-11H,1-2H3

> <InChI Key_QSARr>
JCYPECIVGRXBMO-UHFFFAOYSA-N

> <Salt_Solvent>


> <Salt_Solvent_ID>
0

> <MPID>
99301

> <KocRef>
Schuurmann-Main

> <LogKOC>
3.87

> <Tr_1_Tst_0>
0

$$$$
100025
  Mrv171c012251911022D          

  9  9  0  0  0  0            999 V2000
    0.9052   -2.0546    0.0000 C   0  0  0  0  0  0  0  0  0  0  0  0
    0.9052   -1.2296    0.0000 C   0  0  0  0  0  0  0  0  0  0  0  0
    1.6197   -0.8171    0.0000 C   0  0  0  0  0  0  0  0  0  0  0  0
    1.6197    0.0079    0.0000 O   0  0  0  0  0  0  0  0  0  0  0  0
    0.1908   -2.4671    0.0000 C   0  0  0  0  0  0  0  0  0  0  0  0
    0.1908   -3.2921    0.0000 C   0  0  0  0  0  0  0  0  0  0  0  0
    0.9052   -3.7046    0.0000 C   0  0  0  0  0  0  0  0  0  0  0  0
    1.6197   -3.2921    0.0000 C   0  0  0  0  0  0  0  0  0  0  0  0
    1.6197   -2.4671    0.0000 C   0  0  0  0  0  0  0  0  0  0  0  0
  1  2  1  0  0  0  0
  2  3  1  0  0  0  0
  3  4  1  0  0  0  0
  5  1  1  0  0  0  0
  6  5  2  0  0  0  0
  7  6  1  0  0  0  0
  8  7  2  0  0  0  0
  9  8  1  0  0  0  0
  1  9  2  0  0  0  0
M  END
> <ChemID>
100025

> <CAS>
60-12-8

> <Original_SMILES>
OCCc1ccccc1

> <preferred_name>
2-Phenylethanol

> <dsstox_substance_id>
DTXSID9026342

> <dsstox_compound_id>
DTXCID206342

> <qc_level>
DSSTox_Low

> <Canonical_QSARr>
OCCC1C=CC=CC=1

> <InChI_Code_QSARr>
InChI=1S/C8H10O/c9-7-6-8-4-2-1-3-5-8/h1-5,9H,6-7H2

> <InChI Key_QSARr>
WRMNZCZEMHIOCP-UHFFFAOYSA-N

> <Salt_Solvent>


> <Salt_Solvent_ID>
0

> <MPID>
99302

> <KocRef>
Schuurmann-Main

> <LogKOC>
1.5

> <Tr_1_Tst_0>
1

$$$$
100026
  Mrv171c012251911022D          

  4  3  0  0  0  0            999 V2000
    1.2371    0.0002    0.0000 C   0  0  0  0  0  0  0  0  0  0  0  0
    0.8246   -0.7143    0.0000 C   0  0  0  0  0  0  0  0  0  0  0  0
    1.2371   -1.4287    0.0000 N   0  0  0  0  0  0  0  0  0  0  0  0
   -0.0004   -0.7143    0.0000 O   0  0  0  0  0  0  0  0  0  0  0  0
  1  2  1  0  0  0  0
  2  3  1  0  0  0  0
  2  4  2  0  0  0  0
M  END
> <ChemID>
100026

> <CAS>
60-35-5

> <Original_SMILES>
CC(N)=O

> <preferred_name>
Acetamide

> <dsstox_substance_id>
DTXSID7020005

> <dsstox_compound_id>
DTXCID505

> <qc_level>
DSSTox_High

> <Canonical_QSARr>
CC(N)=O

> <InChI_Code_QSARr>
InChI=1S/C2H5NO/c1-2(3)4/h1H3,(H2,3,4)

> <InChI Key_QSARr>
DLFVBJFMPXGRIB-UHFFFAOYSA-N

> <Salt_Solvent>


> <Salt_Solvent_ID>
0

> <MPID>
99303

> <KocRef>
Schuurmann-Main

> <LogKOC>
0.7

> <Tr_1_Tst_0>
1

$$$$
100027
  Mrv171c012251911022D          

 12 11  0  0  0  0            999 V2000
    0.9482   -3.3580    0.0000 S   0  0  0  0  0  0  0  0  0  0  0  0
    1.6627   -2.9455    0.0000 P   0  0  0  0  0  0  0  0  0  0  0  0
    2.0752   -3.6600    0.0000 O   0  0  0  0  0  0  0  0  0  0  0  0
    1.6627   -4.3744    0.0000 C   0  0  0  0  0  0  0  0  0  0  0  0
    2.3771   -2.5330    0.0000 O   0  0  0  0  0  0  0  0  0  0  0  0
    3.0916   -2.9455    0.0000 C   0  0  0  0  0  0  0  0  0  0  0  0
    1.2502   -2.2310    0.0000 S   0  0  0  0  0  0  0  0  0  0  0  0
    1.6627   -1.5165    0.0000 C   0  0  0  0  0  0  0  0  0  0  0  0
    1.2502   -0.8021    0.0000 C   0  0  0  0  0  0  0  0  0  0  0  0
    1.6627   -0.0876    0.0000 N   0  0  0  0  0  0  0  0  0  0  0  0
    1.2502    0.6269    0.0000 C   0  0  0  0  0  0  0  0  0  0  0  0
    0.4252   -0.8021    0.0000 O   0  0  0  0  0  0  0  0  0  0  0  0
  1  2  2  0  0  0  0
  2  3  1  0  0  0  0
  3  4  1  0  0  0  0
  2  5  1  0  0  0  0
  5  6  1  0  0  0  0
  2  7  1  0  0  0  0
  7  8  1  0  0  0  0
  8  9  1  0  0  0  0
  9 10  1  0  0  0  0
 10 11  1  0  0  0  0
  9 12  2  0  0  0  0
M  END
> <ChemID>
100027

> <CAS>
60-51-5

> <Original_SMILES>
CNC(=O)CSP(=S)(OC)OC

> <preferred_name>
Dimethoate

> <dsstox_substance_id>
DTXSID7020479

> <dsstox_compound_id>
DTXCID50479

> <qc_level>
DSSTox_Low

> <Canonical_QSARr>
CNC(=O)CSP(=S)(OC)OC

> <InChI_Code_QSARr>
InChI=1S/C5H12NO3PS2/c1-6-5(7)4-12-10(11,8-2)9-3/h4H2,1-3H3,(H,6,7)

> <InChI Key_QSARr>
MCWXGJITAZMZEV-UHFFFAOYSA-N

> <Salt_Solvent>


> <Salt_Solvent_ID>
0

> <MPID>
99304

> <KocRef>
Schuurmann-Main

> <LogKOC>
1.2

> <Tr_1_Tst_0>
1

$$$$
100028
  Mrv171c012251911022D          

 19 23  0  0  0  0            999 V2000
    0.8791   -2.2674    0.0000 C   0  0  0  0  0  0  0  0  0  0  0  0
    1.5936   -2.6799    0.0000 C   0  0  0  0  0  0  0  0  0  0  0  0
    1.7998   -1.8549    0.0000 C   0  0  0  0  0  0  0  0  0  0  0  0
    1.5936   -1.0299    0.0000 C   0  0  0  0  0  0  0  0  0  0  0  0
    2.1954   -1.4726    0.0000 C   0  0  0  0  0  0  0  0  0  0  0  0
    3.0225   -1.0299    0.0000 C   0  0  0  0  0  0  0  0  0  0  0  0
    3.2138   -0.1477    0.0000 Cl  0  0  0  0  0  0  0  0  0  0  0  0
    3.2288   -1.8549    0.0000 C   0  0  0  0  0  0  0  0  0  0  0  0
    2.5237   -0.9691    0.0000 Cl  0  0  0  0  0  0  0  0  0  0  0  0
    2.5404   -2.7583    0.0000 Cl  0  0  0  0  0  0  0  0  0  0  0  0
    3.0225   -2.6799    0.0000 C   0  0  0  0  0  0  0  0  0  0  0  0
    3.2450   -3.5556    0.0000 Cl  0  0  0  0  0  0  0  0  0  0  0  0
    3.7370   -2.2674    0.0000 C   0  0  0  0  0  0  0  0  0  0  0  0
    4.4962   -2.6868    0.0000 Cl  0  0  0  0  0  0  0  0  0  0  0  0
    3.7370   -1.4424    0.0000 C   0  0  0  0  0  0  0  0  0  0  0  0
    4.4973   -1.0254    0.0000 Cl  0  0  0  0  0  0  0  0  0  0  0  0
    2.3081   -2.2674    0.0000 C   0  0  0  0  0  0  0  0  0  0  0  0
    0.8791   -1.4424    0.0000 C   0  0  0  0  0  0  0  0  0  0  0  0
    0.1646   -1.8549    0.0000 O   0  0  0  0  0  0  0  0  0  0  0  0
  2  1  1  0  0  0  0
  2  3  1  0  0  0  0
  3  4  1  0  0  0  0
  4  5  1  0  0  0  0
  6  5  1  0  0  0  0
  6  7  1  0  0  0  0
  6  8  1  0  0  0  0
  8  9  1  0  0  0  0
  8 10  1  0  0  0  0
  8 11  1  0  0  0  0
 11 12  1  0  0  0  0
 11 13  1  0  0  0  0
 13 14  1  0  0  0  0
 13 15  2  0  0  0  0
 15  6  1  0  0  0  0
 15 16  1  0  0  0  0
 17 11  1  0  0  0  0
  5 17  1  0  0  0  0
 17  2  1  0  0  0  0
 18  4  1  0  0  0  0
 18  1  1  0  0  0  0
 19 18  1  0  0  0  0
  1 19  1  0  0  0  0
M  END
> <ChemID>
100028

> <CAS>
60-57-1|72-20-8

> <Original_SMILES>
ClC1(Cl)[C@@]2(Cl)[C@@H]3[C@@H]4C[C@@H]([C@H]5O[C@H]54)[C@@H]3[C@]1(Cl)C(Cl)=C2Cl

> <preferred_name>
Dieldrin|Endrin

> <dsstox_substance_id>
DTXSID9020453|DTXSID6020561

> <dsstox_compound_id>
DTXCID30196607|DTXCID90196608

> <qc_level>
DSSTox_High

> <Canonical_QSARr>
ClC1(Cl)C2(Cl)C3C4CC(C5OC54)C3C1(Cl)C(Cl)=C2Cl

> <InChI_Code_QSARr>
InChI=1S/C12H8Cl6O/c13-8-9(14)11(16)5-3-1-2(6-7(3)19-6)4(5)10(8,15)12(11,17)18/h2-7H,1H2

> <InChI Key_QSARr>
DFBKLUNHFCTMDC-UHFFFAOYSA-N

> <Salt_Solvent>


> <Salt_Solvent_ID>
0

> <MPID>
99305|99325

> <KocRef>
USDA Pest Prop DB|Schuurmann-Main

> <LogKOC>
4.08

> <Tr_1_Tst_0>
0

$$$$
100029
  Mrv171c012251911022D          

  6  6  0  0  0  0            999 V2000
    1.2717   -0.2189    0.0000 C   0  0  0  0  0  0  0  0  0  0  0  0
    1.2717    0.6061    0.0000 N   0  0  0  0  0  0  0  0  0  0  0  0
    0.6043   -0.7038    0.0000 N   0  0  0  0  0  0  0  0  0  0  0  0
    0.8592   -1.4885    0.0000 N   0  0  0  0  0  0  0  0  0  0  0  0
    1.6842   -1.4885    0.0000 C   0  0  0  0  0  0  0  0  0  0  0  0
    1.9392   -0.7038    0.0000 N   0  0  0  0  0  0  0  0  0  0  0  0
  1  2  1  0  0  0  0
  3  1  2  0  0  0  0
  4  3  1  0  0  0  0
  5  4  1  0  0  0  0
  6  5  2  0  0  0  0
  1  6  1  0  0  0  0
M  END
> <ChemID>
100029

> <CAS>
61-82-5

> <Original_SMILES>
Nc1[n]c[nH][n]1

> <preferred_name>
Amitrole

> <dsstox_substance_id>
DTXSID0020076

> <dsstox_compound_id>
DTXCID9076

> <qc_level>
DSSTox_Low

> <Canonical_QSARr>
NC1N=CNN=1

> <InChI_Code_QSARr>
InChI=1S/C2H4N4/c3-2-4-1-5-6-2/h1H,(H3,3,4,5,6)

> <InChI Key_QSARr>
KLSJWNVTNUYHDU-UHFFFAOYSA-N

> <Salt_Solvent>


> <Salt_Solvent_ID>
0

> <MPID>
99306

> <KocRef>
Schuurmann-Main

> <LogKOC>
1.25

> <Tr_1_Tst_0>
1

$$$$
100030
  Mrv171c012251911022D          

  7  7  0  0  0  0            999 V2000
    1.4153    0.7000    0.0000 N   0  0  0  0  0  0  0  0  0  0  0  0
    1.4153   -0.1250    0.0000 C   0  0  0  0  0  0  0  0  0  0  0  0
    0.7009   -0.5375    0.0000 C   0  0  0  0  0  0  0  0  0  0  0  0
    0.7009   -1.3625    0.0000 C   0  0  0  0  0  0  0  0  0  0  0  0
    1.4153   -1.7750    0.0000 C   0  0  0  0  0  0  0  0  0  0  0  0
    2.1298   -1.3625    0.0000 C   0  0  0  0  0  0  0  0  0  0  0  0
    2.1298   -0.5375    0.0000 C   0  0  0  0  0  0  0  0  0  0  0  0
  1  2  1  0  0  0  0
  3  2  1  0  0  0  0
  4  3  2  0  0  0  0
  5  4  1  0  0  0  0
  6  5  2  0  0  0  0
  7  6  1  0  0  0  0
  2  7  2  0  0  0  0
M  END
> <ChemID>
100030

> <CAS>
62-53-3

> <Original_SMILES>
Nc1ccccc1

> <preferred_name>
Aniline

> <dsstox_substance_id>
DTXSID8020090

> <dsstox_compound_id>
DTXCID9090

> <qc_level>
DSSTox_High

> <Canonical_QSARr>
NC1C=CC=CC=1

> <InChI_Code_QSARr>
InChI=1S/C6H7N/c7-6-4-2-1-3-5-6/h1-5H,7H2

> <InChI Key_QSARr>
PAYRUJLWNCNPSJ-UHFFFAOYSA-N

> <Salt_Solvent>


> <Salt_Solvent_ID>
0

> <MPID>
99307

> <KocRef>
Schuur-SRC avg

> <LogKOC>
1.6

> <Tr_1_Tst_0>
1

$$$$
100031
  Mrv171c012251911022D          

  4  3  0  0  0  0            999 V2000
    1.2371    0.0002    0.0000 C   0  0  0  0  0  0  0  0  0  0  0  0
    0.8246   -0.7143    0.0000 C   0  0  0  0  0  0  0  0  0  0  0  0
    1.2371   -1.4287    0.0000 N   0  0  0  0  0  0  0  0  0  0  0  0
   -0.0004   -0.7143    0.0000 S   0  0  0  0  0  0  0  0  0  0  0  0
  1  2  1  0  0  0  0
  2  3  1  0  0  0  0
  2  4  2  0  0  0  0
M  END
> <ChemID>
100031

> <CAS>
62-55-5

> <Original_SMILES>
CC(N)=S

> <preferred_name>
Thioacetamide

> <dsstox_substance_id>
DTXSID9021340

> <dsstox_compound_id>
DTXCID901340

> <qc_level>
DSSTox_Low

> <Canonical_QSARr>
CC(N)=S

> <InChI_Code_QSARr>
InChI=1S/C2H5NS/c1-2(3)4/h1H3,(H2,3,4)

> <InChI Key_QSARr>
YUKQRDCYNOVPGJ-UHFFFAOYSA-N

> <Salt_Solvent>


> <Salt_Solvent_ID>
0

> <MPID>
99308

> <KocRef>
Schuurmann-Main

> <LogKOC>
0.78

> <Tr_1_Tst_0>
1

$$$$
100032
  Mrv171c012251911022D          

  4  3  0  0  0  0            999 V2000
    1.2371    0.0002    0.0000 N   0  0  0  0  0  0  0  0  0  0  0  0
    0.8246   -0.7143    0.0000 C   0  0  0  0  0  0  0  0  0  0  0  0
    1.2371   -1.4287    0.0000 N   0  0  0  0  0  0  0  0  0  0  0  0
   -0.0004   -0.7143    0.0000 S   0  0  0  0  0  0  0  0  0  0  0  0
  1  2  1  0  0  0  0
  2  3  1  0  0  0  0
  2  4  2  0  0  0  0
M  END
> <ChemID>
100032

> <CAS>
62-56-6

> <Original_SMILES>
NC(N)=S

> <preferred_name>
Thiourea

> <dsstox_substance_id>
DTXSID9021348

> <dsstox_compound_id>
DTXCID101348

> <qc_level>
DSSTox_Low

> <Canonical_QSARr>
NC(N)=S

> <InChI_Code_QSARr>
InChI=1S/CH4N2S/c2-1(3)4/h(H4,2,3,4)

> <InChI Key_QSARr>
UMGDCJDMYOKAJW-UHFFFAOYSA-N

> <Salt_Solvent>


> <Salt_Solvent_ID>
0

> <MPID>
99309

> <KocRef>
Schuurmann-Main

> <LogKOC>
0.85

> <Tr_1_Tst_0>
0

$$$$
100033
  Mrv171c012251911022D          

 11 10  0  0  0  0            999 V2000
    2.0236   -3.0743    0.0000 O   0  0  0  0  0  0  0  0  0  0  0  0
    2.0236   -2.2493    0.0000 P   0  0  0  0  0  0  0  0  0  0  0  0
    2.8486   -2.2493    0.0000 O   0  0  0  0  0  0  0  0  0  0  0  0
    3.2611   -2.9637    0.0000 C   0  0  0  0  0  0  0  0  0  0  0  0
    2.0236   -1.4243    0.0000 O   0  0  0  0  0  0  0  0  0  0  0  0
    2.7380   -1.0118    0.0000 C   0  0  0  0  0  0  0  0  0  0  0  0
    1.1986   -2.2493    0.0000 O   0  0  0  0  0  0  0  0  0  0  0  0
    0.7861   -1.5348    0.0000 C   0  0  0  0  0  0  0  0  0  0  0  0
   -0.0389   -1.5348    0.0000 C   0  0  0  0  0  0  0  0  0  0  0  0
   -0.4514   -2.2493    0.0000 Cl  0  0  0  0  0  0  0  0  0  0  0  0
   -0.4514   -0.8203    0.0000 Cl  0  0  0  0  0  0  0  0  0  0  0  0
  1  2  2  0  0  0  0
  2  3  1  0  0  0  0
  3  4  1  0  0  0  0
  2  5  1  0  0  0  0
  5  6  1  0  0  0  0
  2  7  1  0  0  0  0
  7  8  1  0  0  0  0
  8  9  2  0  0  0  0
  9 10  1  0  0  0  0
  9 11  1  0  0  0  0
M  END
> <ChemID>
100033

> <CAS>
62-73-7

> <Original_SMILES>
COP(=O)(OC=C(Cl)Cl)OC

> <preferred_name>
Dichlorvos

> <dsstox_substance_id>
DTXSID5020449

> <dsstox_compound_id>
DTXCID90449

> <qc_level>
DSSTox_Low

> <Canonical_QSARr>
COP(=O)(OC=C(Cl)Cl)OC

> <InChI_Code_QSARr>
InChI=1S/C4H7Cl2O4P/c1-8-11(7,9-2)10-3-4(5)6/h3H,1-2H3

> <InChI Key_QSARr>
OEBRKCOSUFCWJD-UHFFFAOYSA-N

> <Salt_Solvent>


> <Salt_Solvent_ID>
0

> <MPID>
99310

> <KocRef>
Schuurmann-Main

> <LogKOC>
1.67

> <Tr_1_Tst_0>
1

$$$$
100034
  Mrv171c012251911022D          

 15 16  0  0  0  0            999 V2000
    0.7124   -2.3379    0.0000 O   0  0  0  0  0  0  0  0  0  0  0  0
    1.4268   -2.7504    0.0000 C   0  0  0  0  0  0  0  0  0  0  0  0
    1.4268   -3.5754    0.0000 N   0  0  0  0  0  0  0  0  0  0  0  0
    0.7124   -3.9879    0.0000 C   0  0  0  0  0  0  0  0  0  0  0  0
    2.1413   -2.3379    0.0000 O   0  0  0  0  0  0  0  0  0  0  0  0
    2.1413   -1.5129    0.0000 C   0  0  0  0  0  0  0  0  0  0  0  0
    1.4268   -1.1004    0.0000 C   0  0  0  0  0  0  0  0  0  0  0  0
    1.4268   -0.2754    0.0000 C   0  0  0  0  0  0  0  0  0  0  0  0
    2.1413    0.1371    0.0000 C   0  0  0  0  0  0  0  0  0  0  0  0
    2.8558   -0.2754    0.0000 C   0  0  0  0  0  0  0  0  0  0  0  0
    3.5703    0.1371    0.0000 C   0  0  0  0  0  0  0  0  0  0  0  0
    4.2847   -0.2754    0.0000 C   0  0  0  0  0  0  0  0  0  0  0  0
    4.2847   -1.1004    0.0000 C   0  0  0  0  0  0  0  0  0  0  0  0
    3.5703   -1.5129    0.0000 C   0  0  0  0  0  0  0  0  0  0  0  0
    2.8558   -1.1004    0.0000 C   0  0  0  0  0  0  0  0  0  0  0  0
  1  2  2  0  0  0  0
  2  3  1  0  0  0  0
  3  4  1  0  0  0  0
  2  5  1  0  0  0  0
  5  6  1  0  0  0  0
  7  6  1  0  0  0  0
  8  7  2  0  0  0  0
  9  8  1  0  0  0  0
 10  9  2  0  0  0  0
 10 11  1  0  0  0  0
 11 12  2  0  0  0  0
 12 13  1  0  0  0  0
 13 14  2  0  0  0  0
 14 15  1  0  0  0  0
  6 15  2  0  0  0  0
 15 10  1  0  0  0  0
M  END
> <ChemID>
100034

> <CAS>
63-25-2

> <Original_SMILES>
CNC(=O)Oc1cccc2ccccc21

> <preferred_name>
Carbaryl

> <dsstox_substance_id>
DTXSID9020247

> <dsstox_compound_id>
DTXCID10247

> <qc_level>
DSSTox_Low

> <Canonical_QSARr>
CNC(=O)OC1C=CC=C2C=CC=CC2=1

> <InChI_Code_QSARr>
InChI=1S/C12H11NO2/c1-13-12(14)15-11-8-4-6-9-5-2-3-7-10(9)11/h2-8H,1H3,(H,13,14)

> <InChI Key_QSARr>
CVXBEEMKQHEXEN-UHFFFAOYSA-N

> <Salt_Solvent>


> <Salt_Solvent_ID>
0

> <MPID>
99311

> <KocRef>
Schuurmann-Main

> <LogKOC>
2.4

> <Tr_1_Tst_0>
1

$$$$
100035
  Mrv171c012251911022D          

 11 11  0  0  0  0            999 V2000
    1.1691    0.6750    0.0000 C   0  0  0  0  0  0  0  0  0  0  0  0
    0.4547    0.2625    0.0000 N   0  0  0  0  0  0  0  0  0  0  0  0
   -0.2598    0.6750    0.0000 C   0  0  0  0  0  0  0  0  0  0  0  0
   -0.9743    0.2625    0.0000 O   0  0  0  0  0  0  0  0  0  0  0  0
   -0.2598    1.5000    0.0000 N   0  0  0  0  0  0  0  0  0  0  0  0
    1.8836    0.2625    0.0000 C   0  0  0  0  0  0  0  0  0  0  0  0
    2.5981    0.6750    0.0000 C   0  0  0  0  0  0  0  0  0  0  0  0
    2.5981    1.5000    0.0000 C   0  0  0  0  0  0  0  0  0  0  0  0
    1.8836    1.9125    0.0000 C   0  0  0  0  0  0  0  0  0  0  0  0
    1.8836    2.7375    0.0000 C   0  0  0  0  0  0  0  0  0  0  0  0
    1.1691    1.5000    0.0000 C   0  0  0  0  0  0  0  0  0  0  0  0
  1  2  1  0  0  0  0
  2  3  1  0  0  0  0
  3  4  2  0  0  0  0
  3  5  1  0  0  0  0
  6  1  1  0  0  0  0
  7  6  2  0  0  0  0
  8  7  1  0  0  0  0
  9  8  2  0  0  0  0
  9 10  1  0  0  0  0
 11  9  1  0  0  0  0
  1 11  2  0  0  0  0
M  END
> <ChemID>
100035

> <CAS>
63-99-0

> <Original_SMILES>
Cc1cc(ccc1)NC(N)=O

> <preferred_name>
Urea, (3-methylphenyl)-

> <dsstox_substance_id>
DTXSID1075351

> <dsstox_compound_id>
DTXCID8043600

> <qc_level>
Public_High

> <Canonical_QSARr>
CC1C=C(C=CC=1)NC(N)=O

> <InChI_Code_QSARr>
InChI=1S/C8H10N2O/c1-6-3-2-4-7(5-6)10-8(9)11/h2-5H,1H3,(H3,9,10,11)

> <InChI Key_QSARr>
UVQVMNIYFXZXCI-UHFFFAOYSA-N

> <Salt_Solvent>


> <Salt_Solvent_ID>
0

> <MPID>
99312

> <KocRef>
Schuurmann-Main

> <LogKOC>
1.56

> <Tr_1_Tst_0>
1

$$$$
100036
  Mrv171c012251911022D          

 10 10  0  0  0  0            999 V2000
    2.4301    0.2505    0.0000 C   0  0  0  0  0  0  0  0  0  0  0  0
    2.4301    1.0755    0.0000 N   0  0  0  0  0  0  0  0  0  0  0  0
    1.7156   -0.1620    0.0000 N   0  0  0  0  0  0  0  0  0  0  0  0
    1.7156   -0.9870    0.0000 C   0  0  0  0  0  0  0  0  0  0  0  0
    1.0012   -1.3995    0.0000 C   0  0  0  0  0  0  0  0  0  0  0  0
    1.0012   -2.2245    0.0000 C   0  0  0  0  0  0  0  0  0  0  0  0
    1.7156   -2.6370    0.0000 C   0  0  0  0  0  0  0  0  0  0  0  0
    2.4301   -2.2245    0.0000 C   0  0  0  0  0  0  0  0  0  0  0  0
    2.4301   -1.3995    0.0000 C   0  0  0  0  0  0  0  0  0  0  0  0
    3.1446   -0.1620    0.0000 O   0  0  0  0  0  0  0  0  0  0  0  0
  1  2  1  0  0  0  0
  1  3  1  0  0  0  0
  3  4  1  0  0  0  0
  5  4  1  0  0  0  0
  6  5  2  0  0  0  0
  7  6  1  0  0  0  0
  8  7  2  0  0  0  0
  9  8  1  0  0  0  0
  4  9  2  0  0  0  0
  1 10  2  0  0  0  0
M  END
> <ChemID>
100036

> <CAS>
64-10-8

> <Original_SMILES>
NC(=O)Nc1ccccc1

> <preferred_name>
1-Phenylurea

> <dsstox_substance_id>
DTXSID8042507

> <dsstox_compound_id>
DTXCID6022507

> <qc_level>
DSSTox_High

> <Canonical_QSARr>
NC(=O)NC1C=CC=CC=1

> <InChI_Code_QSARr>
InChI=1S/C7H8N2O/c8-7(10)9-6-4-2-1-3-5-6/h1-5H,(H3,8,9,10)

> <InChI Key_QSARr>
LUBJCRLGQSPQNN-UHFFFAOYSA-N

> <Salt_Solvent>


> <Salt_Solvent_ID>
0

> <MPID>
99313

> <KocRef>
Schuurmann-Main

> <LogKOC>
1.35

> <Tr_1_Tst_0>
0

$$$$
100037
  Mrv171c012251911022D          

  3  2  0  0  0  0            999 V2000
   -0.0002   -0.1377    0.0000 C   0  0  0  0  0  0  0  0  0  0  0  0
    0.7143   -0.5502    0.0000 C   0  0  0  0  0  0  0  0  0  0  0  0
    1.4287   -0.1377    0.0000 O   0  0  0  0  0  0  0  0  0  0  0  0
  1  2  1  0  0  0  0
  2  3  1  0  0  0  0
M  END
> <ChemID>
100037

> <CAS>
64-17-5

> <Original_SMILES>
CCO

> <preferred_name>
Ethanol

> <dsstox_substance_id>
DTXSID9020584

> <dsstox_compound_id>
DTXCID30584

> <qc_level>
DSSTox_High

> <Canonical_QSARr>
CCO

> <InChI_Code_QSARr>
InChI=1S/C2H6O/c1-2-3/h3H,2H2,1H3

> <InChI Key_QSARr>
LFQSCWFLJHTTHZ-UHFFFAOYSA-N

> <Salt_Solvent>


> <Salt_Solvent_ID>
0

> <MPID>
99314

> <KocRef>
Schuurmann-Main

> <LogKOC>
0.2

> <Tr_1_Tst_0>
1

$$$$
100038
  Mrv171c012251911022D          

  4  3  0  0  0  0            999 V2000
    0.8246   -0.7143    0.0000 C   0  0  0  0  0  0  0  0  0  0  0  0
    1.2371    0.0002    0.0000 O   0  0  0  0  0  0  0  0  0  0  0  0
    1.2371   -1.4287    0.0000 O   0  0  0  0  0  0  0  0  0  0  0  0
   -0.0004   -0.7143    0.0000 C   0  0  0  0  0  0  0  0  0  0  0  0
  1  2  1  0  0  0  0
  1  3  2  0  0  0  0
  1  4  1  0  0  0  0
M  END
> <ChemID>
100038

> <CAS>
64-19-7

> <Original_SMILES>
CC(O)=O

> <preferred_name>
Acetic acid

> <dsstox_substance_id>
DTXSID5024394

> <dsstox_compound_id>
DTXCID304394

> <qc_level>
DSSTox_High

> <Canonical_QSARr>
CC(O)=O

> <InChI_Code_QSARr>
InChI=1S/C2H4O2/c1-2(3)4/h1H3,(H,3,4)

> <InChI Key_QSARr>
QTBSBXVTEAMEQO-UHFFFAOYSA-N

> <Salt_Solvent>


> <Salt_Solvent_ID>
0

> <MPID>
99315

> <KocRef>
Schuurmann-Main

> <LogKOC>
0.0

> <Tr_1_Tst_0>
1

$$$$
100039
  Mrv171c012251911022D          

  9  9  0  0  0  0            999 V2000
    2.1337    0.7064    0.0000 O   0  0  0  0  0  0  0  0  0  0  0  0
    1.4193    0.2939    0.0000 C   0  0  0  0  0  0  0  0  0  0  0  0
    1.4193   -0.5311    0.0000 C   0  0  0  0  0  0  0  0  0  0  0  0
    0.7048   -0.9436    0.0000 C   0  0  0  0  0  0  0  0  0  0  0  0
    0.7048   -1.7686    0.0000 C   0  0  0  0  0  0  0  0  0  0  0  0
    1.4193   -2.1811    0.0000 C   0  0  0  0  0  0  0  0  0  0  0  0
    2.1337   -1.7686    0.0000 C   0  0  0  0  0  0  0  0  0  0  0  0
    2.1337   -0.9436    0.0000 C   0  0  0  0  0  0  0  0  0  0  0  0
    0.7048    0.7064    0.0000 O   0  0  0  0  0  0  0  0  0  0  0  0
  1  2  1  0  0  0  0
  2  3  1  0  0  0  0
  4  3  1  0  0  0  0
  5  4  2  0  0  0  0
  6  5  1  0  0  0  0
  7  6  2  0  0  0  0
  8  7  1  0  0  0  0
  3  8  2  0  0  0  0
  2  9  2  0  0  0  0
M  END
> <ChemID>
100039

> <CAS>
65-85-0

> <Original_SMILES>
OC(=O)c1ccccc1

> <preferred_name>
Benzoic acid

> <dsstox_substance_id>
DTXSID6020143

> <dsstox_compound_id>
DTXCID80143

> <qc_level>
DSSTox_High

> <Canonical_QSARr>
OC(=O)C1C=CC=CC=1

> <InChI_Code_QSARr>
InChI=1S/C7H6O2/c8-7(9)6-4-2-1-3-5-6/h1-5H,(H,8,9)

> <InChI Key_QSARr>
WPYMKLBDIGXBTP-UHFFFAOYSA-N

> <Salt_Solvent>


> <Salt_Solvent_ID>
0

> <MPID>
99316

> <KocRef>
Schuurmann-Main

> <LogKOC>
1.5

> <Tr_1_Tst_0>
1

$$$$
100040
  Mrv171c012251911022D          

 15 15  0  0  0  0            999 V2000
   -0.4797   -1.6628    0.0000 N   0  0  0  0  0  0  0  0  0  0  0  0
    0.2347   -2.0753    0.0000 C   0  0  0  0  0  0  0  0  0  0  0  0
    0.2347   -2.9003    0.0000 O   0  0  0  0  0  0  0  0  0  0  0  0
    0.9492   -1.6628    0.0000 N   0  0  0  0  0  0  0  0  0  0  0  0
    0.9492   -0.8378    0.0000 C   0  0  0  0  0  0  0  0  0  0  0  0
    1.6637   -0.4253    0.0000 O   0  0  0  0  0  0  0  0  0  0  0  0
    0.2347   -0.4253    0.0000 C   0  0  0  0  0  0  0  0  0  0  0  0
    0.2347    0.3997    0.0000 N   0  0  0  0  0  0  0  0  0  0  0  0
   -0.4797    0.8122    0.0000 C   0  0  0  0  0  0  0  0  0  0  0  0
   -0.4797    1.6372    0.0000 C   0  0  0  0  0  0  0  0  0  0  0  0
   -1.1942    2.0497    0.0000 Cl  0  0  0  0  0  0  0  0  0  0  0  0
    0.9492    0.8122    0.0000 C   0  0  0  0  0  0  0  0  0  0  0  0
    0.9492    1.6372    0.0000 C   0  0  0  0  0  0  0  0  0  0  0  0
    1.6637    2.0497    0.0000 Cl  0  0  0  0  0  0  0  0  0  0  0  0
   -0.4797   -0.8378    0.0000 C   0  0  0  0  0  0  0  0  0  0  0  0
  2  1  1  0  0  0  0
  2  3  2  0  0  0  0
  4  2  1  0  0  0  0
  5  4  1  0  0  0  0
  5  6  2  0  0  0  0
  7  5  1  0  0  0  0
  7  8  1  0  0  0  0
  8  9  1  0  0  0  0
  9 10  1  0  0  0  0
 10 11  1  0  0  0  0
  8 12  1  0  0  0  0
 12 13  1  0  0  0  0
 13 14  1  0  0  0  0
 15  7  1  0  0  0  0
  1 15  2  0  0  0  0
M  END
> <ChemID>
100040

> <CAS>
66-75-1

> <Original_SMILES>
O=C1NC=C(C(=O)N1)N(CCCl)CCCl

> <preferred_name>
Uracil mustard

> <dsstox_substance_id>
DTXSID8026270

> <dsstox_compound_id>
DTXCID106270

> <qc_level>
DSSTox_Low

> <Canonical_QSARr>
O=C1NC(=O)N=CC1N(CCCl)CCCl

> <InChI_Code_QSARr>
InChI=1S/C8H11Cl2N3O2/c9-1-3-13(4-2-10)6-5-11-8(15)12-7(6)14/h5-6H,1-4H2,(H,12,14,15)

> <InChI Key_QSARr>
YKPXESVABPNVOR-UHFFFAOYSA-N

> <Salt_Solvent>


> <Salt_Solvent_ID>
0

> <MPID>
99317

> <KocRef>
Schuurmann-Main

> <LogKOC>
1.46

> <Tr_1_Tst_0>
0

$$$$
100041
  Mrv171c012251911022D          

  2  1  0  0  0  0            999 V2000
    0.8250    0.0000    0.0000 C   0  0  0  0  0  0  0  0  0  0  0  0
    0.0000    0.0000    0.0000 O   0  0  0  0  0  0  0  0  0  0  0  0
  1  2  1  0  0  0  0
M  END
> <ChemID>
100041

> <CAS>
67-56-1

> <Original_SMILES>
CO

> <preferred_name>
Methanol

> <dsstox_substance_id>
DTXSID2021731

> <dsstox_compound_id>
DTXCID801731

> <qc_level>
DSSTox_Low

> <Canonical_QSARr>
CO

> <InChI_Code_QSARr>
InChI=1S/CH4O/c1-2/h2H,1H3

> <InChI Key_QSARr>
OKKJLVBELUTLKV-UHFFFAOYSA-N

> <Salt_Solvent>


> <Salt_Solvent_ID>
0

> <MPID>
99318

> <KocRef>
Schuurmann-Main

> <LogKOC>
0.44

> <Tr_1_Tst_0>
1

$$$$
100042
  Mrv171c012251911022D          

  4  3  0  0  0  0            999 V2000
    1.2371    0.0002    0.0000 Cl  0  0  0  0  0  0  0  0  0  0  0  0
    0.8246   -0.7143    0.0000 C   0  0  0  0  0  0  0  0  0  0  0  0
    1.2371   -1.4287    0.0000 Cl  0  0  0  0  0  0  0  0  0  0  0  0
   -0.0004   -0.7143    0.0000 Cl  0  0  0  0  0  0  0  0  0  0  0  0
  1  2  1  0  0  0  0
  2  3  1  0  0  0  0
  2  4  1  0  0  0  0
M  END
> <ChemID>
100042

> <CAS>
67-66-3

> <Original_SMILES>
ClC(Cl)Cl

> <preferred_name>
Chloroform

> <dsstox_substance_id>
DTXSID1020306

> <dsstox_compound_id>
DTXCID10306

> <qc_level>
DSSTox_Low

> <Canonical_QSARr>
ClC(Cl)Cl

> <InChI_Code_QSARr>
InChI=1S/CHCl3/c2-1(3)4/h1H

> <InChI Key_QSARr>
HEDRZPFGACZZDS-UHFFFAOYSA-N

> <Salt_Solvent>


> <Salt_Solvent_ID>
0

> <MPID>
99319

> <KocRef>
SRC 1992 Non-Polar

> <LogKOC>
1.6

> <Tr_1_Tst_0>
1

$$$$
100043
  Mrv171c012251911022D          

  4  3  0  0  0  0            999 V2000
    2.1043   -0.5633    0.0000 O   0  0  0  0  0  0  0  0  0  0  0  0
    1.2793   -0.5633    0.0000 C   0  0  0  0  0  0  0  0  0  0  0  0
    0.8668    0.1512    0.0000 C   0  0  0  0  0  0  0  0  0  0  0  0
    0.0418    0.1512    0.0000 C   0  0  0  0  0  0  0  0  0  0  0  0
  1  2  1  0  0  0  0
  2  3  1  0  0  0  0
  3  4  1  0  0  0  0
M  END
> <ChemID>
100043

> <CAS>
71-23-8

> <Original_SMILES>
CCCO

> <preferred_name>
1-Propanol

> <dsstox_substance_id>
DTXSID2021739

> <dsstox_compound_id>
DTXCID001739

> <qc_level>
DSSTox_High

> <Canonical_QSARr>
CCCO

> <InChI_Code_QSARr>
InChI=1S/C3H8O/c1-2-3-4/h4H,2-3H2,1H3

> <InChI Key_QSARr>
BDERNNFJNOPAEC-UHFFFAOYSA-N

> <Salt_Solvent>


> <Salt_Solvent_ID>
0

> <MPID>
99320

> <KocRef>
Schuurmann-Main

> <LogKOC>
0.48

> <Tr_1_Tst_0>
1

$$$$
100044
  Mrv171c012251911022D          

  5  4  0  0  0  0            999 V2000
    2.5848   -1.1044    0.0000 C   0  0  0  0  0  0  0  0  0  0  0  0
    2.1723   -0.3899    0.0000 C   0  0  0  0  0  0  0  0  0  0  0  0
    1.3473   -0.3899    0.0000 C   0  0  0  0  0  0  0  0  0  0  0  0
    0.9348    0.3245    0.0000 C   0  0  0  0  0  0  0  0  0  0  0  0
    0.1098    0.3245    0.0000 O   0  0  0  0  0  0  0  0  0  0  0  0
  1  2  1  0  0  0  0
  2  3  1  0  0  0  0
  3  4  1  0  0  0  0
  4  5  1  0  0  0  0
M  END
> <ChemID>
100044

> <CAS>
71-36-3

> <Original_SMILES>
CCCCO

> <preferred_name>
1-Butanol

> <dsstox_substance_id>
DTXSID1021740

> <dsstox_compound_id>
DTXCID701740

> <qc_level>
DSSTox_Low

> <Canonical_QSARr>
CCCCO

> <InChI_Code_QSARr>
InChI=1S/C4H10O/c1-2-3-4-5/h5H,2-4H2,1H3

> <InChI Key_QSARr>
LRHPLDYGYMQRHN-UHFFFAOYSA-N

> <Salt_Solvent>


> <Salt_Solvent_ID>
0

> <MPID>
99321

> <KocRef>
Schuurmann-Main

> <LogKOC>
0.5

> <Tr_1_Tst_0>
0

$$$$
100045
  Mrv171c012251911022D          

  6  5  0  0  0  0            999 V2000
    0.0018   -0.4119    0.0000 C   0  0  0  0  0  0  0  0  0  0  0  0
    0.7163    0.0006    0.0000 C   0  0  0  0  0  0  0  0  0  0  0  0
    1.4307   -0.4119    0.0000 C   0  0  0  0  0  0  0  0  0  0  0  0
    2.1452    0.0006    0.0000 C   0  0  0  0  0  0  0  0  0  0  0  0
    2.8597   -0.4119    0.0000 C   0  0  0  0  0  0  0  0  0  0  0  0
    3.5741    0.0006    0.0000 O   0  0  0  0  0  0  0  0  0  0  0  0
  1  2  1  0  0  0  0
  2  3  1  0  0  0  0
  3  4  1  0  0  0  0
  4  5  1  0  0  0  0
  5  6  1  0  0  0  0
M  END
> <ChemID>
100045

> <CAS>
71-41-0

> <Original_SMILES>
CCCCCO

> <preferred_name>
1-Pentanol

> <dsstox_substance_id>
DTXSID6021741

> <dsstox_compound_id>
DTXCID101741

> <qc_level>
DSSTox_Low

> <Canonical_QSARr>
CCCCCO

> <InChI_Code_QSARr>
InChI=1S/C5H12O/c1-2-3-4-5-6/h6H,2-5H2,1H3

> <InChI Key_QSARr>
AMQJEAYHLZJPGS-UHFFFAOYSA-N

> <Salt_Solvent>


> <Salt_Solvent_ID>
0

> <MPID>
99322

> <KocRef>
Schuurmann-Main

> <LogKOC>
0.7

> <Tr_1_Tst_0>
1

$$$$
100046
  Mrv171c012251911022D          

  6  6  0  0  0  0            999 V2000
    1.4289   -0.4125    0.0000 C   0  0  0  0  0  0  0  0  0  0  0  0
    0.7145    0.0000    0.0000 C   0  0  0  0  0  0  0  0  0  0  0  0
    0.0000   -0.4125    0.0000 C   0  0  0  0  0  0  0  0  0  0  0  0
    0.0000   -1.2375    0.0000 C   0  0  0  0  0  0  0  0  0  0  0  0
    0.7145   -1.6500    0.0000 C   0  0  0  0  0  0  0  0  0  0  0  0
    1.4289   -1.2375    0.0000 C   0  0  0  0  0  0  0  0  0  0  0  0
  2  1  1  0  0  0  0
  3  2  2  0  0  0  0
  4  3  1  0  0  0  0
  5  4  2  0  0  0  0
  6  5  1  0  0  0  0
  1  6  2  0  0  0  0
M  END
> <ChemID>
100046

> <CAS>
71-43-2

> <Original_SMILES>
c1ccccc1

> <preferred_name>
Benzene

> <dsstox_substance_id>
DTXSID3039242

> <dsstox_compound_id>
DTXCID20135

> <qc_level>
DSSTox_Low

> <Canonical_QSARr>
C1C=CC=CC=1

> <InChI_Code_QSARr>
InChI=1S/C6H6/c1-2-4-6-5-3-1/h1-6H

> <InChI Key_QSARr>
UHOVQNZJYSORNB-UHFFFAOYSA-N

> <Salt_Solvent>


> <Salt_Solvent_ID>
0

> <MPID>
99323

> <KocRef>
SRC 1992 Non-Polar

> <LogKOC>
1.75

> <Tr_1_Tst_0>
1

$$$$
100047
  Mrv171c012251911022D          

  5  4  0  0  0  0            999 V2000
    0.8250   -1.6500    0.0000 C   0  0  0  0  0  0  0  0  0  0  0  0
    0.8250   -0.8250    0.0000 C   0  0  0  0  0  0  0  0  0  0  0  0
    0.8250    0.0000    0.0000 Cl  0  0  0  0  0  0  0  0  0  0  0  0
    1.6500   -0.8250    0.0000 Cl  0  0  0  0  0  0  0  0  0  0  0  0
    0.0000   -0.8250    0.0000 Cl  0  0  0  0  0  0  0  0  0  0  0  0
  1  2  1  0  0  0  0
  2  3  1  0  0  0  0
  2  4  1  0  0  0  0
  2  5  1  0  0  0  0
M  END
> <ChemID>
100047

> <CAS>
71-55-6

> <Original_SMILES>
CC(Cl)(Cl)Cl

> <preferred_name>
1,1,1-Trichloroethane

> <dsstox_substance_id>
DTXSID0021381

> <dsstox_compound_id>
DTXCID501381

> <qc_level>
DSSTox_Low

> <Canonical_QSARr>
CC(Cl)(Cl)Cl

> <InChI_Code_QSARr>
InChI=1S/C2H3Cl3/c1-2(3,4)5/h1H3

> <InChI Key_QSARr>
UOCLXMDMGBRAIB-UHFFFAOYSA-N

> <Salt_Solvent>


> <Salt_Solvent_ID>
0

> <MPID>
99324

> <KocRef>
SRC 1992 Non-Polar

> <LogKOC>
1.95

> <Tr_1_Tst_0>
1

$$$$
100049
  Mrv171c012251911022D          

 21 22  0  0  0  0            999 V2000
    1.9311   -2.2305    0.0000 Cl  0  0  0  0  0  0  0  0  0  0  0  0
    2.3436   -2.9449    0.0000 C   0  0  0  0  0  0  0  0  0  0  0  0
    2.7561   -3.6594    0.0000 Cl  0  0  0  0  0  0  0  0  0  0  0  0
    1.6292   -3.3574    0.0000 Cl  0  0  0  0  0  0  0  0  0  0  0  0
    3.0581   -2.5324    0.0000 C   0  0  0  0  0  0  0  0  0  0  0  0
    3.0581   -1.7074    0.0000 C   0  0  0  0  0  0  0  0  0  0  0  0
    3.7726   -1.2949    0.0000 C   0  0  0  0  0  0  0  0  0  0  0  0
    3.7726   -0.4699    0.0000 C   0  0  0  0  0  0  0  0  0  0  0  0
    3.0581   -0.0574    0.0000 C   0  0  0  0  0  0  0  0  0  0  0  0
    3.0581    0.7676    0.0000 O   0  0  0  0  0  0  0  0  0  0  0  0
    2.3436    1.1801    0.0000 C   0  0  0  0  0  0  0  0  0  0  0  0
    2.3436   -0.4699    0.0000 C   0  0  0  0  0  0  0  0  0  0  0  0
    2.3436   -1.2949    0.0000 C   0  0  0  0  0  0  0  0  0  0  0  0
    3.7726   -2.9449    0.0000 C   0  0  0  0  0  0  0  0  0  0  0  0
    3.7726   -3.7699    0.0000 C   0  0  0  0  0  0  0  0  0  0  0  0
    4.4871   -4.1824    0.0000 C   0  0  0  0  0  0  0  0  0  0  0  0
    5.2015   -3.7699    0.0000 C   0  0  0  0  0  0  0  0  0  0  0  0
    5.9160   -4.1824    0.0000 O   0  0  0  0  0  0  0  0  0  0  0  0
    6.6305   -3.7699    0.0000 C   0  0  0  0  0  0  0  0  0  0  0  0
    5.2015   -2.9449    0.0000 C   0  0  0  0  0  0  0  0  0  0  0  0
    4.4871   -2.5324    0.0000 C   0  0  0  0  0  0  0  0  0  0  0  0
  1  2  1  0  0  0  0
  2  3  1  0  0  0  0
  2  4  1  0  0  0  0
  2  5  1  0  0  0  0
  5  6  1  0  0  0  0
  7  6  1  0  0  0  0
  8  7  2  0  0  0  0
  9  8  1  0  0  0  0
  9 10  1  0  0  0  0
 10 11  1  0  0  0  0
 12  9  2  0  0  0  0
 13 12  1  0  0  0  0
  6 13  2  0  0  0  0
  5 14  1  0  0  0  0
 15 14  1  0  0  0  0
 16 15  2  0  0  0  0
 17 16  1  0  0  0  0
 17 18  1  0  0  0  0
 18 19  1  0  0  0  0
 20 17  2  0  0  0  0
 21 20  1  0  0  0  0
 14 21  2  0  0  0  0
M  END
> <ChemID>
100049

> <CAS>
72-43-5

> <Original_SMILES>
COc1ccc(cc1)C(c1ccc(cc1)OC)C(Cl)(Cl)Cl

> <preferred_name>
Methoxychlor

> <dsstox_substance_id>
DTXSID9020827

> <dsstox_compound_id>
DTXCID30827

> <qc_level>
DSSTox_Low

> <Canonical_QSARr>
COC1C=CC(=CC=1)C(C1C=CC(=CC=1)OC)C(Cl)(Cl)Cl

> <InChI_Code_QSARr>
InChI=1S/C16H15Cl3O2/c1-20-13-7-3-11(4-8-13)15(16(17,18)19)12-5-9-14(21-2)10-6-12/h3-10,15H,1-2H3

> <InChI Key_QSARr>
IAKOZHOLGAGEJT-UHFFFAOYSA-N

> <Salt_Solvent>


> <Salt_Solvent_ID>
0

> <MPID>
99326

> <KocRef>
Schuurmann-Main

> <LogKOC>
4.9

> <Tr_1_Tst_0>
0

$$$$
100050
  Mrv171c012251911022D          

 18 19  0  0  0  0            999 V2000
    4.7646   -2.0618    0.0000 Cl  0  0  0  0  0  0  0  0  0  0  0  0
    4.0501   -2.4743    0.0000 C   0  0  0  0  0  0  0  0  0  0  0  0
    4.0501   -3.2993    0.0000 Cl  0  0  0  0  0  0  0  0  0  0  0  0
    3.3357   -2.0618    0.0000 C   0  0  0  0  0  0  0  0  0  0  0  0
    3.3357   -1.2368    0.0000 C   0  0  0  0  0  0  0  0  0  0  0  0
    4.0501   -0.8243    0.0000 C   0  0  0  0  0  0  0  0  0  0  0  0
    4.0501    0.0007    0.0000 C   0  0  0  0  0  0  0  0  0  0  0  0
    3.3357    0.4132    0.0000 C   0  0  0  0  0  0  0  0  0  0  0  0
    3.3357    1.2382    0.0000 Cl  0  0  0  0  0  0  0  0  0  0  0  0
    2.6212    0.0007    0.0000 C   0  0  0  0  0  0  0  0  0  0  0  0
    2.6212   -0.8243    0.0000 C   0  0  0  0  0  0  0  0  0  0  0  0
    2.6212   -2.4743    0.0000 C   0  0  0  0  0  0  0  0  0  0  0  0
    1.9067   -2.0618    0.0000 C   0  0  0  0  0  0  0  0  0  0  0  0
    1.1922   -2.4743    0.0000 C   0  0  0  0  0  0  0  0  0  0  0  0
    1.1922   -3.2993    0.0000 C   0  0  0  0  0  0  0  0  0  0  0  0
    0.4778   -3.7118    0.0000 Cl  0  0  0  0  0  0  0  0  0  0  0  0
    1.9067   -3.7118    0.0000 C   0  0  0  0  0  0  0  0  0  0  0  0
    2.6212   -3.2993    0.0000 C   0  0  0  0  0  0  0  0  0  0  0  0
  1  2  1  0  0  0  0
  2  3  1  0  0  0  0
  2  4  1  0  0  0  0
  4  5  1  0  0  0  0
  6  5  1  0  0  0  0
  7  6  2  0  0  0  0
  8  7  1  0  0  0  0
  8  9  1  0  0  0  0
 10  8  2  0  0  0  0
 11 10  1  0  0  0  0
  5 11  2  0  0  0  0
  4 12  1  0  0  0  0
 13 12  1  0  0  0  0
 14 13  2  0  0  0  0
 15 14  1  0  0  0  0
 15 16  1  0  0  0  0
 17 15  2  0  0  0  0
 18 17  1  0  0  0  0
 12 18  2  0  0  0  0
M  END
> <ChemID>
100050

> <CAS>
72-54-8

> <Original_SMILES>
ClC(Cl)C(c1ccc(Cl)cc1)c1ccc(Cl)cc1

> <preferred_name>
p,p'-DDD

> <dsstox_substance_id>
DTXSID4020373

> <dsstox_compound_id>
DTXCID60373

> <qc_level>
DSSTox_Low

> <Canonical_QSARr>
ClC(Cl)C(C1=CC=C(Cl)C=C1)C1=CC=C(Cl)C=C1

> <InChI_Code_QSARr>
InChI=1S/C14H10Cl4/c15-11-5-1-9(2-6-11)13(14(17)18)10-3-7-12(16)8-4-10/h1-8,13-14H

> <InChI Key_QSARr>
AHJKRLASYNVKDZ-UHFFFAOYSA-N

> <Salt_Solvent>


> <Salt_Solvent_ID>
0

> <MPID>
99327

> <KocRef>
Schuurmann-Main

> <LogKOC>
4.21

> <Tr_1_Tst_0>
1

$$$$
100051
  Mrv171c012251911022D          

 18 19  0  0  0  0            999 V2000
    4.7646   -2.0618    0.0000 Cl  0  0  0  0  0  0  0  0  0  0  0  0
    4.0501   -2.4743    0.0000 C   0  0  0  0  0  0  0  0  0  0  0  0
    4.0501   -3.2993    0.0000 Cl  0  0  0  0  0  0  0  0  0  0  0  0
    3.3357   -2.0618    0.0000 C   0  0  0  0  0  0  0  0  0  0  0  0
    3.3357   -1.2368    0.0000 C   0  0  0  0  0  0  0  0  0  0  0  0
    4.0501   -0.8243    0.0000 C   0  0  0  0  0  0  0  0  0  0  0  0
    4.0501    0.0007    0.0000 C   0  0  0  0  0  0  0  0  0  0  0  0
    3.3357    0.4132    0.0000 C   0  0  0  0  0  0  0  0  0  0  0  0
    3.3357    1.2382    0.0000 Cl  0  0  0  0  0  0  0  0  0  0  0  0
    2.6212    0.0007    0.0000 C   0  0  0  0  0  0  0  0  0  0  0  0
    2.6212   -0.8243    0.0000 C   0  0  0  0  0  0  0  0  0  0  0  0
    2.6212   -2.4743    0.0000 C   0  0  0  0  0  0  0  0  0  0  0  0
    1.9067   -2.0618    0.0000 C   0  0  0  0  0  0  0  0  0  0  0  0
    1.1922   -2.4743    0.0000 C   0  0  0  0  0  0  0  0  0  0  0  0
    1.1922   -3.2993    0.0000 C   0  0  0  0  0  0  0  0  0  0  0  0
    0.4778   -3.7118    0.0000 Cl  0  0  0  0  0  0  0  0  0  0  0  0
    1.9067   -3.7118    0.0000 C   0  0  0  0  0  0  0  0  0  0  0  0
    2.6212   -3.2993    0.0000 C   0  0  0  0  0  0  0  0  0  0  0  0
  1  2  1  0  0  0  0
  2  3  1  0  0  0  0
  2  4  2  0  0  0  0
  4  5  1  0  0  0  0
  6  5  1  0  0  0  0
  7  6  2  0  0  0  0
  8  7  1  0  0  0  0
  8  9  1  0  0  0  0
 10  8  2  0  0  0  0
 11 10  1  0  0  0  0
  5 11  2  0  0  0  0
  4 12  1  0  0  0  0
 13 12  1  0  0  0  0
 14 13  2  0  0  0  0
 15 14  1  0  0  0  0
 15 16  1  0  0  0  0
 17 15  2  0  0  0  0
 18 17  1  0  0  0  0
 12 18  2  0  0  0  0
M  END
> <ChemID>
100051

> <CAS>
72-55-9

> <Original_SMILES>
ClC(Cl)=C(c1ccc(Cl)cc1)c1ccc(Cl)cc1

> <preferred_name>
p,p'-DDE

> <dsstox_substance_id>
DTXSID9020374

> <dsstox_compound_id>
DTXCID90374

> <qc_level>
DSSTox_High

> <Canonical_QSARr>
ClC(Cl)=C(C1C=CC(Cl)=CC=1)C1C=CC(Cl)=CC=1

> <InChI_Code_QSARr>
InChI=1S/C14H8Cl4/c15-11-5-1-9(2-6-11)13(14(17)18)10-3-7-12(16)8-4-10/h1-8H

> <InChI Key_QSARr>
UCNVFOCBFJOQAL-UHFFFAOYSA-N

> <Salt_Solvent>


> <Salt_Solvent_ID>
0

> <MPID>
99328

> <KocRef>
Schuurmann-Main

> <LogKOC>
4.82

> <Tr_1_Tst_0>
1

$$$$
100052
  Mrv171c012251911022D          

  2  1  0  0  0  0            999 V2000
    0.8250    0.0000    0.0000 C   0  0  0  0  0  0  0  0  0  0  0  0
    0.0000    0.0000    0.0000 Br  0  0  0  0  0  0  0  0  0  0  0  0
  1  2  1  0  0  0  0
M  END
> <ChemID>
100052

> <CAS>
74-83-9

> <Original_SMILES>
CBr

> <preferred_name>
Methyl bromide

> <dsstox_substance_id>
DTXSID8020832

> <dsstox_compound_id>
DTXCID00832

> <qc_level>
DSSTox_Low

> <Canonical_QSARr>
CBr

> <InChI_Code_QSARr>
InChI=1S/CH3Br/c1-2/h1H3

> <InChI Key_QSARr>
GZUXJHMPEANEGY-UHFFFAOYSA-N

> <Salt_Solvent>


> <Salt_Solvent_ID>
0

> <MPID>
99329

> <KocRef>
Schuurmann-Main

> <LogKOC>
1.34

> <Tr_1_Tst_0>
1

$$$$
100053
  Mrv171c012251911022D          

  3  2  0  0  0  0            999 V2000
   -0.0002   -0.1377    0.0000 Cl  0  0  0  0  0  0  0  0  0  0  0  0
    0.7143   -0.5502    0.0000 C   0  0  0  0  0  0  0  0  0  0  0  0
    1.4287   -0.1377    0.0000 Cl  0  0  0  0  0  0  0  0  0  0  0  0
  1  2  1  0  0  0  0
  2  3  1  0  0  0  0
M  END
> <ChemID>
100053

> <CAS>
75-09-2

> <Original_SMILES>
ClCCl

> <preferred_name>
Dichloromethane

> <dsstox_substance_id>
DTXSID0020868

> <dsstox_compound_id>
DTXCID40868

> <qc_level>
DSSTox_Low

> <Canonical_QSARr>
ClCCl

> <InChI_Code_QSARr>
InChI=1S/CH2Cl2/c2-1-3/h1H2

> <InChI Key_QSARr>
YMWUJEATGCHHMB-UHFFFAOYSA-N

> <Salt_Solvent>


> <Salt_Solvent_ID>
0

> <MPID>
99330

> <KocRef>
SRC 1992 Non-Polar

> <LogKOC>
1.44

> <Tr_1_Tst_0>
0

$$$$
100054
  Mrv171c012251911022D          

  3  2  0  0  0  0            999 V2000
    0.7127   -0.4119    0.0000 C   0  0  0  0  0  0  0  0  0  0  0  0
   -0.1123   -0.4119    0.0000 S   0  0  0  0  0  0  0  0  0  0  0  0
    1.5377   -0.4119    0.0000 S   0  0  0  0  0  0  0  0  0  0  0  0
  1  2  2  0  0  0  0
  1  3  2  0  0  0  0
M  END
> <ChemID>
100054

> <CAS>
75-15-0

> <Original_SMILES>
S=C=S

> <preferred_name>
Carbon disulfide

> <dsstox_substance_id>
DTXSID6023947

> <dsstox_compound_id>
DTXCID103947

> <qc_level>
DSSTox_Low

> <Canonical_QSARr>
S=C=S

> <InChI_Code_QSARr>
InChI=1S/CS2/c2-1-3

> <InChI Key_QSARr>
QGJOPFRUJISHPQ-UHFFFAOYSA-N

> <Salt_Solvent>


> <Salt_Solvent_ID>
0

> <MPID>
99331

> <KocRef>
USDA Pest Prop DB

> <LogKOC>
2.34

> <Tr_1_Tst_0>
1

$$$$
100055
  Mrv171c012251911022D          

  4  3  0  0  0  0            999 V2000
    0.8246   -0.7143    0.0000 C   0  0  0  0  0  0  0  0  0  0  0  0
    1.2371    0.0002    0.0000 Br  0  0  0  0  0  0  0  0  0  0  0  0
    1.2371   -1.4287    0.0000 Br  0  0  0  0  0  0  0  0  0  0  0  0
   -0.0004   -0.7143    0.0000 Br  0  0  0  0  0  0  0  0  0  0  0  0
  1  2  1  0  0  0  0
  1  3  1  0  0  0  0
  1  4  1  0  0  0  0
M  END
> <ChemID>
100055

> <CAS>
75-25-2

> <Original_SMILES>
BrC(Br)Br

> <preferred_name>
Bromoform

> <dsstox_substance_id>
DTXSID1021374

> <dsstox_compound_id>
DTXCID401374

> <qc_level>
DSSTox_Low

> <Canonical_QSARr>
BrC(Br)Br

> <InChI_Code_QSARr>
InChI=1S/CHBr3/c2-1(3)4/h1H

> <InChI Key_QSARr>
DIKBFYAXUHHXCS-UHFFFAOYSA-N

> <Salt_Solvent>


> <Salt_Solvent_ID>
0

> <MPID>
99332

> <KocRef>
Sabljic-Ext

> <LogKOC>
2.06

> <Tr_1_Tst_0>
1

$$$$
100056
  Mrv171c012251911022D          

  4  3  0  0  0  0            999 V2000
    1.2371    0.0002    0.0000 Cl  0  0  0  0  0  0  0  0  0  0  0  0
    0.8246   -0.7143    0.0000 C   0  0  0  0  0  0  0  0  0  0  0  0
    1.2371   -1.4287    0.0000 Br  0  0  0  0  0  0  0  0  0  0  0  0
   -0.0004   -0.7143    0.0000 Cl  0  0  0  0  0  0  0  0  0  0  0  0
  1  2  1  0  0  0  0
  2  3  1  0  0  0  0
  2  4  1  0  0  0  0
M  END
> <ChemID>
100056

> <CAS>
75-27-4

> <Original_SMILES>
ClC(Cl)Br

> <preferred_name>
Bromodichloromethane

> <dsstox_substance_id>
DTXSID1020198

> <dsstox_compound_id>
DTXCID30198

> <qc_level>
DSSTox_Low

> <Canonical_QSARr>
ClC(Cl)Br

> <InChI_Code_QSARr>
InChI=1S/CHBrCl2/c2-1(3)4/h1H

> <InChI Key_QSARr>
FMWLUWPQPKEARP-UHFFFAOYSA-N

> <Salt_Solvent>


> <Salt_Solvent_ID>
0

> <MPID>
99333

> <KocRef>
Sabljic-Ext

> <LogKOC>
1.78

> <Tr_1_Tst_0>
1

$$$$
100057
  Mrv171c012251911022D          

  4  3  0  0  0  0            999 V2000
    1.2371    0.0002    0.0000 C   0  0  0  0  0  0  0  0  0  0  0  0
    0.8246   -0.7143    0.0000 C   0  0  0  0  0  0  0  0  0  0  0  0
    1.2371   -1.4287    0.0000 Cl  0  0  0  0  0  0  0  0  0  0  0  0
   -0.0004   -0.7143    0.0000 Cl  0  0  0  0  0  0  0  0  0  0  0  0
  1  2  1  0  0  0  0
  2  3  1  0  0  0  0
  2  4  1  0  0  0  0
M  END
> <ChemID>
100057

> <CAS>
75-34-3

> <Original_SMILES>
CC(Cl)Cl

> <preferred_name>
1,1-Dichloroethane

> <dsstox_substance_id>
DTXSID1020437

> <dsstox_compound_id>
DTXCID10437

> <qc_level>
DSSTox_Low

> <Canonical_QSARr>
CC(Cl)Cl

> <InChI_Code_QSARr>
InChI=1S/C2H4Cl2/c1-2(3)4/h2H,1H3

> <InChI Key_QSARr>
SCYULBFZEHDVBN-UHFFFAOYSA-N

> <Salt_Solvent>


> <Salt_Solvent_ID>
0

> <MPID>
99334

> <KocRef>
Sabljic-Ext

> <LogKOC>
1.48

> <Tr_1_Tst_0>
0

$$$$
100058
  Mrv171c012251911022D          

  4  3  0  0  0  0            999 V2000
    1.2371    0.0002    0.0000 C   0  0  0  0  0  0  0  0  0  0  0  0
    0.8246   -0.7143    0.0000 C   0  0  0  0  0  0  0  0  0  0  0  0
    1.2371   -1.4287    0.0000 Cl  0  0  0  0  0  0  0  0  0  0  0  0
   -0.0004   -0.7143    0.0000 Cl  0  0  0  0  0  0  0  0  0  0  0  0
  1  2  2  0  0  0  0
  2  3  1  0  0  0  0
  2  4  1  0  0  0  0
M  END
> <ChemID>
100058

> <CAS>
75-35-4

> <Original_SMILES>
C=C(Cl)Cl

> <preferred_name>
1,1-Dichloroethylene

> <dsstox_substance_id>
DTXSID8021438

> <dsstox_compound_id>
DTXCID001438

> <qc_level>
DSSTox_Low

> <Canonical_QSARr>
C=C(Cl)Cl

> <InChI_Code_QSARr>
InChI=1S/C2H2Cl2/c1-2(3)4/h1H2

> <InChI Key_QSARr>
LGXVIGDEPROXKC-UHFFFAOYSA-N

> <Salt_Solvent>


> <Salt_Solvent_ID>
0

> <MPID>
99335

> <KocRef>
Sabljic-Ext

> <LogKOC>
1.81

> <Tr_1_Tst_0>
1

$$$$
100059
  Mrv171c012251911022D          

  5  4  0  0  0  0            999 V2000
    0.8250   -1.6500    0.0000 C   0  0  0  0  0  0  0  0  0  0  0  0
    0.8250   -0.8250    0.0000 As  0  0  0  0  0  0  0  0  0  0  0  0
    0.8250    0.0000    0.0000 O   0  0  0  0  0  0  0  0  0  0  0  0
    1.6500   -0.8250    0.0000 C   0  0  0  0  0  0  0  0  0  0  0  0
    0.0000   -0.8250    0.0000 O   0  0  0  0  0  0  0  0  0  0  0  0
  1  2  1  0  0  0  0
  2  3  1  0  0  0  0
  2  4  1  0  0  0  0
  2  5  2  0  0  0  0
M  END
> <ChemID>
100059

> <CAS>
75-60-5

> <Original_SMILES>
C[As](C)(O)=O

> <preferred_name>
Dimethylarsinic acid

> <dsstox_substance_id>
DTXSID7020508

> <dsstox_compound_id>
DTXCID90508

> <qc_level>
DSSTox_Low

> <Canonical_QSARr>
C[As](C)(O)=O

> <InChI_Code_QSARr>
InChI=1S/C2H7AsO2/c1-3(2,4)5/h1-2H3,(H,4,5)

> <InChI Key_QSARr>
OGGXGZAMXPVRFZ-UHFFFAOYSA-N

> <Salt_Solvent>


> <Salt_Solvent_ID>
0

> <MPID>
99336

> <KocRef>
USDA Pest Prop DB

> <LogKOC>
3.0

> <Tr_1_Tst_0>
1

$$$$
100060
  Mrv171c012251911022D          

  7  6  0  0  0  0            999 V2000
    0.8250   -2.0625    0.0000 C   0  0  0  0  0  0  0  0  0  0  0  0
    0.8250   -1.2375    0.0000 C   0  0  0  0  0  0  0  0  0  0  0  0
    0.8250   -0.4125    0.0000 C   0  0  0  0  0  0  0  0  0  0  0  0
    0.1105    0.0000    0.0000 O   0  0  0  0  0  0  0  0  0  0  0  0
    1.5395   -0.0000    0.0000 O   0  0  0  0  0  0  0  0  0  0  0  0
    1.6500   -1.2375    0.0000 Cl  0  0  0  0  0  0  0  0  0  0  0  0
    0.0000   -1.2375    0.0000 Cl  0  0  0  0  0  0  0  0  0  0  0  0
  1  2  1  0  0  0  0
  2  3  1  0  0  0  0
  3  4  2  0  0  0  0
  3  5  1  0  0  0  0
  2  6  1  0  0  0  0
  2  7  1  0  0  0  0
M  END
> <ChemID>
100060

> <CAS>
75-99-0

> <Original_SMILES>
CC(Cl)(Cl)C(O)=O

> <preferred_name>
Dalapon

> <dsstox_substance_id>
DTXSID2021575

> <dsstox_compound_id>
DTXCID201575

> <qc_level>
DSSTox_Low

> <Canonical_QSARr>
CC(Cl)(Cl)C(O)=O

> <InChI_Code_QSARr>
InChI=1S/C3H4Cl2O2/c1-3(4,5)2(6)7/h1H3,(H,6,7)

> <InChI Key_QSARr>
NDUPDOJHUQKPAG-UHFFFAOYSA-N

> <Salt_Solvent>


> <Salt_Solvent_ID>
0

> <MPID>
99337

> <KocRef>
Schuurmann-Main

> <LogKOC>
0.4

> <Tr_1_Tst_0>
1

$$$$
100061
  Mrv171c012251911022D          

  7  6  0  0  0  0            999 V2000
    1.4143    0.1367    0.0000 Cl  0  0  0  0  0  0  0  0  0  0  0  0
    1.0018   -0.5777    0.0000 C   0  0  0  0  0  0  0  0  0  0  0  0
    0.2873   -0.1652    0.0000 Cl  0  0  0  0  0  0  0  0  0  0  0  0
    1.7163   -0.9902    0.0000 Cl  0  0  0  0  0  0  0  0  0  0  0  0
    0.5893   -1.2922    0.0000 C   0  0  0  0  0  0  0  0  0  0  0  0
    1.0018   -2.0067    0.0000 O   0  0  0  0  0  0  0  0  0  0  0  0
   -0.2357   -1.2922    0.0000 O   0  0  0  0  0  0  0  0  0  0  0  0
  1  2  1  0  0  0  0
  2  3  1  0  0  0  0
  2  4  1  0  0  0  0
  2  5  1  0  0  0  0
  5  6  1  0  0  0  0
  5  7  2  0  0  0  0
M  END
> <ChemID>
100061

> <CAS>
76-03-9

> <Original_SMILES>
OC(=O)C(Cl)(Cl)Cl

> <preferred_name>
Trichloroacetic acid

> <dsstox_substance_id>
DTXSID1021378

> <dsstox_compound_id>
DTXCID001378

> <qc_level>
DSSTox_High

> <Canonical_QSARr>
OC(=O)C(Cl)(Cl)Cl

> <InChI_Code_QSARr>
InChI=1S/C2HCl3O2/c3-2(4,5)1(6)7/h(H,6,7)

> <InChI Key_QSARr>
YNJBWRMUSHSURL-UHFFFAOYSA-N

> <Salt_Solvent>


> <Salt_Solvent_ID>
0

> <MPID>
99338

> <KocRef>
USDA Pest Prop DB

> <LogKOC>
0.3

> <Tr_1_Tst_0>
0

$$$$
100062
  Mrv171c012251911022D          

  7  6  0  0  0  0            999 V2000
    1.4143    0.1367    0.0000 Cl  0  0  0  0  0  0  0  0  0  0  0  0
    1.0018   -0.5777    0.0000 C   0  0  0  0  0  0  0  0  0  0  0  0
    0.2873   -0.1652    0.0000 Cl  0  0  0  0  0  0  0  0  0  0  0  0
    1.7163   -0.9902    0.0000 Cl  0  0  0  0  0  0  0  0  0  0  0  0
    0.5893   -1.2922    0.0000 N   0  3  0  0  0  0  0  0  0  0  0  0
    1.0018   -2.0067    0.0000 O   0  5  0  0  0  0  0  0  0  0  0  0
   -0.2357   -1.2922    0.0000 O   0  0  0  0  0  0  0  0  0  0  0  0
  1  2  1  0  0  0  0
  2  3  1  0  0  0  0
  2  4  1  0  0  0  0
  2  5  1  0  0  0  0
  5  6  1  0  0  0  0
  5  7  2  0  0  0  0
M  CHG  2   5   1   6  -1
M  END
> <ChemID>
100062

> <CAS>
76-06-2

> <Original_SMILES>
[O-][N+](=O)C(Cl)(Cl)Cl

> <preferred_name>
Chloropicrin

> <dsstox_substance_id>
DTXSID0020315

> <dsstox_compound_id>
DTXCID00315

> <qc_level>
DSSTox_High

> <Canonical_QSARr>
[O-][N+](=O)C(Cl)(Cl)Cl

> <InChI_Code_QSARr>
InChI=1S/CCl3NO2/c2-1(3,4)5(6)7

> <InChI Key_QSARr>
LFHISGNCFUNFFM-UHFFFAOYSA-N

> <Salt_Solvent>


> <Salt_Solvent_ID>
0

> <MPID>
99339

> <KocRef>
Schuurmann-Main

> <LogKOC>
1.79

> <Tr_1_Tst_0>
1

$$$$
100063
  Mrv171c012251911022D          

 17 19  0  0  0  0            999 V2000
    1.4056   -1.2261    0.0000 C   0  0  0  0  0  0  0  0  0  0  0  0
    1.3880   -0.3679    0.0000 Cl  0  0  0  0  0  0  0  0  0  0  0  0
    2.0376   -1.5561    0.0000 C   0  0  0  0  0  0  0  0  0  0  0  0
    2.9047   -1.3837    0.0000 C   0  0  0  0  0  0  0  0  0  0  0  0
    3.1554   -0.5320    0.0000 Cl  0  0  0  0  0  0  0  0  0  0  0  0
    3.3896   -2.0511    0.0000 C   0  0  0  0  0  0  0  0  0  0  0  0
    2.9047   -2.7186    0.0000 C   0  0  0  0  0  0  0  0  0  0  0  0
    2.0376   -2.5461    0.0000 C   0  0  0  0  0  0  0  0  0  0  0  0
    1.4056   -2.8761    0.0000 C   0  0  0  0  0  0  0  0  0  0  0  0
    0.6911   -2.4636    0.0000 C   0  0  0  0  0  0  0  0  0  0  0  0
   -0.0477   -2.8895    0.0000 Cl  0  0  0  0  0  0  0  0  0  0  0  0
    0.6911   -1.6386    0.0000 C   0  0  0  0  0  0  0  0  0  0  0  0
   -0.0476   -1.2129    0.0000 Cl  0  0  0  0  0  0  0  0  0  0  0  0
    1.3926   -3.7347    0.0000 Cl  0  0  0  0  0  0  0  0  0  0  0  0
    1.6118   -2.0511    0.0000 C   0  0  0  0  0  0  0  0  0  0  0  0
    2.5556   -1.7741    0.0000 Cl  0  0  0  0  0  0  0  0  0  0  0  0
    2.5548   -2.3315    0.0000 Cl  0  0  0  0  0  0  0  0  0  0  0  0
  1  2  1  0  0  0  0
  3  1  1  0  0  0  0
  3  4  1  0  0  0  0
  4  5  1  0  0  0  0
  4  6  1  0  0  0  0
  6  7  2  0  0  0  0
  7  8  1  0  0  0  0
  8  3  1  0  0  0  0
  9  8  1  0  0  0  0
  9 10  1  0  0  0  0
 10 11  1  0  0  0  0
 10 12  2  0  0  0  0
 12  1  1  0  0  0  0
 12 13  1  0  0  0  0
  9 14  1  0  0  0  0
 15  9  1  0  0  0  0
  1 15  1  0  0  0  0
 15 16  1  0  0  0  0
 15 17  1  0  0  0  0
M  END
> <ChemID>
100063

> <CAS>
76-44-8

> <Original_SMILES>
ClC1(Cl)C2(Cl)C3C=CC(Cl)C3C1(Cl)C(Cl)=C2Cl

> <preferred_name>
Heptachlor

> <dsstox_substance_id>
DTXSID3020679

> <dsstox_compound_id>
DTXCID70679

> <qc_level>
DSSTox_Low

> <Canonical_QSARr>
ClC1(Cl)C2(Cl)C3C=CC(Cl)C3C1(Cl)C(Cl)=C2Cl

> <InChI_Code_QSARr>
InChI=1S/C10H5Cl7/c11-4-2-1-3-5(4)9(15)7(13)6(12)8(3,14)10(9,16)17/h1-5H

> <InChI Key_QSARr>
FRCCEHPWNOQAEU-UHFFFAOYSA-N

> <Salt_Solvent>


> <Salt_Solvent_ID>
0

> <MPID>
99340

> <KocRef>
USDA Pest Prop DB

> <LogKOC>
4.38

> <Tr_1_Tst_0>
1

$$$$
100064
  Mrv171c012251911022D          

 17 16  0  0  0  0            999 V2000
    2.2004   -3.4566    0.0000 P   0  0  0  0  0  0  0  0  0  0  0  0
    2.2004   -4.2816    0.0000 O   0  0  0  0  0  0  0  0  0  0  0  0
    3.0254   -3.4566    0.0000 S   0  0  0  0  0  0  0  0  0  0  0  0
    3.4379   -4.1711    0.0000 C   0  0  0  0  0  0  0  0  0  0  0  0
    4.2629   -4.1711    0.0000 C   0  0  0  0  0  0  0  0  0  0  0  0
    4.6754   -4.8855    0.0000 C   0  0  0  0  0  0  0  0  0  0  0  0
    5.5004   -4.8855    0.0000 C   0  0  0  0  0  0  0  0  0  0  0  0
    1.3754   -3.4566    0.0000 S   0  0  0  0  0  0  0  0  0  0  0  0
    0.9629   -2.7421    0.0000 C   0  0  0  0  0  0  0  0  0  0  0  0
    0.1379   -2.7421    0.0000 C   0  0  0  0  0  0  0  0  0  0  0  0
   -0.2746   -2.0276    0.0000 C   0  0  0  0  0  0  0  0  0  0  0  0
   -1.0996   -2.0276    0.0000 C   0  0  0  0  0  0  0  0  0  0  0  0
    2.2004   -2.6316    0.0000 S   0  0  0  0  0  0  0  0  0  0  0  0
    2.9149   -2.2191    0.0000 C   0  0  0  0  0  0  0  0  0  0  0  0
    3.6294   -2.6316    0.0000 C   0  0  0  0  0  0  0  0  0  0  0  0
    4.3438   -2.2191    0.0000 C   0  0  0  0  0  0  0  0  0  0  0  0
    5.0583   -2.6316    0.0000 C   0  0  0  0  0  0  0  0  0  0  0  0
  1  2  2  0  0  0  0
  1  3  1  0  0  0  0
  3  4  1  0  0  0  0
  4  5  1  0  0  0  0
  5  6  1  0  0  0  0
  6  7  1  0  0  0  0
  1  8  1  0  0  0  0
  8  9  1  0  0  0  0
  9 10  1  0  0  0  0
 10 11  1  0  0  0  0
 11 12  1  0  0  0  0
  1 13  1  0  0  0  0
 13 14  1  0  0  0  0
 14 15  1  0  0  0  0
 15 16  1  0  0  0  0
 16 17  1  0  0  0  0
M  END
> <ChemID>
100064

> <CAS>
78-48-8

> <Original_SMILES>
CCCCSP(=O)(SCCCC)SCCCC

> <preferred_name>
Tribufos

> <dsstox_substance_id>
DTXSID1024174

> <dsstox_compound_id>
DTXCID304174

> <qc_level>
DSSTox_Low

> <Canonical_QSARr>
CCCCSP(=O)(SCCCC)SCCCC

> <InChI_Code_QSARr>
InChI=1S/C12H27OPS3/c1-4-7-10-15-14(13,16-11-8-5-2)17-12-9-6-3/h4-12H2,1-3H3

> <InChI Key_QSARr>
ZOKXUAHZSKEQSS-UHFFFAOYSA-N

> <Salt_Solvent>


> <Salt_Solvent_ID>
0

> <MPID>
99341

> <KocRef>
Schuurmann-Main

> <LogKOC>
3.7

> <Tr_1_Tst_0>
1

$$$$
100065
  Mrv171c012251911022D          

 10 10  0  0  0  0            999 V2000
    0.8878   -0.3833    0.0000 C   0  0  0  0  0  0  0  0  0  0  0  0
    1.4181   -1.0153    0.0000 C   0  0  0  0  0  0  0  0  0  0  0  0
    1.9484   -0.3833    0.0000 C   0  0  0  0  0  0  0  0  0  0  0  0
    0.7037   -1.4278    0.0000 C   0  0  0  0  0  0  0  0  0  0  0  0
    0.7037   -2.2528    0.0000 C   0  0  0  0  0  0  0  0  0  0  0  0
   -0.0108   -2.6653    0.0000 O   0  0  0  0  0  0  0  0  0  0  0  0
    1.4181   -2.6653    0.0000 C   0  0  0  0  0  0  0  0  0  0  0  0
    2.1326   -2.2528    0.0000 C   0  0  0  0  0  0  0  0  0  0  0  0
    2.8471   -2.6653    0.0000 C   0  0  0  0  0  0  0  0  0  0  0  0
    2.1326   -1.4278    0.0000 C   0  0  0  0  0  0  0  0  0  0  0  0
  1  2  1  0  0  0  0
  2  3  1  0  0  0  0
  4  2  1  0  0  0  0
  5  4  1  0  0  0  0
  5  6  2  0  0  0  0
  7  5  1  0  0  0  0
  8  7  2  0  0  0  0
  8  9  1  0  0  0  0
 10  8  1  0  0  0  0
  2 10  1  0  0  0  0
M  END
> <ChemID>
100065

> <CAS>
78-59-1

> <Original_SMILES>
CC1CC(C)(C)CC(=O)C=1

> <preferred_name>
Isophorone

> <dsstox_substance_id>
DTXSID8020759

> <dsstox_compound_id>
DTXCID40759

> <qc_level>
DSSTox_Low

> <Canonical_QSARr>
CC1CC(C)(C)CC(=O)C=1

> <InChI_Code_QSARr>
InChI=1S/C9H14O/c1-7-4-8(10)6-9(2,3)5-7/h4H,5-6H2,1-3H3

> <InChI Key_QSARr>
HJOVHMDZYOCNQW-UHFFFAOYSA-N

> <Salt_Solvent>


> <Salt_Solvent_ID>
0

> <MPID>
99342

> <KocRef>
Schuurmann-Main

> <LogKOC>
1.4

> <Tr_1_Tst_0>
0

$$$$
100066
  Mrv171c012251911022D          

  5  4  0  0  0  0            999 V2000
    2.2164   -0.9681    0.0000 C   0  0  0  0  0  0  0  0  0  0  0  0
    1.3914   -0.9681    0.0000 C   0  0  0  0  0  0  0  0  0  0  0  0
    0.9789   -1.6826    0.0000 Cl  0  0  0  0  0  0  0  0  0  0  0  0
    0.9789   -0.2536    0.0000 C   0  0  0  0  0  0  0  0  0  0  0  0
    0.1539   -0.2536    0.0000 Cl  0  0  0  0  0  0  0  0  0  0  0  0
  1  2  1  0  0  0  0
  2  3  1  0  0  0  0
  2  4  1  0  0  0  0
  4  5  1  0  0  0  0
M  END
> <ChemID>
100066

> <CAS>
78-87-5

> <Original_SMILES>
CC(Cl)CCl

> <preferred_name>
1,2-Dichloropropane

> <dsstox_substance_id>
DTXSID0020448

> <dsstox_compound_id>
DTXCID60448

> <qc_level>
DSSTox_Low

> <Canonical_QSARr>
CC(Cl)CCl

> <InChI_Code_QSARr>
InChI=1S/C3H6Cl2/c1-3(5)2-4/h3H,2H2,1H3

> <InChI Key_QSARr>
KNKRKFALVUDBJE-UHFFFAOYSA-N

> <Salt_Solvent>


> <Salt_Solvent_ID>
0

> <MPID>
99343

> <KocRef>
SRC 1992 Non-Polar

> <LogKOC>
1.67

> <Tr_1_Tst_0>
1

$$$$
100067
  Mrv171c012251911022D          

  5  4  0  0  0  0            999 V2000
    2.2148   -0.9669    0.0000 Cl  0  0  0  0  0  0  0  0  0  0  0  0
    1.3898   -0.9669    0.0000 C   0  0  0  0  0  0  0  0  0  0  0  0
    0.9773   -1.6814    0.0000 Cl  0  0  0  0  0  0  0  0  0  0  0  0
    0.9773   -0.2525    0.0000 C   0  0  0  0  0  0  0  0  0  0  0  0
    0.1523   -0.2525    0.0000 Cl  0  0  0  0  0  0  0  0  0  0  0  0
  1  2  1  0  0  0  0
  2  3  1  0  0  0  0
  2  4  1  0  0  0  0
  4  5  1  0  0  0  0
M  END
> <ChemID>
100067

> <CAS>
79-00-5

> <Original_SMILES>
ClCC(Cl)Cl

> <preferred_name>
1,1,2-Trichloroethane

> <dsstox_substance_id>
DTXSID5021380

> <dsstox_compound_id>
DTXCID101380

> <qc_level>
DSSTox_Low

> <Canonical_QSARr>
ClCC(Cl)Cl

> <InChI_Code_QSARr>
InChI=1S/C2H3Cl3/c3-1-2(4)5/h2H,1H2

> <InChI Key_QSARr>
UBOXGVDOUJQMTN-UHFFFAOYSA-N

> <Salt_Solvent>


> <Salt_Solvent_ID>
0

> <MPID>
99344

> <KocRef>
SRC 1992 Non-Polar

> <LogKOC>
1.89

> <Tr_1_Tst_0>
1

$$$$
100068
  Mrv171c012251911022D          

  5  4  0  0  0  0            999 V2000
    1.8023    0.0333    0.0000 Cl  0  0  0  0  0  0  0  0  0  0  0  0
    1.3898   -0.6812    0.0000 C   0  0  0  0  0  0  0  0  0  0  0  0
    1.8023   -1.3956    0.0000 Cl  0  0  0  0  0  0  0  0  0  0  0  0
    0.5648   -0.6812    0.0000 C   0  0  0  0  0  0  0  0  0  0  0  0
    0.1523   -1.3956    0.0000 Cl  0  0  0  0  0  0  0  0  0  0  0  0
  1  2  1  0  0  0  0
  2  3  1  0  0  0  0
  2  4  2  0  0  0  0
  4  5  1  0  0  0  0
M  END
> <ChemID>
100068

> <CAS>
79-01-6

> <Original_SMILES>
ClC=C(Cl)Cl

> <preferred_name>
Trichloroethylene

> <dsstox_substance_id>
DTXSID0021383

> <dsstox_compound_id>
DTXCID901382

> <qc_level>
DSSTox_Low

> <Canonical_QSARr>
ClC=C(Cl)Cl

> <InChI_Code_QSARr>
InChI=1S/C2HCl3/c3-1-2(4)5/h1H

> <InChI Key_QSARr>
XSTXAVWGXDQKEL-UHFFFAOYSA-N

> <Salt_Solvent>


> <Salt_Solvent_ID>
0

> <MPID>
99345

> <KocRef>
SRC 1992 Non-Polar

> <LogKOC>
2.0

> <Tr_1_Tst_0>
1

$$$$
100069
  Mrv171c012251911022D          

  5  4  0  0  0  0            999 V2000
    1.5564   -1.8255    0.0000 N   0  0  0  0  0  0  0  0  0  0  0  0
    1.1439   -1.1110    0.0000 C   0  0  0  0  0  0  0  0  0  0  0  0
    1.5564   -0.3965    0.0000 C   0  0  0  0  0  0  0  0  0  0  0  0
    1.1439    0.3179    0.0000 C   0  0  0  0  0  0  0  0  0  0  0  0
    0.3189   -1.1110    0.0000 O   0  0  0  0  0  0  0  0  0  0  0  0
  1  2  1  0  0  0  0
  2  3  1  0  0  0  0
  3  4  2  0  0  0  0
  2  5  2  0  0  0  0
M  END
> <ChemID>
100069

> <CAS>
79-06-1

> <Original_SMILES>
C=CC(N)=O

> <preferred_name>
Acrylamide

> <dsstox_substance_id>
DTXSID5020027

> <dsstox_compound_id>
DTXCID6027

> <qc_level>
DSSTox_Low

> <Canonical_QSARr>
C=CC(N)=O

> <InChI_Code_QSARr>
InChI=1S/C3H5NO/c1-2-3(4)5/h2H,1H2,(H2,4,5)

> <InChI Key_QSARr>
HRPVXLWXLXDGHG-UHFFFAOYSA-N

> <Salt_Solvent>


> <Salt_Solvent_ID>
0

> <MPID>
99346

> <KocRef>
Schuurmann-Main

> <LogKOC>
1.7

> <Tr_1_Tst_0>
0

$$$$
100070
  Mrv171c012251911022D          

  6  5  0  0  0  0            999 V2000
    0.8241    0.0007    0.0000 Cl  0  0  0  0  0  0  0  0  0  0  0  0
    1.2366   -0.7138    0.0000 C   0  0  0  0  0  0  0  0  0  0  0  0
    2.0616   -0.7138    0.0000 Cl  0  0  0  0  0  0  0  0  0  0  0  0
    0.8241   -1.4283    0.0000 C   0  0  0  0  0  0  0  0  0  0  0  0
    1.2366   -2.1427    0.0000 Cl  0  0  0  0  0  0  0  0  0  0  0  0
   -0.0009   -1.4283    0.0000 Cl  0  0  0  0  0  0  0  0  0  0  0  0
  1  2  1  0  0  0  0
  2  3  1  0  0  0  0
  2  4  1  0  0  0  0
  4  5  1  0  0  0  0
  4  6  1  0  0  0  0
M  END
> <ChemID>
100070

> <CAS>
79-34-5

> <Original_SMILES>
ClC(Cl)C(Cl)Cl

> <preferred_name>
1,1,2,2-Tetrachloroethane

> <dsstox_substance_id>
DTXSID7021318

> <dsstox_compound_id>
DTXCID201318

> <qc_level>
DSSTox_Low

> <Canonical_QSARr>
ClC(Cl)C(Cl)Cl

> <InChI_Code_QSARr>
InChI=1S/C2H2Cl4/c3-1(4)2(5)6/h1-2H

> <InChI Key_QSARr>
QPFMBZIOSGYJDE-UHFFFAOYSA-N

> <Salt_Solvent>


> <Salt_Solvent_ID>
0

> <MPID>
99347

> <KocRef>
SRC 1992 Non-Polar

> <LogKOC>
1.9

> <Tr_1_Tst_0>
1

$$$$
100071
  Mrv171c012251911022D          

 23 25  0  0  0  0            999 V2000
    1.1292    1.1264    0.0000 O   0  0  0  0  0  0  0  0  0  0  0  0
    1.1292    0.3014    0.0000 C   0  0  0  0  0  0  0  0  0  0  0  0
    0.4147   -0.1111    0.0000 C   0  0  0  0  0  0  0  0  0  0  0  0
   -0.2997    0.3014    0.0000 C   0  0  0  0  0  0  0  0  0  0  0  0
   -1.0142   -0.1111    0.0000 C   0  0  0  0  0  0  0  0  0  0  0  0
   -1.7287    0.3014    0.0000 C   0  0  0  0  0  0  0  0  0  0  0  0
   -2.4432   -0.1111    0.0000 C   0  0  0  0  0  0  0  0  0  0  0  0
   -2.4432   -0.9361    0.0000 C   0  0  0  0  0  0  0  0  0  0  0  0
   -1.7287   -1.3486    0.0000 C   0  0  0  0  0  0  0  0  0  0  0  0
   -1.0142   -0.9361    0.0000 C   0  0  0  0  0  0  0  0  0  0  0  0
   -0.2997    1.1264    0.0000 C   0  0  0  0  0  0  0  0  0  0  0  0
   -1.0142    1.5389    0.0000 C   0  0  0  0  0  0  0  0  0  0  0  0
   -1.7287    1.1264    0.0000 O   0  0  0  0  0  0  0  0  0  0  0  0
   -1.0142    2.3639    0.0000 C   0  0  0  0  0  0  0  0  0  0  0  0
    0.4147   -0.9361    0.0000 C   0  0  0  0  0  0  0  0  0  0  0  0
   -0.2997   -1.3486    0.0000 O   0  0  0  0  0  0  0  0  0  0  0  0
    1.1292   -1.3486    0.0000 O   0  0  0  0  0  0  0  0  0  0  0  0
    1.8437   -0.9361    0.0000 C   0  0  0  0  0  0  0  0  0  0  0  0
    1.8437   -0.1111    0.0000 C   0  0  0  0  0  0  0  0  0  0  0  0
    2.5581    0.3014    0.0000 C   0  0  0  0  0  0  0  0  0  0  0  0
    3.2726   -0.1111    0.0000 C   0  0  0  0  0  0  0  0  0  0  0  0
    3.2726   -0.9361    0.0000 C   0  0  0  0  0  0  0  0  0  0  0  0
    2.5581   -1.3486    0.0000 C   0  0  0  0  0  0  0  0  0  0  0  0
  1  2  2  0  0  0  0
  3  2  1  0  0  0  0
  3  4  1  0  0  0  0
  4  5  1  0  0  0  0
  6  5  2  0  0  0  0
  7  6  1  0  0  0  0
  8  7  2  0  0  0  0
  9  8  1  0  0  0  0
 10  9  2  0  0  0  0
  5 10  1  0  0  0  0
  4 11  1  0  0  0  0
 11 12  1  0  0  0  0
 12 13  2  0  0  0  0
 12 14  1  0  0  0  0
 15  3  1  0  0  0  0
 15 16  2  0  0  0  0
 17 15  1  0  0  0  0
 18 17  1  0  0  0  0
 18 19  2  0  0  0  0
  2 19  1  0  0  0  0
 19 20  1  0  0  0  0
 20 21  2  0  0  0  0
 21 22  1  0  0  0  0
 22 23  2  0  0  0  0
 23 18  1  0  0  0  0
M  END
> <ChemID>
100071

> <CAS>
81-81-2

> <Original_SMILES>
CC(=O)CC(C1=C(O)c2ccccc2OC1=O)c1ccccc1

> <preferred_name>
Warfarin

> <dsstox_substance_id>
DTXSID5023742

> <dsstox_compound_id>
DTXCID703742

> <qc_level>
DSSTox_Low

> <Canonical_QSARr>
CC(=O)CC(C1C(=O)OC2C=CC=CC=2C1=O)C1C=CC=CC=1

> <InChI_Code_QSARr>
InChI=1S/C19H16O4/c1-12(20)11-15(13-7-3-2-4-8-13)17-18(21)14-9-5-6-10-16(14)23-19(17)22/h2-10,15,17H,11H2,1H3

> <InChI Key_QSARr>
FQEPJUOLUDFINX-UHFFFAOYSA-N

> <Salt_Solvent>


> <Salt_Solvent_ID>
0

> <MPID>
99348

> <KocRef>
Schuurmann-Main

> <LogKOC>
2.96

> <Tr_1_Tst_0>
1

$$$$
100072
  Mrv171c012251911022D          

 18 20  0  0  0  0            999 V2000
    2.5704    0.0877    0.0000 O   0  0  0  0  0  0  0  0  0  0  0  0
    2.5704   -0.7373    0.0000 C   0  0  0  0  0  0  0  0  0  0  0  0
    3.2848   -1.1498    0.0000 C   0  0  0  0  0  0  0  0  0  0  0  0
    3.9993   -0.7373    0.0000 C   0  0  0  0  0  0  0  0  0  0  0  0
    4.7138   -1.1498    0.0000 C   0  0  0  0  0  0  0  0  0  0  0  0
    4.7138   -1.9748    0.0000 C   0  0  0  0  0  0  0  0  0  0  0  0
    3.9993   -2.3873    0.0000 C   0  0  0  0  0  0  0  0  0  0  0  0
    3.2848   -1.9748    0.0000 C   0  0  0  0  0  0  0  0  0  0  0  0
    2.5704   -2.3873    0.0000 C   0  0  0  0  0  0  0  0  0  0  0  0
    2.5704   -3.2123    0.0000 O   0  0  0  0  0  0  0  0  0  0  0  0
    1.8559   -1.9748    0.0000 C   0  0  0  0  0  0  0  0  0  0  0  0
    1.1414   -2.3873    0.0000 C   0  0  0  0  0  0  0  0  0  0  0  0
    0.4270   -1.9748    0.0000 C   0  0  0  0  0  0  0  0  0  0  0  0
    0.4270   -1.1498    0.0000 C   0  0  0  0  0  0  0  0  0  0  0  0
   -0.2875   -0.7373    0.0000 C   0  0  0  0  0  0  0  0  0  0  0  0
    1.1414   -0.7373    0.0000 C   0  0  0  0  0  0  0  0  0  0  0  0
    1.1414    0.0877    0.0000 N   0  0  0  0  0  0  0  0  0  0  0  0
    1.8559   -1.1498    0.0000 C   0  0  0  0  0  0  0  0  0  0  0  0
  1  2  2  0  0  0  0
  3  2  1  0  0  0  0
  3  4  1  0  0  0  0
  4  5  2  0  0  0  0
  5  6  1  0  0  0  0
  6  7  2  0  0  0  0
  7  8  1  0  0  0  0
  8  3  2  0  0  0  0
  9  8  1  0  0  0  0
  9 10  2  0  0  0  0
 11  9  1  0  0  0  0
 11 12  2  0  0  0  0
 12 13  1  0  0  0  0
 13 14  2  0  0  0  0
 14 15  1  0  0  0  0
 14 16  1  0  0  0  0
 16 17  1  0  0  0  0
 16 18  2  0  0  0  0
  2 18  1  0  0  0  0
 18 11  1  0  0  0  0
M  END
> <ChemID>
100072

> <CAS>
82-28-0

> <Original_SMILES>
Cc1ccc2c(c1N)C(=O)c1ccccc1C2=O

> <preferred_name>
1-Amino-2-methylanthraquinone

> <dsstox_substance_id>
DTXSID7020057

> <dsstox_compound_id>
DTXCID9057

> <qc_level>
DSSTox_Low

> <Canonical_QSARr>
CC1=CC=C2C(=C1N)C(=O)C1C=CC=CC=1C2=O

> <InChI_Code_QSARr>
InChI=1S/C15H11NO2/c1-8-6-7-11-12(13(8)16)15(18)10-5-3-2-4-9(10)14(11)17/h2-7H,16H2,1H3

> <InChI Key_QSARr>
ZLCUIOWQYBYEBG-UHFFFAOYSA-N

> <Salt_Solvent>


> <Salt_Solvent_ID>
0

> <MPID>
99349

> <KocRef>
Schuurmann-Main

> <LogKOC>
3.9

> <Tr_1_Tst_0>
1

$$$$
100073
  Mrv171c012251911022D          

 14 14  0  0  0  0            999 V2000
    2.9381   -0.4551    0.0000 Cl  0  0  0  0  0  0  0  0  0  0  0  0
    2.2237   -0.8676    0.0000 C   0  0  0  0  0  0  0  0  0  0  0  0
    1.5092   -0.4551    0.0000 C   0  0  0  0  0  0  0  0  0  0  0  0
    1.5092    0.3699    0.0000 Cl  0  0  0  0  0  0  0  0  0  0  0  0
    0.7947   -0.8676    0.0000 C   0  0  0  0  0  0  0  0  0  0  0  0
    0.0802   -0.4551    0.0000 Cl  0  0  0  0  0  0  0  0  0  0  0  0
    0.7947   -1.6926    0.0000 C   0  0  0  0  0  0  0  0  0  0  0  0
    0.0802   -2.1051    0.0000 Cl  0  0  0  0  0  0  0  0  0  0  0  0
    1.5092   -2.1051    0.0000 C   0  0  0  0  0  0  0  0  0  0  0  0
    1.5092   -2.9301    0.0000 Cl  0  0  0  0  0  0  0  0  0  0  0  0
    2.2237   -1.6926    0.0000 C   0  0  0  0  0  0  0  0  0  0  0  0
    2.9381   -2.1051    0.0000 N   0  3  0  0  0  0  0  0  0  0  0  0
    3.6526   -1.6926    0.0000 O   0  5  0  0  0  0  0  0  0  0  0  0
    2.9381   -2.9301    0.0000 O   0  0  0  0  0  0  0  0  0  0  0  0
  1  2  1  0  0  0  0
  3  2  1  0  0  0  0
  3  4  1  0  0  0  0
  5  3  2  0  0  0  0
  5  6  1  0  0  0  0
  7  5  1  0  0  0  0
  7  8  1  0  0  0  0
  9  7  2  0  0  0  0
  9 10  1  0  0  0  0
 11  9  1  0  0  0  0
  2 11  2  0  0  0  0
 11 12  1  0  0  0  0
 12 13  1  0  0  0  0
 12 14  2  0  0  0  0
M  CHG  2  12   1  13  -1
M  END
> <ChemID>
100073

> <CAS>
82-68-8

> <Original_SMILES>
[O-][N+](=O)c1c(Cl)c(Cl)c(Cl)c(Cl)c1Cl

> <preferred_name>
Pentachloronitrobenzene

> <dsstox_substance_id>
DTXSID2021105

> <dsstox_compound_id>
DTXCID301105

> <qc_level>
DSSTox_Low

> <Canonical_QSARr>
[O-][N+](=O)C1C(Cl)=C(Cl)C(Cl)=C(Cl)C=1Cl

> <InChI_Code_QSARr>
InChI=1S/C6Cl5NO2/c7-1-2(8)4(10)6(12(13)14)5(11)3(1)9

> <InChI Key_QSARr>
LKPLKUMXSAEKID-UHFFFAOYSA-N

> <Salt_Solvent>


> <Salt_Solvent_ID>
0

> <MPID>
99350

> <KocRef>
Schuurm-USDA avg

> <LogKOC>
3.98

> <Tr_1_Tst_0>
0

$$$$
100074
  Mrv171c012251911022D          

 12 14  0  0  0  0            999 V2000
    0.0158   -0.8857    0.0000 C   0  0  0  0  0  0  0  0  0  0  0  0
    0.7694   -0.5501    0.0000 C   0  0  0  0  0  0  0  0  0  0  0  0
    1.0244    0.2345    0.0000 C   0  0  0  0  0  0  0  0  0  0  0  0
    1.8494    0.2345    0.0000 C   0  0  0  0  0  0  0  0  0  0  0  0
    2.1043   -0.5501    0.0000 C   0  0  0  0  0  0  0  0  0  0  0  0
    1.4369   -1.0350    0.0000 C   0  0  0  0  0  0  0  0  0  0  0  0
    1.3506   -1.8555    0.0000 C   0  0  0  0  0  0  0  0  0  0  0  0
    2.2768   -2.1911    0.0000 C   0  0  0  0  0  0  0  0  0  0  0  0
    2.9442   -1.7061    0.0000 C   0  0  0  0  0  0  0  0  0  0  0  0
    2.8580   -0.8857    0.0000 C   0  0  0  0  0  0  0  0  0  0  0  0
    0.5970   -2.1911    0.0000 C   0  0  0  0  0  0  0  0  0  0  0  0
   -0.0705   -1.7061    0.0000 C   0  0  0  0  0  0  0  0  0  0  0  0
  2  1  1  0  0  0  0
  2  3  1  0  0  0  0
  3  4  1  0  0  0  0
  4  5  1  0  0  0  0
  5  6  1  0  0  0  0
  6  2  2  0  0  0  0
  6  7  1  0  0  0  0
  7  8  1  0  0  0  0
  8  9  2  0  0  0  0
  9 10  1  0  0  0  0
 10  5  2  0  0  0  0
 11  7  2  0  0  0  0
 12 11  1  0  0  0  0
  1 12  2  0  0  0  0
M  END
> <ChemID>
100074

> <CAS>
83-32-9

> <Original_SMILES>
C1Cc2cccc3cccc1c23

> <preferred_name>
Acenaphthene

> <dsstox_substance_id>
DTXSID3021774

> <dsstox_compound_id>
DTXCID201774

> <qc_level>
DSSTox_Low

> <Canonical_QSARr>
C1CC2=CC=CC3=CC=CC1=C23

> <InChI_Code_QSARr>
InChI=1S/C12H10/c1-3-9-4-2-6-11-8-7-10(5-1)12(9)11/h1-6H,7-8H2

> <InChI Key_QSARr>
CWRYPZZKDGJXCA-UHFFFAOYSA-N

> <Salt_Solvent>


> <Salt_Solvent_ID>
0

> <MPID>
99351

> <KocRef>
Schuurmann-Main

> <LogKOC>
3.59

> <Tr_1_Tst_0>
1

$$$$
100075
  Mrv171c012251911022D          

 29 33  0  0  0  0            999 V2000
    2.9717   -3.4404    0.0000 C   0  0  0  0  0  0  0  0  0  0  0  0
    3.3950   -4.1485    0.0000 O   0  0  0  0  0  0  0  0  0  0  0  0
    4.2199   -4.1360    0.0000 C   0  0  0  0  0  0  0  0  0  0  0  0
    4.6432   -4.8441    0.0000 C   0  0  0  0  0  0  0  0  0  0  0  0
    5.4681   -4.8316    0.0000 O   0  0  0  0  0  0  0  0  0  0  0  0
    5.8697   -4.1109    0.0000 C   0  0  0  0  0  0  0  0  0  0  0  0
    6.6946   -4.0983    0.0000 C   0  0  0  0  0  0  0  0  0  0  0  0
    7.0962   -3.3777    0.0000 C   0  0  0  0  0  0  0  0  0  0  0  0
    7.9211   -3.3651    0.0000 O   0  0  0  0  0  0  0  0  0  0  0  0
    8.3227   -2.6445    0.0000 C   0  0  0  0  0  0  0  0  0  0  0  0
    6.6729   -2.6696    0.0000 C   0  0  0  0  0  0  0  0  0  0  0  0
    7.0745   -1.9489    0.0000 O   0  0  0  0  0  0  0  0  0  0  0  0
    6.6512   -1.2408    0.0000 C   0  0  0  0  0  0  0  0  0  0  0  0
    5.8480   -2.6821    0.0000 C   0  0  0  0  0  0  0  0  0  0  0  0
    5.4464   -3.4028    0.0000 C   0  0  0  0  0  0  0  0  0  0  0  0
    4.6215   -3.4153    0.0000 C   0  0  0  0  0  0  0  0  0  0  0  0
    4.1982   -2.7072    0.0000 C   0  0  0  0  0  0  0  0  0  0  0  0
    4.5998   -1.9865    0.0000 O   0  0  0  0  0  0  0  0  0  0  0  0
    3.3733   -2.7198    0.0000 C   0  0  0  0  0  0  0  0  0  0  0  0
    2.9500   -2.0116    0.0000 C   0  0  0  0  0  0  0  0  0  0  0  0
    2.1251   -2.0242    0.0000 C   0  0  0  0  0  0  0  0  0  0  0  0
    1.7235   -2.7448    0.0000 C   0  0  0  0  0  0  0  0  0  0  0  0
    0.9192   -2.9286    0.0000 O   0  0  0  0  0  0  0  0  0  0  0  0
    0.8455   -3.7503    0.0000 C   0  0  0  0  0  0  0  0  0  0  0  0
    0.1373   -4.1736    0.0000 C   0  0  0  0  0  0  0  0  0  0  0  0
    0.1499   -4.9985    0.0000 C   0  0  0  0  0  0  0  0  0  0  0  0
   -0.5833   -3.7721    0.0000 C   0  0  0  0  0  0  0  0  0  0  0  0
    1.6041   -4.0744    0.0000 C   0  0  0  0  0  0  0  0  0  0  0  0
    2.1468   -3.4530    0.0000 C   0  0  0  0  0  0  0  0  0  0  0  0
  2  1  1  0  0  0  0
  3  2  1  0  0  0  0
  3  4  1  0  0  0  0
  4  5  1  0  0  0  0
  5  6  1  0  0  0  0
  7  6  1  0  0  0  0
  8  7  2  0  0  0  0
  8  9  1  0  0  0  0
  9 10  1  0  0  0  0
 11  8  1  0  0  0  0
 11 12  1  0  0  0  0
 12 13  1  0  0  0  0
 14 11  2  0  0  0  0
 15 14  1  0  0  0  0
  6 15  2  0  0  0  0
 15 16  1  0  0  0  0
 16  3  1  0  0  0  0
 17 16  1  0  0  0  0
 17 18  2  0  0  0  0
 19 17  1  0  0  0  0
 19  1  2  0  0  0  0
 20 19  1  0  0  0  0
 21 20  2  0  0  0  0
 22 21  1  0  0  0  0
 22 23  1  0  0  0  0
 23 24  1  0  0  0  0
 24 25  1  0  0  0  0
 25 26  1  0  0  0  0
 25 27  2  0  0  0  0
 24 28  1  0  0  0  0
 28 29  1  0  0  0  0
  1 29  1  0  0  0  0
 29 22  2  0  0  0  0
M  END
> <ChemID>
100075

> <CAS>
83-79-4

> <Original_SMILES>
CC(=C)[C@H]1Cc2c3O[C@@H]4COc5cc(OC)c(cc5[C@@H]4C(=O)c3ccc2O1)OC

> <preferred_name>
Rotenone

> <dsstox_substance_id>
DTXSID6021248

> <dsstox_compound_id>
DTXCID901248

> <qc_level>
DSSTox_Low

> <Canonical_QSARr>
CC(=C)C1CC2C3OC4COC5C=C(OC)C(=CC=5C4C(=O)C=3C=CC=2O1)OC

> <InChI_Code_QSARr>
InChI=1S/C23H22O6/c1-11(2)16-8-14-15(28-16)6-5-12-22(24)21-13-7-18(25-3)19(26-4)9-17(13)27-10-20(21)29-23(12)14/h5-7,9,16,20-21H,1,8,10H2,2-4H3

> <InChI Key_QSARr>
JUVIOZPCNVVQFO-UHFFFAOYSA-N

> <Salt_Solvent>


> <Salt_Solvent_ID>
0

> <MPID>
99352

> <KocRef>
USDA Pest Prop DB

> <LogKOC>
4.0

> <Tr_1_Tst_0>
1

$$$$
100076
  Mrv171c012251911022D          

 16 18  0  0  0  0            999 V2000
    1.4289   -0.4127    0.0000 O   0  0  0  0  0  0  0  0  0  0  0  0
    1.4289   -1.2377    0.0000 C   0  0  0  0  0  0  0  0  0  0  0  0
    2.1434   -1.6502    0.0000 C   0  0  0  0  0  0  0  0  0  0  0  0
    2.8579   -1.2377    0.0000 C   0  0  0  0  0  0  0  0  0  0  0  0
    3.5723   -1.6502    0.0000 C   0  0  0  0  0  0  0  0  0  0  0  0
    3.5723   -2.4752    0.0000 C   0  0  0  0  0  0  0  0  0  0  0  0
    2.8579   -2.8877    0.0000 C   0  0  0  0  0  0  0  0  0  0  0  0
    2.1434   -2.4752    0.0000 C   0  0  0  0  0  0  0  0  0  0  0  0
    1.4289   -2.8877    0.0000 C   0  0  0  0  0  0  0  0  0  0  0  0
    1.4289   -3.7127    0.0000 O   0  0  0  0  0  0  0  0  0  0  0  0
    0.7145   -2.4752    0.0000 C   0  0  0  0  0  0  0  0  0  0  0  0
   -0.0000   -2.8877    0.0000 C   0  0  0  0  0  0  0  0  0  0  0  0
   -0.7145   -2.4752    0.0000 C   0  0  0  0  0  0  0  0  0  0  0  0
   -0.7145   -1.6502    0.0000 C   0  0  0  0  0  0  0  0  0  0  0  0
   -0.0000   -1.2377    0.0000 C   0  0  0  0  0  0  0  0  0  0  0  0
    0.7145   -1.6502    0.0000 C   0  0  0  0  0  0  0  0  0  0  0  0
  1  2  2  0  0  0  0
  3  2  1  0  0  0  0
  3  4  1  0  0  0  0
  4  5  2  0  0  0  0
  5  6  1  0  0  0  0
  6  7  2  0  0  0  0
  7  8  1  0  0  0  0
  8  3  2  0  0  0  0
  9  8  1  0  0  0  0
  9 10  2  0  0  0  0
 11  9  1  0  0  0  0
 11 12  1  0  0  0  0
 12 13  2  0  0  0  0
 13 14  1  0  0  0  0
 14 15  2  0  0  0  0
 15 16  1  0  0  0  0
  2 16  1  0  0  0  0
 16 11  2  0  0  0  0
M  END
> <ChemID>
100076

> <CAS>
84-65-1

> <Original_SMILES>
O=C1c2ccccc2C(=O)c2ccccc12

> <preferred_name>
Anthraquinone

> <dsstox_substance_id>
DTXSID3020095

> <dsstox_compound_id>
DTXCID9095

> <qc_level>
DSSTox_Low

> <Canonical_QSARr>
O=C1C2C=CC=CC=2C(=O)C2C=CC=CC1=2

> <InChI_Code_QSARr>
InChI=1S/C14H8O2/c15-13-9-5-1-2-6-10(9)14(16)12-8-4-3-7-11(12)13/h1-8H

> <InChI Key_QSARr>
RZVHIXYEVGDQDX-UHFFFAOYSA-N

> <Salt_Solvent>


> <Salt_Solvent_ID>
0

> <MPID>
99353

> <KocRef>
Schuurmann-Main

> <LogKOC>
3.57

> <Tr_1_Tst_0>
1

$$$$
100077
  Mrv171c012251911022D          

 16 16  0  0  0  0            999 V2000
    4.8210   -3.4038    0.0000 C   0  0  0  0  0  0  0  0  0  0  0  0
    4.1066   -2.9913    0.0000 C   0  0  0  0  0  0  0  0  0  0  0  0
    3.3921   -3.4038    0.0000 O   0  0  0  0  0  0  0  0  0  0  0  0
    2.6776   -2.9913    0.0000 C   0  0  0  0  0  0  0  0  0  0  0  0
    1.9631   -3.4038    0.0000 C   0  0  0  0  0  0  0  0  0  0  0  0
    1.2487   -2.9913    0.0000 C   0  0  0  0  0  0  0  0  0  0  0  0
    1.2487   -2.1663    0.0000 C   0  0  0  0  0  0  0  0  0  0  0  0
    0.5342   -1.7538    0.0000 O   0  0  0  0  0  0  0  0  0  0  0  0
    0.5342   -0.9288    0.0000 C   0  0  0  0  0  0  0  0  0  0  0  0
   -0.1803   -0.5163    0.0000 C   0  0  0  0  0  0  0  0  0  0  0  0
    1.9631   -1.7538    0.0000 O   0  0  0  0  0  0  0  0  0  0  0  0
    0.5342   -3.4038    0.0000 C   0  0  0  0  0  0  0  0  0  0  0  0
    0.5342   -4.2288    0.0000 C   0  0  0  0  0  0  0  0  0  0  0  0
    1.2487   -4.6413    0.0000 C   0  0  0  0  0  0  0  0  0  0  0  0
    1.9631   -4.2288    0.0000 C   0  0  0  0  0  0  0  0  0  0  0  0
    2.6776   -2.1663    0.0000 O   0  0  0  0  0  0  0  0  0  0  0  0
  1  2  1  0  0  0  0
  2  3  1  0  0  0  0
  3  4  1  0  0  0  0
  4  5  1  0  0  0  0
  6  5  1  0  0  0  0
  6  7  1  0  0  0  0
  7  8  1  0  0  0  0
  8  9  1  0  0  0  0
  9 10  1  0  0  0  0
  7 11  2  0  0  0  0
 12  6  2  0  0  0  0
 13 12  1  0  0  0  0
 14 13  2  0  0  0  0
 15 14  1  0  0  0  0
  5 15  2  0  0  0  0
  4 16  2  0  0  0  0
M  END
> <ChemID>
100077

> <CAS>
84-66-2

> <Original_SMILES>
CCOC(=O)c1ccccc1C(=O)OCC

> <preferred_name>
Diethyl phthalate

> <dsstox_substance_id>
DTXSID7021780

> <dsstox_compound_id>
DTXCID901780

> <qc_level>
DSSTox_Low

> <Canonical_QSARr>
CCOC(=O)C1=CC=CC=C1C(=O)OCC

> <InChI_Code_QSARr>
InChI=1S/C12H14O4/c1-3-15-11(13)9-7-5-6-8-10(9)12(14)16-4-2/h5-8H,3-4H2,1-2H3

> <InChI Key_QSARr>
FLKPEMZONWLCSK-UHFFFAOYSA-N

> <Salt_Solvent>


> <Salt_Solvent_ID>
0

> <MPID>
99354

> <KocRef>
Schuurmann-Main

> <LogKOC>
1.84

> <Tr_1_Tst_0>
0

$$$$
100078
  Mrv171c012251911022D          

 20 20  0  0  0  0            999 V2000
    2.0252   -3.3889    0.0000 C   0  0  0  0  0  0  0  0  0  0  0  0
    2.0252   -2.5639    0.0000 C   0  0  0  0  0  0  0  0  0  0  0  0
    2.7397   -2.1514    0.0000 O   0  0  0  0  0  0  0  0  0  0  0  0
    1.3107   -2.1514    0.0000 O   0  0  0  0  0  0  0  0  0  0  0  0
    1.3107   -1.3264    0.0000 C   0  0  0  0  0  0  0  0  0  0  0  0
    0.5962   -0.9139    0.0000 C   0  0  0  0  0  0  0  0  0  0  0  0
    0.5962   -0.0889    0.0000 C   0  0  0  0  0  0  0  0  0  0  0  0
   -0.1182   -1.3264    0.0000 C   0  0  0  0  0  0  0  0  0  0  0  0
    1.3107   -3.8014    0.0000 C   0  0  0  0  0  0  0  0  0  0  0  0
    1.3107   -4.6264    0.0000 C   0  0  0  0  0  0  0  0  0  0  0  0
    2.0252   -5.0389    0.0000 C   0  0  0  0  0  0  0  0  0  0  0  0
    2.7397   -4.6264    0.0000 C   0  0  0  0  0  0  0  0  0  0  0  0
    2.7397   -3.8014    0.0000 C   0  0  0  0  0  0  0  0  0  0  0  0
    3.4541   -3.3889    0.0000 C   0  0  0  0  0  0  0  0  0  0  0  0
    3.4541   -2.5639    0.0000 O   0  0  0  0  0  0  0  0  0  0  0  0
    4.1686   -3.8014    0.0000 O   0  0  0  0  0  0  0  0  0  0  0  0
    4.8831   -3.3889    0.0000 C   0  0  0  0  0  0  0  0  0  0  0  0
    5.5975   -3.8014    0.0000 C   0  0  0  0  0  0  0  0  0  0  0  0
    6.3120   -3.3889    0.0000 C   0  0  0  0  0  0  0  0  0  0  0  0
    5.5975   -4.6264    0.0000 C   0  0  0  0  0  0  0  0  0  0  0  0
  1  2  1  0  0  0  0
  2  3  2  0  0  0  0
  2  4  1  0  0  0  0
  4  5  1  0  0  0  0
  5  6  1  0  0  0  0
  6  7  1  0  0  0  0
  6  8  1  0  0  0  0
  9  1  1  0  0  0  0
 10  9  2  0  0  0  0
 11 10  1  0  0  0  0
 12 11  2  0  0  0  0
 13 12  1  0  0  0  0
  1 13  2  0  0  0  0
 13 14  1  0  0  0  0
 14 15  2  0  0  0  0
 14 16  1  0  0  0  0
 16 17  1  0  0  0  0
 17 18  1  0  0  0  0
 18 19  1  0  0  0  0
 18 20  1  0  0  0  0
M  END
> <ChemID>
100078

> <CAS>
84-69-5

> <Original_SMILES>
CC(C)COC(=O)c1ccccc1C(=O)OCC(C)C

> <preferred_name>
Diisobutyl phthalate

> <dsstox_substance_id>
DTXSID9022522

> <dsstox_compound_id>
DTXCID602522

> <qc_level>
DSSTox_Low

> <Canonical_QSARr>
CC(C)COC(=O)C1C=CC=CC=1C(=O)OCC(C)C

> <InChI_Code_QSARr>
InChI=1S/C16H22O4/c1-11(2)9-19-15(17)13-7-5-6-8-14(13)16(18)20-10-12(3)4/h5-8,11-12H,9-10H2,1-4H3

> <InChI Key_QSARr>
MGWAVDBGNNKXQV-UHFFFAOYSA-N

> <Salt_Solvent>


> <Salt_Solvent_ID>
0

> <MPID>
99355

> <KocRef>
Schuurmann-Main

> <LogKOC>
3.14

> <Tr_1_Tst_0>
1

$$$$
100079
  Mrv171c012251911022D          

 20 20  0  0  0  0            999 V2000
    0.0455   -1.6321    0.0000 C   0  0  0  0  0  0  0  0  0  0  0  0
   -0.6690   -2.0446    0.0000 C   0  0  0  0  0  0  0  0  0  0  0  0
    0.7600   -2.0446    0.0000 O   0  0  0  0  0  0  0  0  0  0  0  0
    1.4744   -1.6321    0.0000 C   0  0  0  0  0  0  0  0  0  0  0  0
    2.1889   -2.0446    0.0000 C   0  0  0  0  0  0  0  0  0  0  0  0
    2.9034   -1.6321    0.0000 O   0  0  0  0  0  0  0  0  0  0  0  0
    3.6179   -2.0446    0.0000 C   0  0  0  0  0  0  0  0  0  0  0  0
    4.3323   -1.6321    0.0000 C   0  0  0  0  0  0  0  0  0  0  0  0
    5.0468   -2.0446    0.0000 C   0  0  0  0  0  0  0  0  0  0  0  0
    5.0468   -2.8696    0.0000 C   0  0  0  0  0  0  0  0  0  0  0  0
    5.7613   -3.2821    0.0000 O   0  0  0  0  0  0  0  0  0  0  0  0
    5.7613   -4.1071    0.0000 C   0  0  0  0  0  0  0  0  0  0  0  0
    6.4757   -4.5196    0.0000 C   0  0  0  0  0  0  0  0  0  0  0  0
    4.3323   -3.2821    0.0000 O   0  0  0  0  0  0  0  0  0  0  0  0
    5.7613   -1.6321    0.0000 C   0  0  0  0  0  0  0  0  0  0  0  0
    5.7613   -0.8071    0.0000 C   0  0  0  0  0  0  0  0  0  0  0  0
    5.0468   -0.3946    0.0000 C   0  0  0  0  0  0  0  0  0  0  0  0
    4.3323   -0.8071    0.0000 C   0  0  0  0  0  0  0  0  0  0  0  0
    3.6179   -2.8696    0.0000 O   0  0  0  0  0  0  0  0  0  0  0  0
    1.4744   -0.8071    0.0000 O   0  0  0  0  0  0  0  0  0  0  0  0
  1  2  1  0  0  0  0
  1  3  1  0  0  0  0
  3  4  1  0  0  0  0
  4  5  1  0  0  0  0
  5  6  1  0  0  0  0
  6  7  1  0  0  0  0
  7  8  1  0  0  0  0
  9  8  1  0  0  0  0
  9 10  1  0  0  0  0
 10 11  1  0  0  0  0
 11 12  1  0  0  0  0
 12 13  1  0  0  0  0
 10 14  2  0  0  0  0
 15  9  2  0  0  0  0
 16 15  1  0  0  0  0
 17 16  2  0  0  0  0
 18 17  1  0  0  0  0
  8 18  2  0  0  0  0
  7 19  2  0  0  0  0
  4 20  2  0  0  0  0
M  END
> <ChemID>
100079

> <CAS>
84-72-0

> <Original_SMILES>
CCOC(=O)COC(=O)c1ccccc1C(=O)OCC

> <preferred_name>
Ethyl phthalyl ethyl glycolate

> <dsstox_substance_id>
DTXSID3024100

> <dsstox_compound_id>
DTXCID604100

> <qc_level>
DSSTox_High

> <Canonical_QSARr>
CCOC(=O)COC(=O)C1=CC=CC=C1C(=O)OCC

> <InChI_Code_QSARr>
InChI=1S/C14H16O6/c1-3-18-12(15)9-20-14(17)11-8-6-5-7-10(11)13(16)19-4-2/h5-8H,3-4,9H2,1-2H3

> <InChI Key_QSARr>
PZBLUWVMZMXIKZ-UHFFFAOYSA-N

> <Salt_Solvent>


> <Salt_Solvent_ID>
0

> <MPID>
99356

> <KocRef>
Schuurmann-Main

> <LogKOC>
2.54

> <Tr_1_Tst_0>
1

$$$$
100080
  Mrv171c012251911022D          

 20 20  0  0  0  0            999 V2000
    1.5288   -1.6880    0.0000 C   0  0  0  0  0  0  0  0  0  0  0  0
    1.5288   -2.5130    0.0000 C   0  0  0  0  0  0  0  0  0  0  0  0
    2.2433   -2.9255    0.0000 C   0  0  0  0  0  0  0  0  0  0  0  0
    2.2433   -3.7505    0.0000 C   0  0  0  0  0  0  0  0  0  0  0  0
    1.5288   -4.1630    0.0000 O   0  0  0  0  0  0  0  0  0  0  0  0
    1.5288   -4.9880    0.0000 C   0  0  0  0  0  0  0  0  0  0  0  0
    0.8144   -5.4005    0.0000 C   0  0  0  0  0  0  0  0  0  0  0  0
    0.8144   -6.2255    0.0000 C   0  0  0  0  0  0  0  0  0  0  0  0
    0.0999   -6.6380    0.0000 C   0  0  0  0  0  0  0  0  0  0  0  0
    2.9578   -4.1630    0.0000 O   0  0  0  0  0  0  0  0  0  0  0  0
    2.9578   -2.5130    0.0000 C   0  0  0  0  0  0  0  0  0  0  0  0
    3.6723   -2.9255    0.0000 C   0  0  0  0  0  0  0  0  0  0  0  0
    4.3867   -2.5130    0.0000 O   0  0  0  0  0  0  0  0  0  0  0  0
    5.1012   -2.9255    0.0000 C   0  0  0  0  0  0  0  0  0  0  0  0
    5.8157   -2.5130    0.0000 C   0  0  0  0  0  0  0  0  0  0  0  0
    6.5301   -2.9255    0.0000 C   0  0  0  0  0  0  0  0  0  0  0  0
    7.2446   -2.5130    0.0000 C   0  0  0  0  0  0  0  0  0  0  0  0
    3.6723   -3.7505    0.0000 O   0  0  0  0  0  0  0  0  0  0  0  0
    2.9578   -1.6880    0.0000 C   0  0  0  0  0  0  0  0  0  0  0  0
    2.2433   -1.2755    0.0000 C   0  0  0  0  0  0  0  0  0  0  0  0
  2  1  1  0  0  0  0
  3  2  2  0  0  0  0
  3  4  1  0  0  0  0
  4  5  1  0  0  0  0
  5  6  1  0  0  0  0
  6  7  1  0  0  0  0
  7  8  1  0  0  0  0
  8  9  1  0  0  0  0
  4 10  2  0  0  0  0
 11  3  1  0  0  0  0
 11 12  1  0  0  0  0
 12 13  1  0  0  0  0
 13 14  1  0  0  0  0
 14 15  1  0  0  0  0
 15 16  1  0  0  0  0
 16 17  1  0  0  0  0
 12 18  2  0  0  0  0
 19 11  2  0  0  0  0
 20 19  1  0  0  0  0
  1 20  2  0  0  0  0
M  END
> <ChemID>
100080

> <CAS>
84-74-2

> <Original_SMILES>
CCCCOC(=O)c1ccccc1C(=O)OCCCC

> <preferred_name>
Dibutyl phthalate

> <dsstox_substance_id>
DTXSID2021781

> <dsstox_compound_id>
DTXCID301781

> <qc_level>
DSSTox_High

> <Canonical_QSARr>
CCCCOC(=O)C1=CC=CC=C1C(=O)OCCCC

> <InChI_Code_QSARr>
InChI=1S/C16H22O4/c1-3-5-11-19-15(17)13-9-7-8-10-14(13)16(18)20-12-6-4-2/h7-10H,3-6,11-12H2,1-2H3

> <InChI Key_QSARr>
DOIRQSBPFJWKBE-UHFFFAOYSA-N

> <Salt_Solvent>


> <Salt_Solvent_ID>
0

> <MPID>
99357

> <KocRef>
Schuurmann-Main

> <LogKOC>
3.14

> <Tr_1_Tst_0>
1

$$$$
100081
  Mrv171c012251911022D          

 24 24  0  0  0  0            999 V2000
    4.3740   -4.4849    0.0000 O   0  0  0  0  0  0  0  0  0  0  0  0
    4.3740   -3.6599    0.0000 C   0  0  0  0  0  0  0  0  0  0  0  0
    3.6595   -3.2474    0.0000 C   0  0  0  0  0  0  0  0  0  0  0  0
    3.6595   -2.4224    0.0000 C   0  0  0  0  0  0  0  0  0  0  0  0
    2.9450   -2.0099    0.0000 C   0  0  0  0  0  0  0  0  0  0  0  0
    2.2306   -2.4224    0.0000 C   0  0  0  0  0  0  0  0  0  0  0  0
    2.2306   -3.2474    0.0000 C   0  0  0  0  0  0  0  0  0  0  0  0
    2.9450   -3.6599    0.0000 C   0  0  0  0  0  0  0  0  0  0  0  0
    2.9450   -4.4849    0.0000 C   0  0  0  0  0  0  0  0  0  0  0  0
    2.2306   -4.8974    0.0000 O   0  0  0  0  0  0  0  0  0  0  0  0
    2.2306   -5.7224    0.0000 C   0  0  0  0  0  0  0  0  0  0  0  0
    1.5161   -6.1349    0.0000 C   0  0  0  0  0  0  0  0  0  0  0  0
    1.5161   -6.9599    0.0000 C   0  0  0  0  0  0  0  0  0  0  0  0
    0.8016   -7.3724    0.0000 C   0  0  0  0  0  0  0  0  0  0  0  0
    0.8016   -8.1974    0.0000 C   0  0  0  0  0  0  0  0  0  0  0  0
    0.0872   -8.6099    0.0000 C   0  0  0  0  0  0  0  0  0  0  0  0
    3.6595   -4.8974    0.0000 O   0  0  0  0  0  0  0  0  0  0  0  0
    5.0885   -3.2474    0.0000 O   0  0  0  0  0  0  0  0  0  0  0  0
    5.8029   -3.6599    0.0000 C   0  0  0  0  0  0  0  0  0  0  0  0
    6.5174   -3.2474    0.0000 C   0  0  0  0  0  0  0  0  0  0  0  0
    7.2319   -3.6599    0.0000 C   0  0  0  0  0  0  0  0  0  0  0  0
    7.9463   -3.2474    0.0000 C   0  0  0  0  0  0  0  0  0  0  0  0
    8.6608   -3.6599    0.0000 C   0  0  0  0  0  0  0  0  0  0  0  0
    9.3753   -3.2474    0.0000 C   0  0  0  0  0  0  0  0  0  0  0  0
  1  2  2  0  0  0  0
  2  3  1  0  0  0  0
  4  3  1  0  0  0  0
  5  4  2  0  0  0  0
  6  5  1  0  0  0  0
  7  6  2  0  0  0  0
  8  7  1  0  0  0  0
  3  8  2  0  0  0  0
  8  9  1  0  0  0  0
  9 10  1  0  0  0  0
 10 11  1  0  0  0  0
 11 12  1  0  0  0  0
 12 13  1  0  0  0  0
 13 14  1  0  0  0  0
 14 15  1  0  0  0  0
 15 16  1  0  0  0  0
  9 17  2  0  0  0  0
  2 18  1  0  0  0  0
 18 19  1  0  0  0  0
 19 20  1  0  0  0  0
 20 21  1  0  0  0  0
 21 22  1  0  0  0  0
 22 23  1  0  0  0  0
 23 24  1  0  0  0  0
M  END
> <ChemID>
100081

> <CAS>
84-75-3

> <Original_SMILES>
CCCCCCOC(=O)c1ccccc1C(=O)OCCCCCC

> <preferred_name>
Dihexyl phthalate

> <dsstox_substance_id>
DTXSID6025068

> <dsstox_compound_id>
DTXCID505068

> <qc_level>
DSSTox_Low

> <Canonical_QSARr>
CCCCCCOC(=O)C1C=CC=CC=1C(=O)OCCCCCC

> <InChI_Code_QSARr>
InChI=1S/C20H30O4/c1-3-5-7-11-15-23-19(21)17-13-9-10-14-18(17)20(22)24-16-12-8-6-4-2/h9-10,13-14H,3-8,11-12,15-16H2,1-2H3

> <InChI Key_QSARr>
KCXZNSGUUQJJTR-UHFFFAOYSA-N

> <Salt_Solvent>


> <Salt_Solvent_ID>
0

> <MPID>
99358

> <KocRef>
Schuurmann-Main

> <LogKOC>
4.72

> <Tr_1_Tst_0>
0

$$$$
100082
  Mrv171c012251911022D          

 14 16  0  0  0  0            999 V2000
   -0.4125   -0.7145    0.0000 N   0  3  0  0  0  0  0  0  0  0  0  0
    0.0000   -1.4289    0.0000 C   0  0  0  0  0  0  0  0  0  0  0  0
    0.8250   -1.4289    0.0000 C   0  0  0  0  0  0  0  0  0  0  0  0
    1.2375   -0.7145    0.0000 N   0  3  0  0  0  0  0  0  0  0  0  0
    0.8250   -0.0000    0.0000 C   0  0  0  0  0  0  0  0  0  0  0  0
    1.2375    0.7145    0.0000 C   0  0  0  0  0  0  0  0  0  0  0  0
    2.0625    0.7145    0.0000 C   0  0  0  0  0  0  0  0  0  0  0  0
    2.4750   -0.0000    0.0000 C   0  0  0  0  0  0  0  0  0  0  0  0
    2.0625   -0.7145    0.0000 C   0  0  0  0  0  0  0  0  0  0  0  0
    0.0000   -0.0000    0.0000 C   0  0  0  0  0  0  0  0  0  0  0  0
   -0.4125    0.7145    0.0000 C   0  0  0  0  0  0  0  0  0  0  0  0
   -1.2375    0.7145    0.0000 C   0  0  0  0  0  0  0  0  0  0  0  0
   -1.6500   -0.0000    0.0000 C   0  0  0  0  0  0  0  0  0  0  0  0
   -1.2375   -0.7145    0.0000 C   0  0  0  0  0  0  0  0  0  0  0  0
  2  1  1  0  0  0  0
  3  2  1  0  0  0  0
  4  3  1  0  0  0  0
  4  5  2  0  0  0  0
  5  6  1  0  0  0  0
  6  7  2  0  0  0  0
  7  8  1  0  0  0  0
  8  9  2  0  0  0  0
  9  4  1  0  0  0  0
 10  5  1  0  0  0  0
 10  1  2  0  0  0  0
 11 10  1  0  0  0  0
 12 11  2  0  0  0  0
 13 12  1  0  0  0  0
 14 13  2  0  0  0  0
  1 14  1  0  0  0  0
M  CHG  2   1   1   4   1
M  END
> <ChemID>
100082

> <CAS>
85-00-7

> <Original_SMILES>
[Br-].[Br-].C1C[n+]2ccccc2-c2cccc[n+]21

> <preferred_name>
Diquat dibromide

> <dsstox_substance_id>
DTXSID3024075

> <dsstox_compound_id>
DTXCID504075

> <qc_level>
DSSTox_Low

> <Canonical_QSARr>
C1C[N+]2C=CC=CC=2C2C=CC=C[N+]=21

> <InChI_Code_QSARr>
InChI=1S/C12H12N2/c1-3-7-13-9-10-14-8-4-2-6-12(14)11(13)5-1/h1-8H,9-10H2/q+2

> <InChI Key_QSARr>
SYJFEGQWDCRVNX-UHFFFAOYSA-N

> <Salt_Solvent>
[Br-]

> <Salt_Solvent_ID>
350

> <MPID>
99359

> <KocRef>
USDA Pest Prop DB

> <LogKOC>
2.7

> <Tr_1_Tst_0>
1

$$$$
100083
  Mrv171c012251911022D          

 14 16  0  0  0  0            999 V2000
    2.2977   -1.4199    0.0000 C   0  0  0  0  0  0  0  0  0  0  0  0
    2.7102   -0.7054    0.0000 C   0  0  0  0  0  0  0  0  0  0  0  0
    3.5352   -0.7054    0.0000 C   0  0  0  0  0  0  0  0  0  0  0  0
    3.9477   -1.4199    0.0000 C   0  0  0  0  0  0  0  0  0  0  0  0
    3.5352   -2.1344    0.0000 C   0  0  0  0  0  0  0  0  0  0  0  0
    2.7102   -2.1344    0.0000 C   0  0  0  0  0  0  0  0  0  0  0  0
    2.2977   -2.8488    0.0000 C   0  0  0  0  0  0  0  0  0  0  0  0
    1.4727   -2.8488    0.0000 C   0  0  0  0  0  0  0  0  0  0  0  0
    1.0602   -2.1344    0.0000 C   0  0  0  0  0  0  0  0  0  0  0  0
    0.2352   -2.1344    0.0000 C   0  0  0  0  0  0  0  0  0  0  0  0
   -0.1773   -1.4199    0.0000 C   0  0  0  0  0  0  0  0  0  0  0  0
    0.2352   -0.7054    0.0000 C   0  0  0  0  0  0  0  0  0  0  0  0
    1.0602   -0.7054    0.0000 C   0  0  0  0  0  0  0  0  0  0  0  0
    1.4727   -1.4199    0.0000 C   0  0  0  0  0  0  0  0  0  0  0  0
  2  1  1  0  0  0  0
  3  2  2  0  0  0  0
  4  3  1  0  0  0  0
  5  4  2  0  0  0  0
  6  5  1  0  0  0  0
  6  1  2  0  0  0  0
  7  6  1  0  0  0  0
  8  7  2  0  0  0  0
  9  8  1  0  0  0  0
  9 10  1  0  0  0  0
 10 11  2  0  0  0  0
 11 12  1  0  0  0  0
 12 13  2  0  0  0  0
 13 14  1  0  0  0  0
  1 14  1  0  0  0  0
 14  9  2  0  0  0  0
M  END
> <ChemID>
100083

> <CAS>
85-01-8

> <Original_SMILES>
c1cc2ccccc2c2ccccc21

> <preferred_name>
Phenanthrene

> <dsstox_substance_id>
DTXSID6024254

> <dsstox_compound_id>
DTXCID904254

> <qc_level>
DSSTox_Low

> <Canonical_QSARr>
C1=CC2C=CC=CC=2C2C=CC=CC=21

> <InChI_Code_QSARr>
InChI=1S/C14H10/c1-3-7-13-11(5-1)9-10-12-6-2-4-8-14(12)13/h1-10H

> <InChI Key_QSARr>
YNPNZTXNASCQKK-UHFFFAOYSA-N

> <Salt_Solvent>


> <Salt_Solvent_ID>
0

> <MPID>
99360

> <KocRef>
Schuurmann-Main

> <LogKOC>
4.35

> <Tr_1_Tst_0>
1

$$$$
100084
  Mrv171c012251911022D          

 14 16  0  0  0  0            999 V2000
    1.6509   -1.4316    0.0000 C   0  0  0  0  0  0  0  0  0  0  0  0
    2.4759   -1.4316    0.0000 C   0  0  0  0  0  0  0  0  0  0  0  0
    2.8884   -2.1460    0.0000 C   0  0  0  0  0  0  0  0  0  0  0  0
    3.7134   -2.1460    0.0000 C   0  0  0  0  0  0  0  0  0  0  0  0
    4.1259   -1.4316    0.0000 C   0  0  0  0  0  0  0  0  0  0  0  0
    3.7134   -0.7171    0.0000 N   0  0  0  0  0  0  0  0  0  0  0  0
    2.8884   -0.7171    0.0000 C   0  0  0  0  0  0  0  0  0  0  0  0
    2.4759   -0.0026    0.0000 C   0  0  0  0  0  0  0  0  0  0  0  0
    1.6509   -0.0026    0.0000 C   0  0  0  0  0  0  0  0  0  0  0  0
    1.2384   -0.7171    0.0000 C   0  0  0  0  0  0  0  0  0  0  0  0
    0.4134   -0.7171    0.0000 C   0  0  0  0  0  0  0  0  0  0  0  0
    0.0009   -1.4316    0.0000 C   0  0  0  0  0  0  0  0  0  0  0  0
    0.4134   -2.1460    0.0000 C   0  0  0  0  0  0  0  0  0  0  0  0
    1.2384   -2.1460    0.0000 C   0  0  0  0  0  0  0  0  0  0  0  0
  2  1  1  0  0  0  0
  2  3  1  0  0  0  0
  3  4  2  0  0  0  0
  4  5  1  0  0  0  0
  5  6  2  0  0  0  0
  6  7  1  0  0  0  0
  7  2  2  0  0  0  0
  8  7  1  0  0  0  0
  9  8  2  0  0  0  0
 10  9  1  0  0  0  0
 10  1  1  0  0  0  0
 11 10  2  0  0  0  0
 12 11  1  0  0  0  0
 13 12  2  0  0  0  0
 14 13  1  0  0  0  0
  1 14  2  0  0  0  0
M  END
> <ChemID>
100084

> <CAS>
85-02-9

> <Original_SMILES>
c1cccc2c3ccc[n]c3ccc21

> <preferred_name>
Benzo(f)quinoline

> <dsstox_substance_id>
DTXSID2024585

> <dsstox_compound_id>
DTXCID804585

> <qc_level>
DSSTox_Low

> <Canonical_QSARr>
C1=CC2N=CC=CC=2C2=CC=CC=C21

> <InChI_Code_QSARr>
InChI=1S/C13H9N/c1-2-5-11-10(4-1)7-8-13-12(11)6-3-9-14-13/h1-9H

> <InChI Key_QSARr>
HCAUQPZEWLULFJ-UHFFFAOYSA-N

> <Salt_Solvent>


> <Salt_Solvent_ID>
0

> <MPID>
99361

> <KocRef>
Schuurmann-Main

> <LogKOC>
4.64

> <Tr_1_Tst_0>
1

$$$$
100085
  Mrv171c012251911022D          

 13 13  0  0  0  0            999 V2000
    3.8841   -0.9957    0.0000 C   0  0  0  0  0  0  0  0  0  0  0  0
    3.1696   -0.5832    0.0000 C   0  0  0  0  0  0  0  0  0  0  0  0
    2.4552   -0.9957    0.0000 C   0  0  0  0  0  0  0  0  0  0  0  0
    1.7407   -0.5832    0.0000 C   0  0  0  0  0  0  0  0  0  0  0  0
    1.7407    0.2418    0.0000 Br  0  0  0  0  0  0  0  0  0  0  0  0
    1.0262   -0.9957    0.0000 C   0  0  0  0  0  0  0  0  0  0  0  0
    0.3118   -0.5832    0.0000 Br  0  0  0  0  0  0  0  0  0  0  0  0
    1.0262   -1.8207    0.0000 C   0  0  0  0  0  0  0  0  0  0  0  0
    0.3118   -2.2332    0.0000 Br  0  0  0  0  0  0  0  0  0  0  0  0
    1.7407   -2.2332    0.0000 C   0  0  0  0  0  0  0  0  0  0  0  0
    1.7407   -3.0582    0.0000 Br  0  0  0  0  0  0  0  0  0  0  0  0
    2.4552   -1.8207    0.0000 C   0  0  0  0  0  0  0  0  0  0  0  0
    3.1696   -2.2332    0.0000 Br  0  0  0  0  0  0  0  0  0  0  0  0
  1  2  1  0  0  0  0
  2  3  1  0  0  0  0
  4  3  1  0  0  0  0
  4  5  1  0  0  0  0
  6  4  2  0  0  0  0
  6  7  1  0  0  0  0
  8  6  1  0  0  0  0
  8  9  1  0  0  0  0
 10  8  2  0  0  0  0
 10 11  1  0  0  0  0
 12 10  1  0  0  0  0
  3 12  2  0  0  0  0
 12 13  1  0  0  0  0
M  END
> <ChemID>
100085

> <CAS>
85-22-3

> <Original_SMILES>
CCc1c(Br)c(Br)c(Br)c(Br)c1Br

> <preferred_name>
2,3,4,5,6-Pentabromoethylbenzene

> <dsstox_substance_id>
DTXSID7021782

> <dsstox_compound_id>
DTXCID701782

> <qc_level>
DSSTox_Low

> <Canonical_QSARr>
CCC1C(Br)=C(Br)C(Br)=C(Br)C=1Br

> <InChI_Code_QSARr>
InChI=1S/C8H5Br5/c1-2-3-4(9)6(11)8(13)7(12)5(3)10/h2H2,1H3

> <InChI Key_QSARr>
FIAXCDIQXHJNIX-UHFFFAOYSA-N

> <Salt_Solvent>


> <Salt_Solvent_ID>
0

> <MPID>
99362

> <KocRef>
Schuurmann-Main

> <LogKOC>
4.92

> <Tr_1_Tst_0>
1

$$$$
100086
  Mrv171c012251911022D          

 13 13  0  0  0  0            999 V2000
    1.7191   -1.8291    0.0000 C   0  0  0  0  0  0  0  0  0  0  0  0
    1.0046   -1.4166    0.0000 C   0  0  0  0  0  0  0  0  0  0  0  0
    1.0046   -0.5916    0.0000 Cl  0  0  0  0  0  0  0  0  0  0  0  0
    0.2901   -1.8291    0.0000 C   0  0  0  0  0  0  0  0  0  0  0  0
    0.2901   -2.6541    0.0000 C   0  0  0  0  0  0  0  0  0  0  0  0
    1.0046   -3.0666    0.0000 C   0  0  0  0  0  0  0  0  0  0  0  0
    1.0046   -3.8916    0.0000 Cl  0  0  0  0  0  0  0  0  0  0  0  0
    1.7191   -2.6541    0.0000 C   0  0  0  0  0  0  0  0  0  0  0  0
    2.4336   -3.0666    0.0000 Cl  0  0  0  0  0  0  0  0  0  0  0  0
    2.4336   -1.4166    0.0000 C   0  0  0  0  0  0  0  0  0  0  0  0
    3.1480   -1.8291    0.0000 C   0  0  0  0  0  0  0  0  0  0  0  0
    3.8625   -1.4166    0.0000 O   0  0  0  0  0  0  0  0  0  0  0  0
    3.1480   -2.6541    0.0000 O   0  0  0  0  0  0  0  0  0  0  0  0
  2  1  2  0  0  0  0
  2  3  1  0  0  0  0
  4  2  1  0  0  0  0
  5  4  2  0  0  0  0
  6  5  1  0  0  0  0
  6  7  1  0  0  0  0
  8  6  2  0  0  0  0
  1  8  1  0  0  0  0
  8  9  1  0  0  0  0
  1 10  1  0  0  0  0
 10 11  1  0  0  0  0
 11 12  1  0  0  0  0
 11 13  2  0  0  0  0
M  END
> <ChemID>
100086

> <CAS>
85-34-7

> <Original_SMILES>
OC(=O)Cc1c(Cl)c(Cl)ccc1Cl

> <preferred_name>
Chlorfenac

> <dsstox_substance_id>
DTXSID2040284

> <dsstox_compound_id>
DTXCID0020284

> <qc_level>
DSSTox_Low

> <Canonical_QSARr>
OC(=O)CC1C(Cl)=C(Cl)C=CC=1Cl

> <InChI_Code_QSARr>
InChI=1S/C8H5Cl3O2/c9-5-1-2-6(10)8(11)4(5)3-7(12)13/h1-2H,3H2,(H,12,13)

> <InChI Key_QSARr>
QZXCCPZJCKEPSA-UHFFFAOYSA-N

> <Salt_Solvent>


> <Salt_Solvent_ID>
0

> <MPID>
99363

> <KocRef>
Schuurmann-Main

> <LogKOC>
1.8

> <Tr_1_Tst_0>
0

$$$$
100087
  Mrv171c012251911022D          

 11 12  0  0  0  0            999 V2000
    0.1178   -2.9443    0.0000 O   0  0  0  0  0  0  0  0  0  0  0  0
    0.3728   -2.1597    0.0000 C   0  0  0  0  0  0  0  0  0  0  0  0
   -0.1122   -1.4922    0.0000 O   0  0  0  0  0  0  0  0  0  0  0  0
    0.3728   -0.8248    0.0000 C   0  0  0  0  0  0  0  0  0  0  0  0
    0.1178   -0.0402    0.0000 O   0  0  0  0  0  0  0  0  0  0  0  0
    1.1574   -1.0797    0.0000 C   0  0  0  0  0  0  0  0  0  0  0  0
    1.8718   -0.6672    0.0000 C   0  0  0  0  0  0  0  0  0  0  0  0
    2.5863   -1.0797    0.0000 C   0  0  0  0  0  0  0  0  0  0  0  0
    2.5863   -1.9047    0.0000 C   0  0  0  0  0  0  0  0  0  0  0  0
    1.8718   -2.3172    0.0000 C   0  0  0  0  0  0  0  0  0  0  0  0
    1.1574   -1.9047    0.0000 C   0  0  0  0  0  0  0  0  0  0  0  0
  1  2  2  0  0  0  0
  3  2  1  0  0  0  0
  4  3  1  0  0  0  0
  4  5  2  0  0  0  0
  6  4  1  0  0  0  0
  6  7  1  0  0  0  0
  7  8  2  0  0  0  0
  8  9  1  0  0  0  0
  9 10  2  0  0  0  0
 10 11  1  0  0  0  0
  2 11  1  0  0  0  0
 11  6  2  0  0  0  0
M  END
> <ChemID>
100087

> <CAS>
85-44-9

> <Original_SMILES>
O=C1OC(=O)c2ccccc12

> <preferred_name>
Phthalic anhydride

> <dsstox_substance_id>
DTXSID2021159

> <dsstox_compound_id>
DTXCID401159

> <qc_level>
DSSTox_Low

> <Canonical_QSARr>
O=C1OC(=O)C2C=CC=CC1=2

> <InChI_Code_QSARr>
InChI=1S/C8H4O3/c9-7-5-3-1-2-4-6(5)8(10)11-7/h1-4H

> <InChI Key_QSARr>
LGRFSURHDFAFJT-UHFFFAOYSA-N

> <Salt_Solvent>


> <Salt_Solvent_ID>
0

> <MPID>
99364

> <KocRef>
Schuurmann-Main

> <LogKOC>
1.56

> <Tr_1_Tst_0>
1

$$$$
100088
  Mrv171c012251911022D          

 23 24  0  0  0  0            999 V2000
    3.1013   -1.5538    0.0000 C   0  0  0  0  0  0  0  0  0  0  0  0
    3.1013   -0.7288    0.0000 C   0  0  0  0  0  0  0  0  0  0  0  0
    2.3868   -0.3163    0.0000 C   0  0  0  0  0  0  0  0  0  0  0  0
    1.6723   -0.7288    0.0000 C   0  0  0  0  0  0  0  0  0  0  0  0
    1.6723   -1.5538    0.0000 C   0  0  0  0  0  0  0  0  0  0  0  0
    2.3868   -1.9663    0.0000 C   0  0  0  0  0  0  0  0  0  0  0  0
    2.3868   -2.7913    0.0000 C   0  0  0  0  0  0  0  0  0  0  0  0
    3.1013   -3.2038    0.0000 O   0  0  0  0  0  0  0  0  0  0  0  0
    1.6723   -3.2038    0.0000 O   0  0  0  0  0  0  0  0  0  0  0  0
    1.6723   -4.0288    0.0000 C   0  0  0  0  0  0  0  0  0  0  0  0
    0.9579   -4.4413    0.0000 C   0  0  0  0  0  0  0  0  0  0  0  0
    0.2434   -4.0288    0.0000 C   0  0  0  0  0  0  0  0  0  0  0  0
   -0.4711   -4.4413    0.0000 C   0  0  0  0  0  0  0  0  0  0  0  0
   -0.4711   -5.2663    0.0000 C   0  0  0  0  0  0  0  0  0  0  0  0
    0.2434   -5.6788    0.0000 C   0  0  0  0  0  0  0  0  0  0  0  0
    0.9579   -5.2663    0.0000 C   0  0  0  0  0  0  0  0  0  0  0  0
    3.8158   -1.9663    0.0000 C   0  0  0  0  0  0  0  0  0  0  0  0
    3.8158   -2.7913    0.0000 O   0  0  0  0  0  0  0  0  0  0  0  0
    4.5302   -1.5538    0.0000 O   0  0  0  0  0  0  0  0  0  0  0  0
    5.2447   -1.9663    0.0000 C   0  0  0  0  0  0  0  0  0  0  0  0
    5.9592   -1.5538    0.0000 C   0  0  0  0  0  0  0  0  0  0  0  0
    6.6736   -1.9663    0.0000 C   0  0  0  0  0  0  0  0  0  0  0  0
    7.3881   -1.5538    0.0000 C   0  0  0  0  0  0  0  0  0  0  0  0
  2  1  1  0  0  0  0
  3  2  2  0  0  0  0
  4  3  1  0  0  0  0
  5  4  2  0  0  0  0
  6  5  1  0  0  0  0
  1  6  2  0  0  0  0
  6  7  1  0  0  0  0
  7  8  2  0  0  0  0
  7  9  1  0  0  0  0
  9 10  1  0  0  0  0
 10 11  1  0  0  0  0
 12 11  2  0  0  0  0
 13 12  1  0  0  0  0
 14 13  2  0  0  0  0
 15 14  1  0  0  0  0
 16 15  2  0  0  0  0
 11 16  1  0  0  0  0
  1 17  1  0  0  0  0
 17 18  2  0  0  0  0
 17 19  1  0  0  0  0
 19 20  1  0  0  0  0
 20 21  1  0  0  0  0
 21 22  1  0  0  0  0
 22 23  1  0  0  0  0
M  END
> <ChemID>
100088

> <CAS>
85-68-7

> <Original_SMILES>
CCCCOC(=O)c1ccccc1C(=O)OCc1ccccc1

> <preferred_name>
Butyl benzyl phthalate

> <dsstox_substance_id>
DTXSID3020205

> <dsstox_compound_id>
DTXCID70205

> <qc_level>
DSSTox_Low

> <Canonical_QSARr>
CCCCOC(=O)C1C=CC=CC=1C(=O)OCC1C=CC=CC=1

> <InChI_Code_QSARr>
InChI=1S/C19H20O4/c1-2-3-13-22-18(20)16-11-7-8-12-17(16)19(21)23-14-15-9-5-4-6-10-15/h4-12H,2-3,13-14H2,1H3

> <InChI Key_QSARr>
IRIAEXORFWYRCZ-UHFFFAOYSA-N

> <Salt_Solvent>


> <Salt_Solvent_ID>
0

> <MPID>
99365

> <KocRef>
Schuurm-SRC avg

> <LogKOC>
3.72

> <Tr_1_Tst_0>
1

$$$$
100089
  Mrv171c012251911022D          

 24 24  0  0  0  0            999 V2000
    2.6461   -3.2515    0.0000 C   0  0  0  0  0  0  0  0  0  0  0  0
    2.6461   -4.0765    0.0000 C   0  0  0  0  0  0  0  0  0  0  0  0
    3.3606   -4.4890    0.0000 C   0  0  0  0  0  0  0  0  0  0  0  0
    4.0751   -4.0765    0.0000 C   0  0  0  0  0  0  0  0  0  0  0  0
    4.0751   -3.2515    0.0000 C   0  0  0  0  0  0  0  0  0  0  0  0
    4.7895   -2.8390    0.0000 C   0  0  0  0  0  0  0  0  0  0  0  0
    4.7895   -2.0140    0.0000 O   0  0  0  0  0  0  0  0  0  0  0  0
    5.5040   -3.2515    0.0000 O   0  0  0  0  0  0  0  0  0  0  0  0
    6.2185   -2.8390    0.0000 C   0  0  0  0  0  0  0  0  0  0  0  0
    6.9329   -3.2515    0.0000 C   0  0  0  0  0  0  0  0  0  0  0  0
    6.9329   -4.0765    0.0000 O   0  0  0  0  0  0  0  0  0  0  0  0
    7.6474   -2.8390    0.0000 O   0  0  0  0  0  0  0  0  0  0  0  0
    8.3619   -3.2515    0.0000 C   0  0  0  0  0  0  0  0  0  0  0  0
    9.0764   -2.8390    0.0000 C   0  0  0  0  0  0  0  0  0  0  0  0
    9.7908   -3.2515    0.0000 C   0  0  0  0  0  0  0  0  0  0  0  0
   10.5053   -2.8390    0.0000 C   0  0  0  0  0  0  0  0  0  0  0  0
    3.3606   -2.8390    0.0000 C   0  0  0  0  0  0  0  0  0  0  0  0
    3.3606   -2.0140    0.0000 C   0  0  0  0  0  0  0  0  0  0  0  0
    4.0751   -1.6015    0.0000 O   0  0  0  0  0  0  0  0  0  0  0  0
    2.6461   -1.6015    0.0000 O   0  0  0  0  0  0  0  0  0  0  0  0
    2.6461   -0.7765    0.0000 C   0  0  0  0  0  0  0  0  0  0  0  0
    1.9317   -0.3640    0.0000 C   0  0  0  0  0  0  0  0  0  0  0  0
    1.9317    0.4610    0.0000 C   0  0  0  0  0  0  0  0  0  0  0  0
    1.2172    0.8735    0.0000 C   0  0  0  0  0  0  0  0  0  0  0  0
  2  1  1  0  0  0  0
  3  2  2  0  0  0  0
  4  3  1  0  0  0  0
  5  4  2  0  0  0  0
  5  6  1  0  0  0  0
  6  7  2  0  0  0  0
  6  8  1  0  0  0  0
  8  9  1  0  0  0  0
  9 10  1  0  0  0  0
 10 11  2  0  0  0  0
 10 12  1  0  0  0  0
 12 13  1  0  0  0  0
 13 14  1  0  0  0  0
 14 15  1  0  0  0  0
 15 16  1  0  0  0  0
 17  5  1  0  0  0  0
  1 17  2  0  0  0  0
 17 18  1  0  0  0  0
 18 19  2  0  0  0  0
 18 20  1  0  0  0  0
 20 21  1  0  0  0  0
 21 22  1  0  0  0  0
 22 23  1  0  0  0  0
 23 24  1  0  0  0  0
M  END
> <ChemID>
100089

> <CAS>
85-70-1

> <Original_SMILES>
CCCCOC(=O)COC(=O)c1ccccc1C(=O)OCCCC

> <preferred_name>
Butylphthalyl butylglycolate

> <dsstox_substance_id>
DTXSID7023938

> <dsstox_compound_id>
DTXCID203938

> <qc_level>
DSSTox_Low

> <Canonical_QSARr>
CCCCOC(=O)COC(=O)C1=CC=CC=C1C(=O)OCCCC

> <InChI_Code_QSARr>
InChI=1S/C18H24O6/c1-3-5-11-22-16(19)13-24-18(21)15-10-8-7-9-14(15)17(20)23-12-6-4-2/h7-10H,3-6,11-13H2,1-2H3

> <InChI Key_QSARr>
GOJCZVPJCKEBQV-UHFFFAOYSA-N

> <Salt_Solvent>


> <Salt_Solvent_ID>
0

> <MPID>
99366

> <KocRef>
Schuurmann-Main

> <LogKOC>
3.7

> <Tr_1_Tst_0>
1

$$$$
100090
  Mrv171c012251911022D          

 15 16  0  0  0  0            999 V2000
    0.6753   -0.2112    0.0000 O   0  0  0  0  0  0  0  0  0  0  0  0
    0.6753   -1.0362    0.0000 N   0  0  0  0  0  0  0  0  0  0  0  0
    1.3898   -1.4487    0.0000 N   0  0  0  0  0  0  0  0  0  0  0  0
    1.3898   -2.2737    0.0000 C   0  0  0  0  0  0  0  0  0  0  0  0
    0.6753   -2.6862    0.0000 C   0  0  0  0  0  0  0  0  0  0  0  0
    0.6753   -3.5112    0.0000 C   0  0  0  0  0  0  0  0  0  0  0  0
    1.3898   -3.9237    0.0000 C   0  0  0  0  0  0  0  0  0  0  0  0
    2.1043   -3.5112    0.0000 C   0  0  0  0  0  0  0  0  0  0  0  0
    2.1043   -2.6862    0.0000 C   0  0  0  0  0  0  0  0  0  0  0  0
    2.1043   -1.0362    0.0000 C   0  0  0  0  0  0  0  0  0  0  0  0
    2.8188   -1.4487    0.0000 C   0  0  0  0  0  0  0  0  0  0  0  0
    3.5332   -1.0362    0.0000 C   0  0  0  0  0  0  0  0  0  0  0  0
    3.5332   -0.2112    0.0000 C   0  0  0  0  0  0  0  0  0  0  0  0
    2.8188    0.2013    0.0000 C   0  0  0  0  0  0  0  0  0  0  0  0
    2.1043   -0.2112    0.0000 C   0  0  0  0  0  0  0  0  0  0  0  0
  1  2  2  0  0  0  0
  2  3  1  0  0  0  0
  3  4  1  0  0  0  0
  5  4  1  0  0  0  0
  6  5  2  0  0  0  0
  7  6  1  0  0  0  0
  8  7  2  0  0  0  0
  9  8  1  0  0  0  0
  4  9  2  0  0  0  0
  3 10  1  0  0  0  0
 11 10  1  0  0  0  0
 12 11  2  0  0  0  0
 13 12  1  0  0  0  0
 14 13  2  0  0  0  0
 15 14  1  0  0  0  0
 10 15  2  0  0  0  0
M  END
> <ChemID>
100090

> <CAS>
86-30-6

> <Original_SMILES>
O=NN(c1ccccc1)c1ccccc1

> <preferred_name>
N-Nitrosodiphenylamine

> <dsstox_substance_id>
DTXSID6021030

> <dsstox_compound_id>
DTXCID001030

> <qc_level>
DSSTox_Low

> <Canonical_QSARr>
O=NN(C1C=CC=CC=1)C1C=CC=CC=1

> <InChI_Code_QSARr>
InChI=1S/C12H10N2O/c15-13-14(11-7-3-1-4-8-11)12-9-5-2-6-10-12/h1-10H

> <InChI Key_QSARr>
UBUCNCOMADRQHX-UHFFFAOYSA-N

> <Salt_Solvent>


> <Salt_Solvent_ID>
0

> <MPID>
99367

> <KocRef>
Schuurmann-Main

> <LogKOC>
3.08

> <Tr_1_Tst_0>
0

$$$$
100091
  Mrv171c012251911022D          

 19 20  0  0  0  0            999 V2000
    3.8014   -2.8884    0.0000 O   0  0  0  0  0  0  0  0  0  0  0  0
    3.8014   -2.0634    0.0000 C   0  0  0  0  0  0  0  0  0  0  0  0
    3.0870   -1.6509    0.0000 N   0  0  0  0  0  0  0  0  0  0  0  0
    2.3725   -2.0634    0.0000 C   0  0  0  0  0  0  0  0  0  0  0  0
    1.6580   -1.6509    0.0000 S   0  0  0  0  0  0  0  0  0  0  0  0
    0.9436   -2.0634    0.0000 P   0  0  0  0  0  0  0  0  0  0  0  0
    0.2291   -2.4759    0.0000 O   0  0  0  0  0  0  0  0  0  0  0  0
   -0.4854   -2.0634    0.0000 C   0  0  0  0  0  0  0  0  0  0  0  0
    1.3561   -2.7779    0.0000 O   0  0  0  0  0  0  0  0  0  0  0  0
    0.9436   -3.4924    0.0000 C   0  0  0  0  0  0  0  0  0  0  0  0
    0.5311   -1.3489    0.0000 S   0  0  0  0  0  0  0  0  0  0  0  0
    3.0870   -0.8259    0.0000 N   0  0  0  0  0  0  0  0  0  0  0  0
    3.8014   -0.4134    0.0000 N   0  0  0  0  0  0  0  0  0  0  0  0
    4.5159   -0.8259    0.0000 C   0  0  0  0  0  0  0  0  0  0  0  0
    5.2304   -0.4134    0.0000 C   0  0  0  0  0  0  0  0  0  0  0  0
    5.9449   -0.8259    0.0000 C   0  0  0  0  0  0  0  0  0  0  0  0
    5.9449   -1.6509    0.0000 C   0  0  0  0  0  0  0  0  0  0  0  0
    5.2304   -2.0634    0.0000 C   0  0  0  0  0  0  0  0  0  0  0  0
    4.5159   -1.6509    0.0000 C   0  0  0  0  0  0  0  0  0  0  0  0
  1  2  2  0  0  0  0
  3  2  1  0  0  0  0
  3  4  1  0  0  0  0
  4  5  1  0  0  0  0
  5  6  1  0  0  0  0
  6  7  1  0  0  0  0
  7  8  1  0  0  0  0
  6  9  1  0  0  0  0
  9 10  1  0  0  0  0
  6 11  2  0  0  0  0
 12  3  1  0  0  0  0
 13 12  2  0  0  0  0
 14 13  1  0  0  0  0
 14 15  1  0  0  0  0
 15 16  2  0  0  0  0
 16 17  1  0  0  0  0
 17 18  2  0  0  0  0
 18 19  1  0  0  0  0
  2 19  1  0  0  0  0
 19 14  2  0  0  0  0
M  END
> <ChemID>
100091

> <CAS>
86-50-0

> <Original_SMILES>
COP(=S)(OC)SCN1N=Nc2ccccc2C1=O

> <preferred_name>
Azinphos-methyl

> <dsstox_substance_id>
DTXSID3020122

> <dsstox_compound_id>
DTXCID10122

> <qc_level>
DSSTox_Low

> <Canonical_QSARr>
COP(=S)(OC)SCN1N=NC2C=CC=CC=2C1=O

> <InChI_Code_QSARr>
InChI=1S/C10H12N3O3PS2/c1-15-17(18,16-2)19-7-13-10(14)8-5-3-4-6-9(8)11-12-13/h3-6H,7H2,1-2H3

> <InChI Key_QSARr>
CJJOSEISRRTUQB-UHFFFAOYSA-N

> <Salt_Solvent>


> <Salt_Solvent_ID>
0

> <MPID>
99368

> <KocRef>
Schuurmann-Main

> <LogKOC>
2.28

> <Tr_1_Tst_0>
1

$$$$
100092
  Mrv171c012251911022D          

 13 15  0  0  0  0            999 V2000
    2.5498   -0.5036    0.0000 C   0  0  0  0  0  0  0  0  0  0  0  0
    3.1018    0.1095    0.0000 C   0  0  0  0  0  0  0  0  0  0  0  0
    3.9088   -0.0620    0.0000 C   0  0  0  0  0  0  0  0  0  0  0  0
    4.1637   -0.8466    0.0000 C   0  0  0  0  0  0  0  0  0  0  0  0
    3.6117   -1.4597    0.0000 C   0  0  0  0  0  0  0  0  0  0  0  0
    2.8047   -1.2882    0.0000 C   0  0  0  0  0  0  0  0  0  0  0  0
    2.1373   -1.7731    0.0000 C   0  0  0  0  0  0  0  0  0  0  0  0
    1.4699   -1.2882    0.0000 C   0  0  0  0  0  0  0  0  0  0  0  0
    0.6629   -1.4597    0.0000 C   0  0  0  0  0  0  0  0  0  0  0  0
    0.1109   -0.8466    0.0000 C   0  0  0  0  0  0  0  0  0  0  0  0
    0.3658   -0.0620    0.0000 C   0  0  0  0  0  0  0  0  0  0  0  0
    1.1728    0.1095    0.0000 C   0  0  0  0  0  0  0  0  0  0  0  0
    1.7248   -0.5036    0.0000 C   0  0  0  0  0  0  0  0  0  0  0  0
  2  1  1  0  0  0  0
  3  2  2  0  0  0  0
  4  3  1  0  0  0  0
  5  4  2  0  0  0  0
  6  5  1  0  0  0  0
  6  1  2  0  0  0  0
  7  6  1  0  0  0  0
  8  7  1  0  0  0  0
  8  9  1  0  0  0  0
  9 10  2  0  0  0  0
 10 11  1  0  0  0  0
 11 12  2  0  0  0  0
 12 13  1  0  0  0  0
  1 13  1  0  0  0  0
 13  8  2  0  0  0  0
M  END
> <ChemID>
100092

> <CAS>
86-73-7

> <Original_SMILES>
C1c2ccccc2-c2ccccc21

> <preferred_name>
Fluorene

> <dsstox_substance_id>
DTXSID8024105

> <dsstox_compound_id>
DTXCID604105

> <qc_level>
DSSTox_Low

> <Canonical_QSARr>
C1C2C=CC=CC=2C2C=CC=CC=21

> <InChI_Code_QSARr>
InChI=1S/C13H10/c1-3-7-12-10(5-1)9-11-6-2-4-8-13(11)12/h1-8H,9H2

> <InChI Key_QSARr>
NIHNNTQXNPWCJQ-UHFFFAOYSA-N

> <Salt_Solvent>


> <Salt_Solvent_ID>
0

> <MPID>
99369

> <KocRef>
Schuurmann-Main

> <LogKOC>
3.7

> <Tr_1_Tst_0>
1

$$$$
100093
  Mrv171c012251911022D          

 13 15  0  0  0  0            999 V2000
    2.3777   -0.7362    0.0000 C   0  0  0  0  0  0  0  0  0  0  0  0
    2.9297   -0.1231    0.0000 C   0  0  0  0  0  0  0  0  0  0  0  0
    3.7367   -0.2946    0.0000 C   0  0  0  0  0  0  0  0  0  0  0  0
    3.9916   -1.0793    0.0000 C   0  0  0  0  0  0  0  0  0  0  0  0
    3.4396   -1.6924    0.0000 C   0  0  0  0  0  0  0  0  0  0  0  0
    2.6326   -1.5208    0.0000 C   0  0  0  0  0  0  0  0  0  0  0  0
    1.9652   -2.0058    0.0000 N   0  0  0  0  0  0  0  0  0  0  0  0
    1.2977   -1.5208    0.0000 C   0  0  0  0  0  0  0  0  0  0  0  0
    0.4908   -1.6924    0.0000 C   0  0  0  0  0  0  0  0  0  0  0  0
   -0.0613   -1.0793    0.0000 C   0  0  0  0  0  0  0  0  0  0  0  0
    0.1937   -0.2946    0.0000 C   0  0  0  0  0  0  0  0  0  0  0  0
    1.0007   -0.1231    0.0000 C   0  0  0  0  0  0  0  0  0  0  0  0
    1.5527   -0.7362    0.0000 C   0  0  0  0  0  0  0  0  0  0  0  0
  2  1  2  0  0  0  0
  3  2  1  0  0  0  0
  4  3  2  0  0  0  0
  5  4  1  0  0  0  0
  6  5  2  0  0  0  0
  6  1  1  0  0  0  0
  7  6  1  0  0  0  0
  8  7  1  0  0  0  0
  8  9  1  0  0  0  0
  9 10  2  0  0  0  0
 10 11  1  0  0  0  0
 11 12  2  0  0  0  0
 12 13  1  0  0  0  0
  1 13  1  0  0  0  0
 13  8  2  0  0  0  0
M  END
> <ChemID>
100093

> <CAS>
86-74-8

> <Original_SMILES>
c1cccc2[nH]c3ccccc3c21

> <preferred_name>
Carbazole

> <dsstox_substance_id>
DTXSID4020248

> <dsstox_compound_id>
DTXCID40248

> <qc_level>
DSSTox_High

> <Canonical_QSARr>
C1=CC=CC2NC3=CC=CC=C3C=21

> <InChI_Code_QSARr>
InChI=1S/C12H9N/c1-3-7-11-9(5-1)10-6-2-4-8-12(10)13-11/h1-8,13H

> <InChI Key_QSARr>
UJOBWOGCFQCDNV-UHFFFAOYSA-N

> <Salt_Solvent>


> <Salt_Solvent_ID>
0

> <MPID>
99370

> <KocRef>
Schuurmann-Main

> <LogKOC>
3.4

> <Tr_1_Tst_0>
1

$$$$
100094
  Mrv171c012251911022D          

 14 15  0  0  0  0            999 V2000
    0.7638   -3.8012    0.0000 N   0  0  0  0  0  0  0  0  0  0  0  0
    0.7638   -2.9762    0.0000 C   0  0  0  0  0  0  0  0  0  0  0  0
    1.4783   -2.5637    0.0000 C   0  0  0  0  0  0  0  0  0  0  0  0
    1.4783   -1.7387    0.0000 C   0  0  0  0  0  0  0  0  0  0  0  0
    0.7638   -1.3262    0.0000 C   0  0  0  0  0  0  0  0  0  0  0  0
    0.7638   -0.5012    0.0000 C   0  0  0  0  0  0  0  0  0  0  0  0
    1.4783   -0.0887    0.0000 C   0  0  0  0  0  0  0  0  0  0  0  0
    2.1927   -0.5012    0.0000 C   0  0  0  0  0  0  0  0  0  0  0  0
    2.9072   -0.0887    0.0000 C   0  0  0  0  0  0  0  0  0  0  0  0
    3.6217   -0.5012    0.0000 C   0  0  0  0  0  0  0  0  0  0  0  0
    3.6217   -1.3262    0.0000 C   0  0  0  0  0  0  0  0  0  0  0  0
    2.9072   -1.7387    0.0000 C   0  0  0  0  0  0  0  0  0  0  0  0
    2.1927   -1.3262    0.0000 C   0  0  0  0  0  0  0  0  0  0  0  0
    0.0493   -2.5637    0.0000 O   0  0  0  0  0  0  0  0  0  0  0  0
  1  2  1  0  0  0  0
  2  3  1  0  0  0  0
  3  4  1  0  0  0  0
  5  4  1  0  0  0  0
  6  5  2  0  0  0  0
  7  6  1  0  0  0  0
  8  7  2  0  0  0  0
  8  9  1  0  0  0  0
  9 10  2  0  0  0  0
 10 11  1  0  0  0  0
 11 12  2  0  0  0  0
 12 13  1  0  0  0  0
  4 13  2  0  0  0  0
 13  8  1  0  0  0  0
  2 14  2  0  0  0  0
M  END
> <ChemID>
100094

> <CAS>
86-86-2

> <Original_SMILES>
NC(=O)Cc1cccc2ccccc21

> <preferred_name>
1-Naphthaleneacetamide

> <dsstox_substance_id>
DTXSID3020914

> <dsstox_compound_id>
DTXCID30914

> <qc_level>
DSSTox_Low

> <Canonical_QSARr>
NC(=O)CC1C=CC=C2C=CC=CC2=1

> <InChI_Code_QSARr>
InChI=1S/C12H11NO/c13-12(14)8-10-6-3-5-9-4-1-2-7-11(9)10/h1-7H,8H2,(H2,13,14)

> <InChI Key_QSARr>
XFNJVKMNNVCYEK-UHFFFAOYSA-N

> <Salt_Solvent>


> <Salt_Solvent_ID>
0

> <MPID>
99371

> <KocRef>
Schuurmann-Main

> <LogKOC>
2.0

> <Tr_1_Tst_0>
0

$$$$
100095
  Mrv171c012251911022D          

 14 15  0  0  0  0            999 V2000
    0.7638   -3.8012    0.0000 O   0  0  0  0  0  0  0  0  0  0  0  0
    0.7638   -2.9762    0.0000 C   0  0  0  0  0  0  0  0  0  0  0  0
    1.4783   -2.5637    0.0000 C   0  0  0  0  0  0  0  0  0  0  0  0
    1.4783   -1.7387    0.0000 C   0  0  0  0  0  0  0  0  0  0  0  0
    0.7638   -1.3262    0.0000 C   0  0  0  0  0  0  0  0  0  0  0  0
    0.7638   -0.5012    0.0000 C   0  0  0  0  0  0  0  0  0  0  0  0
    1.4783   -0.0887    0.0000 C   0  0  0  0  0  0  0  0  0  0  0  0
    2.1927   -0.5012    0.0000 C   0  0  0  0  0  0  0  0  0  0  0  0
    2.9072   -0.0887    0.0000 C   0  0  0  0  0  0  0  0  0  0  0  0
    3.6217   -0.5012    0.0000 C   0  0  0  0  0  0  0  0  0  0  0  0
    3.6217   -1.3262    0.0000 C   0  0  0  0  0  0  0  0  0  0  0  0
    2.9072   -1.7387    0.0000 C   0  0  0  0  0  0  0  0  0  0  0  0
    2.1927   -1.3262    0.0000 C   0  0  0  0  0  0  0  0  0  0  0  0
    0.0493   -2.5637    0.0000 O   0  0  0  0  0  0  0  0  0  0  0  0
  1  2  1  0  0  0  0
  2  3  1  0  0  0  0
  3  4  1  0  0  0  0
  5  4  1  0  0  0  0
  6  5  2  0  0  0  0
  7  6  1  0  0  0  0
  8  7  2  0  0  0  0
  8  9  1  0  0  0  0
  9 10  2  0  0  0  0
 10 11  1  0  0  0  0
 11 12  2  0  0  0  0
 12 13  1  0  0  0  0
  4 13  2  0  0  0  0
 13  8  1  0  0  0  0
  2 14  2  0  0  0  0
M  END
> <ChemID>
100095

> <CAS>
86-87-3

> <Original_SMILES>
OC(=O)Cc1cccc2ccccc21

> <preferred_name>
1-Naphthaleneacetic acid

> <dsstox_substance_id>
DTXSID8020915

> <dsstox_compound_id>
DTXCID60915

> <qc_level>
DSSTox_Low

> <Canonical_QSARr>
OC(=O)CC1C=CC=C2C=CC=CC2=1

> <InChI_Code_QSARr>
InChI=1S/C12H10O2/c13-12(14)8-10-6-3-5-9-4-1-2-7-11(9)10/h1-7H,8H2,(H,13,14)

> <InChI Key_QSARr>
PRPINYUDVPFIRX-UHFFFAOYSA-N

> <Salt_Solvent>


> <Salt_Solvent_ID>
0

> <MPID>
99372

> <KocRef>
Schuurmann-Main

> <LogKOC>
2.2

> <Tr_1_Tst_0>
1

$$$$
100096
  Mrv171c012251911022D          

  9  9  0  0  0  0            999 V2000
    2.3959   -0.7881    0.0000 Cl  0  0  0  0  0  0  0  0  0  0  0  0
    1.6815   -1.2006    0.0000 C   0  0  0  0  0  0  0  0  0  0  0  0
    0.9670   -0.7881    0.0000 C   0  0  0  0  0  0  0  0  0  0  0  0
    0.9670    0.0369    0.0000 Cl  0  0  0  0  0  0  0  0  0  0  0  0
    0.2525   -1.2006    0.0000 C   0  0  0  0  0  0  0  0  0  0  0  0
    0.2525   -2.0256    0.0000 C   0  0  0  0  0  0  0  0  0  0  0  0
    0.9670   -2.4381    0.0000 C   0  0  0  0  0  0  0  0  0  0  0  0
    1.6815   -2.0256    0.0000 C   0  0  0  0  0  0  0  0  0  0  0  0
    2.3959   -2.4381    0.0000 Cl  0  0  0  0  0  0  0  0  0  0  0  0
  1  2  1  0  0  0  0
  3  2  1  0  0  0  0
  3  4  1  0  0  0  0
  5  3  2  0  0  0  0
  6  5  1  0  0  0  0
  7  6  2  0  0  0  0
  8  7  1  0  0  0  0
  2  8  2  0  0  0  0
  8  9  1  0  0  0  0
M  END
> <ChemID>
100096

> <CAS>
87-61-6

> <Original_SMILES>
Clc1c(Cl)cccc1Cl

> <preferred_name>
1,2,3-Trichlorobenzene

> <dsstox_substance_id>
DTXSID8026193

> <dsstox_compound_id>
DTXCID706193

> <qc_level>
DSSTox_High

> <Canonical_QSARr>
ClC1C=CC=C(Cl)C=1Cl

> <InChI_Code_QSARr>
InChI=1S/C6H3Cl3/c7-4-2-1-3-5(8)6(4)9/h1-3H

> <InChI Key_QSARr>
RELMFMZEBKVZJC-UHFFFAOYSA-N

> <Salt_Solvent>


> <Salt_Solvent_ID>
0

> <MPID>
99373

> <KocRef>
SRC 1992 Non-Polar

> <LogKOC>
3.33

> <Tr_1_Tst_0>
1

$$$$
100097
  Mrv171c012251911022D          

 12 12  0  0  0  0            999 V2000
    3.0761   -0.6015    0.0000 O   0  0  0  0  0  0  0  0  0  0  0  0
    2.3616   -1.0140    0.0000 C   0  0  0  0  0  0  0  0  0  0  0  0
    1.6472   -0.6015    0.0000 C   0  0  0  0  0  0  0  0  0  0  0  0
    1.6472    0.2235    0.0000 Cl  0  0  0  0  0  0  0  0  0  0  0  0
    0.9327   -1.0140    0.0000 C   0  0  0  0  0  0  0  0  0  0  0  0
    0.2182   -0.6015    0.0000 Cl  0  0  0  0  0  0  0  0  0  0  0  0
    0.9327   -1.8390    0.0000 C   0  0  0  0  0  0  0  0  0  0  0  0
    0.2182   -2.2515    0.0000 Cl  0  0  0  0  0  0  0  0  0  0  0  0
    1.6472   -2.2515    0.0000 C   0  0  0  0  0  0  0  0  0  0  0  0
    1.6472   -3.0765    0.0000 Cl  0  0  0  0  0  0  0  0  0  0  0  0
    2.3616   -1.8390    0.0000 C   0  0  0  0  0  0  0  0  0  0  0  0
    3.0761   -2.2515    0.0000 Cl  0  0  0  0  0  0  0  0  0  0  0  0
  1  2  1  0  0  0  0
  3  2  1  0  0  0  0
  3  4  1  0  0  0  0
  5  3  2  0  0  0  0
  5  6  1  0  0  0  0
  7  5  1  0  0  0  0
  7  8  1  0  0  0  0
  9  7  2  0  0  0  0
  9 10  1  0  0  0  0
 11  9  1  0  0  0  0
  2 11  2  0  0  0  0
 11 12  1  0  0  0  0
M  END
> <ChemID>
100097

> <CAS>
87-86-5

> <Original_SMILES>
Oc1c(Cl)c(Cl)c(Cl)c(Cl)c1Cl

> <preferred_name>
Pentachlorophenol

> <dsstox_substance_id>
DTXSID7021106

> <dsstox_compound_id>
DTXCID701106

> <qc_level>
DSSTox_Low

> <Canonical_QSARr>
OC1C(Cl)=C(Cl)C(Cl)=C(Cl)C=1Cl

> <InChI_Code_QSARr>
InChI=1S/C6HCl5O/c7-1-2(8)4(10)6(12)5(11)3(1)9/h12H

> <InChI Key_QSARr>
IZUPBVBPLAPZRR-UHFFFAOYSA-N

> <Salt_Solvent>


> <Salt_Solvent_ID>
0

> <MPID>
99374

> <KocRef>
USDA Pest Prop DB

> <LogKOC>
4.3

> <Tr_1_Tst_0>
1

$$$$
100098
  Mrv171c012251911022D          

 10 10  0  0  0  0            999 V2000
    3.0980   -0.6840    0.0000 O   0  0  0  0  0  0  0  0  0  0  0  0
    2.3835   -1.0965    0.0000 C   0  0  0  0  0  0  0  0  0  0  0  0
    1.6691   -0.6840    0.0000 C   0  0  0  0  0  0  0  0  0  0  0  0
    1.6691    0.1410    0.0000 Cl  0  0  0  0  0  0  0  0  0  0  0  0
    0.9546   -1.0965    0.0000 C   0  0  0  0  0  0  0  0  0  0  0  0
    0.9546   -1.9215    0.0000 C   0  0  0  0  0  0  0  0  0  0  0  0
    0.2401   -2.3340    0.0000 Cl  0  0  0  0  0  0  0  0  0  0  0  0
    1.6691   -2.3340    0.0000 C   0  0  0  0  0  0  0  0  0  0  0  0
    2.3835   -1.9215    0.0000 C   0  0  0  0  0  0  0  0  0  0  0  0
    3.0980   -2.3340    0.0000 Cl  0  0  0  0  0  0  0  0  0  0  0  0
  1  2  1  0  0  0  0
  3  2  1  0  0  0  0
  3  4  1  0  0  0  0
  5  3  2  0  0  0  0
  6  5  1  0  0  0  0
  6  7  1  0  0  0  0
  8  6  2  0  0  0  0
  9  8  1  0  0  0  0
  2  9  2  0  0  0  0
  9 10  1  0  0  0  0
M  END
> <ChemID>
100098

> <CAS>
88-06-2

> <Original_SMILES>
Oc1c(Cl)cc(Cl)cc1Cl

> <preferred_name>
2,4,6-Trichlorophenol

> <dsstox_substance_id>
DTXSID5021386

> <dsstox_compound_id>
DTXCID501386

> <qc_level>
DSSTox_High

> <Canonical_QSARr>
OC1C(Cl)=CC(Cl)=CC=1Cl

> <InChI_Code_QSARr>
InChI=1S/C6H3Cl3O/c7-3-1-4(8)6(10)5(9)2-3/h1-2,10H

> <InChI Key_QSARr>
LINPIYWFGCPVIE-UHFFFAOYSA-N

> <Salt_Solvent>


> <Salt_Solvent_ID>
0

> <MPID>
99375

> <KocRef>
Schuurmann-Main

> <LogKOC>
3.03

> <Tr_1_Tst_0>
0

$$$$
100099
  Mrv171c012251911022D          

 14 14  0  0  0  0            999 V2000
    2.2560   -4.0976    0.0000 O   0  0  0  0  0  0  0  0  0  0  0  0
    2.2560   -3.2726    0.0000 C   0  0  0  0  0  0  0  0  0  0  0  0
    2.9705   -2.8601    0.0000 C   0  0  0  0  0  0  0  0  0  0  0  0
    2.9705   -2.0351    0.0000 C   0  0  0  0  0  0  0  0  0  0  0  0
    2.2560   -1.6226    0.0000 C   0  0  0  0  0  0  0  0  0  0  0  0
    2.2560   -0.7976    0.0000 N   0  3  0  0  0  0  0  0  0  0  0  0
    1.5416   -0.3851    0.0000 O   0  0  0  0  0  0  0  0  0  0  0  0
    2.9705   -0.3851    0.0000 O   0  5  0  0  0  0  0  0  0  0  0  0
    1.5416   -2.0351    0.0000 C   0  0  0  0  0  0  0  0  0  0  0  0
    0.8271   -1.6226    0.0000 C   0  0  0  0  0  0  0  0  0  0  0  0
    0.1126   -1.2101    0.0000 F   0  0  0  0  0  0  0  0  0  0  0  0
    0.4146   -2.3371    0.0000 F   0  0  0  0  0  0  0  0  0  0  0  0
    1.2396   -0.9081    0.0000 F   0  0  0  0  0  0  0  0  0  0  0  0
    1.5416   -2.8601    0.0000 C   0  0  0  0  0  0  0  0  0  0  0  0
  1  2  1  0  0  0  0
  3  2  1  0  0  0  0
  4  3  2  0  0  0  0
  5  4  1  0  0  0  0
  5  6  1  0  0  0  0
  6  7  2  0  0  0  0
  6  8  1  0  0  0  0
  9  5  2  0  0  0  0
  9 10  1  0  0  0  0
 10 11  1  0  0  0  0
 10 12  1  0  0  0  0
 10 13  1  0  0  0  0
 14  9  1  0  0  0  0
  2 14  2  0  0  0  0
M  CHG  2   6   1   8  -1
M  END
> <ChemID>
100099

> <CAS>
88-30-2

> <Original_SMILES>
[O-][N+](=O)c1ccc(O)cc1C(F)(F)F

> <preferred_name>
3-Trifluoromethyl-4-nitrophenol

> <dsstox_substance_id>
DTXSID7021788

> <dsstox_compound_id>
DTXCID101788

> <qc_level>
DSSTox_Low

> <Canonical_QSARr>
[O-][N+](=O)C1C=CC(O)=CC=1C(F)(F)F

> <InChI_Code_QSARr>
InChI=1S/C7H4F3NO3/c8-7(9,10)5-3-4(12)1-2-6(5)11(13)14/h1-3,12H

> <InChI Key_QSARr>
ZEFMBAFMCSYJOO-UHFFFAOYSA-N

> <Salt_Solvent>


> <Salt_Solvent_ID>
0

> <MPID>
99376

> <KocRef>
SRC 1992 Supplement

> <LogKOC>
2.11

> <Tr_1_Tst_0>
1

$$$$
100100
  Mrv171c012251911022D          

 17 17  0  0  0  0            999 V2000
    3.5763   -1.5265    0.0000 O   0  0  0  0  0  0  0  0  0  0  0  0
    2.8618   -1.9390    0.0000 C   0  0  0  0  0  0  0  0  0  0  0  0
    2.1474   -1.5265    0.0000 C   0  0  0  0  0  0  0  0  0  0  0  0
    2.1474   -0.7015    0.0000 C   0  0  0  0  0  0  0  0  0  0  0  0
    1.4329   -0.2890    0.0000 C   0  0  0  0  0  0  0  0  0  0  0  0
    2.8618   -0.2890    0.0000 C   0  0  0  0  0  0  0  0  0  0  0  0
    2.8618    0.5360    0.0000 C   0  0  0  0  0  0  0  0  0  0  0  0
    1.4329   -1.9390    0.0000 C   0  0  0  0  0  0  0  0  0  0  0  0
    1.4329   -2.7640    0.0000 C   0  0  0  0  0  0  0  0  0  0  0  0
    0.7184   -3.1765    0.0000 N   0  3  0  0  0  0  0  0  0  0  0  0
    0.7184   -4.0015    0.0000 O   0  5  0  0  0  0  0  0  0  0  0  0
    0.0040   -2.7640    0.0000 O   0  0  0  0  0  0  0  0  0  0  0  0
    2.1474   -3.1765    0.0000 C   0  0  0  0  0  0  0  0  0  0  0  0
    2.8618   -2.7640    0.0000 C   0  0  0  0  0  0  0  0  0  0  0  0
    3.5763   -3.1765    0.0000 N   0  3  0  0  0  0  0  0  0  0  0  0
    4.2908   -2.7640    0.0000 O   0  5  0  0  0  0  0  0  0  0  0  0
    3.5763   -4.0015    0.0000 O   0  0  0  0  0  0  0  0  0  0  0  0
  1  2  1  0  0  0  0
  3  2  1  0  0  0  0
  3  4  1  0  0  0  0
  4  5  1  0  0  0  0
  4  6  1  0  0  0  0
  6  7  1  0  0  0  0
  8  3  2  0  0  0  0
  9  8  1  0  0  0  0
  9 10  1  0  0  0  0
 10 11  1  0  0  0  0
 10 12  2  0  0  0  0
 13  9  2  0  0  0  0
 14 13  1  0  0  0  0
  2 14  2  0  0  0  0
 14 15  1  0  0  0  0
 15 16  1  0  0  0  0
 15 17  2  0  0  0  0
M  CHG  4  10   1  11  -1  15   1  16  -1
M  END
> <ChemID>
100100

> <CAS>
88-85-7

> <Original_SMILES>
CCC(C)c1cc(cc(c1O)[N+]([O-])=O)[N+]([O-])=O

> <preferred_name>
Dinoseb

> <dsstox_substance_id>
DTXSID3020207

> <dsstox_compound_id>
DTXCID30207

> <qc_level>
DSSTox_High

> <Canonical_QSARr>
CCC(C)C1=CC(=CC(=C1O)[N+]([O-])=O)[N+]([O-])=O

> <InChI_Code_QSARr>
InChI=1S/C10H12N2O5/c1-3-6(2)8-4-7(11(14)15)5-9(10(8)13)12(16)17/h4-6,13H,3H2,1-2H3

> <InChI Key_QSARr>
OWZPCEFYPSAJFR-UHFFFAOYSA-N

> <Salt_Solvent>


> <Salt_Solvent_ID>
0

> <MPID>
99377

> <KocRef>
Schuurmann-Main

> <LogKOC>
2.7

> <Tr_1_Tst_0>
1

$$$$
100101
  Mrv171c012251911022D          

 12 12  0  0  0  0            999 V2000
    3.2727   -2.0361    0.0000 O   0  0  0  0  0  0  0  0  0  0  0  0
    2.5582   -1.6236    0.0000 C   0  0  0  0  0  0  0  0  0  0  0  0
    2.5582   -0.7986    0.0000 O   0  0  0  0  0  0  0  0  0  0  0  0
    1.8438   -2.0361    0.0000 C   0  0  0  0  0  0  0  0  0  0  0  0
    1.1293   -1.6236    0.0000 C   0  0  0  0  0  0  0  0  0  0  0  0
    1.1293   -0.7986    0.0000 C   0  0  0  0  0  0  0  0  0  0  0  0
    0.4148   -0.3861    0.0000 O   0  0  0  0  0  0  0  0  0  0  0  0
    1.8438   -0.3861    0.0000 O   0  0  0  0  0  0  0  0  0  0  0  0
    0.4148   -2.0361    0.0000 C   0  0  0  0  0  0  0  0  0  0  0  0
    0.4148   -2.8611    0.0000 C   0  0  0  0  0  0  0  0  0  0  0  0
    1.1293   -3.2736    0.0000 C   0  0  0  0  0  0  0  0  0  0  0  0
    1.8438   -2.8611    0.0000 C   0  0  0  0  0  0  0  0  0  0  0  0
  1  2  1  0  0  0  0
  2  3  2  0  0  0  0
  2  4  1  0  0  0  0
  5  4  1  0  0  0  0
  5  6  1  0  0  0  0
  6  7  2  0  0  0  0
  6  8  1  0  0  0  0
  9  5  2  0  0  0  0
 10  9  1  0  0  0  0
 11 10  2  0  0  0  0
 12 11  1  0  0  0  0
  4 12  2  0  0  0  0
M  END
> <ChemID>
100101

> <CAS>
88-99-3

> <Original_SMILES>
OC(=O)c1ccccc1C(O)=O

> <preferred_name>
Phthalic acid

> <dsstox_substance_id>
DTXSID8021484

> <dsstox_compound_id>
DTXCID901484

> <qc_level>
DSSTox_Low

> <Canonical_QSARr>
OC(=O)C1=CC=CC=C1C(O)=O

> <InChI_Code_QSARr>
InChI=1S/C8H6O4/c9-7(10)5-3-1-2-4-6(5)8(11)12/h1-4H,(H,9,10)(H,11,12)

> <InChI Key_QSARr>
XNGIFLGASWRNHJ-UHFFFAOYSA-N

> <Salt_Solvent>


> <Salt_Solvent_ID>
0

> <MPID>
99378

> <KocRef>
SRC 1992 Validation

> <LogKOC>
1.07

> <Tr_1_Tst_0>
1

$$$$
100102
  Mrv171c012251911022D          

  9  9  0  0  0  0            999 V2000
    2.6694   -1.2571    0.0000 C   0  0  0  0  0  0  0  0  0  0  0  0
    1.9549   -0.8446    0.0000 C   0  0  0  0  0  0  0  0  0  0  0  0
    1.9549   -0.0196    0.0000 O   0  0  0  0  0  0  0  0  0  0  0  0
    1.2404   -1.2571    0.0000 C   0  0  0  0  0  0  0  0  0  0  0  0
    0.5260   -0.8446    0.0000 O   0  0  0  0  0  0  0  0  0  0  0  0
   -0.1885   -1.2571    0.0000 C   0  0  0  0  0  0  0  0  0  0  0  0
    1.2404   -2.0821    0.0000 C   0  0  0  0  0  0  0  0  0  0  0  0
    1.9549   -2.4946    0.0000 C   0  0  0  0  0  0  0  0  0  0  0  0
    2.6694   -2.0821    0.0000 C   0  0  0  0  0  0  0  0  0  0  0  0
  2  1  1  0  0  0  0
  2  3  1  0  0  0  0
  4  2  2  0  0  0  0
  4  5  1  0  0  0  0
  5  6  1  0  0  0  0
  7  4  1  0  0  0  0
  8  7  2  0  0  0  0
  9  8  1  0  0  0  0
  1  9  2  0  0  0  0
M  END
> <ChemID>
100102

> <CAS>
90-05-1

> <Original_SMILES>
COc1ccccc1O

> <preferred_name>
2-Methoxyphenol

> <dsstox_substance_id>
DTXSID0023113

> <dsstox_compound_id>
DTXCID003113

> <qc_level>
DSSTox_Low

> <Canonical_QSARr>
COC1C=CC=CC=1O

> <InChI_Code_QSARr>
InChI=1S/C7H8O2/c1-9-7-5-3-2-4-6(7)8/h2-5,8H,1H3

> <InChI Key_QSARr>
LHGVFZTZFXWLCP-UHFFFAOYSA-N

> <Salt_Solvent>


> <Salt_Solvent_ID>
0

> <MPID>
99379

> <KocRef>
Schuurmann-Main

> <LogKOC>
1.56

> <Tr_1_Tst_0>
0

$$$$
100103
  Mrv171c012251911022D          

 11 12  0  0  0  0            999 V2000
    0.8504   -3.0074    0.0000 C   0  0  0  0  0  0  0  0  0  0  0  0
    0.8504   -2.1824    0.0000 C   0  0  0  0  0  0  0  0  0  0  0  0
    0.1359   -1.7699    0.0000 C   0  0  0  0  0  0  0  0  0  0  0  0
    0.1359   -0.9449    0.0000 C   0  0  0  0  0  0  0  0  0  0  0  0
    0.8504   -0.5324    0.0000 C   0  0  0  0  0  0  0  0  0  0  0  0
    1.5648   -0.9449    0.0000 C   0  0  0  0  0  0  0  0  0  0  0  0
    2.2793   -0.5324    0.0000 C   0  0  0  0  0  0  0  0  0  0  0  0
    2.9938   -0.9449    0.0000 C   0  0  0  0  0  0  0  0  0  0  0  0
    2.9938   -1.7699    0.0000 C   0  0  0  0  0  0  0  0  0  0  0  0
    2.2793   -2.1824    0.0000 C   0  0  0  0  0  0  0  0  0  0  0  0
    1.5648   -1.7699    0.0000 C   0  0  0  0  0  0  0  0  0  0  0  0
  1  2  1  0  0  0  0
  3  2  1  0  0  0  0
  4  3  2  0  0  0  0
  5  4  1  0  0  0  0
  6  5  2  0  0  0  0
  6  7  1  0  0  0  0
  7  8  2  0  0  0  0
  8  9  1  0  0  0  0
  9 10  2  0  0  0  0
 10 11  1  0  0  0  0
  2 11  2  0  0  0  0
 11  6  1  0  0  0  0
M  END
> <ChemID>
100103

> <CAS>
90-12-0

> <Original_SMILES>
Cc1cccc2ccccc21

> <preferred_name>
1-Methylnaphthalene

> <dsstox_substance_id>
DTXSID9020877

> <dsstox_compound_id>
DTXCID30877

> <qc_level>
DSSTox_Low

> <Canonical_QSARr>
CC1C=CC=C2C=CC=CC2=1

> <InChI_Code_QSARr>
InChI=1S/C11H10/c1-9-5-4-7-10-6-2-3-8-11(9)10/h2-8H,1H3

> <InChI Key_QSARr>
QPUYECUOLPXSFR-UHFFFAOYSA-N

> <Salt_Solvent>


> <Salt_Solvent_ID>
0

> <MPID>
99380

> <KocRef>
SRC 1992 NonPolar Val

> <LogKOC>
3.36

> <Tr_1_Tst_0>
1

$$$$
100104
  Mrv171c012251911022D          

 11 12  0  0  0  0            999 V2000
    0.8453   -0.0013    0.0000 O   0  0  0  0  0  0  0  0  0  0  0  0
    0.8453   -0.8263    0.0000 C   0  0  0  0  0  0  0  0  0  0  0  0
    1.5597   -1.2388    0.0000 C   0  0  0  0  0  0  0  0  0  0  0  0
    2.2742   -0.8263    0.0000 C   0  0  0  0  0  0  0  0  0  0  0  0
    2.9887   -1.2388    0.0000 C   0  0  0  0  0  0  0  0  0  0  0  0
    2.9887   -2.0638    0.0000 C   0  0  0  0  0  0  0  0  0  0  0  0
    2.2742   -2.4763    0.0000 C   0  0  0  0  0  0  0  0  0  0  0  0
    1.5597   -2.0638    0.0000 C   0  0  0  0  0  0  0  0  0  0  0  0
    0.8453   -2.4763    0.0000 C   0  0  0  0  0  0  0  0  0  0  0  0
    0.1308   -2.0638    0.0000 C   0  0  0  0  0  0  0  0  0  0  0  0
    0.1308   -1.2388    0.0000 C   0  0  0  0  0  0  0  0  0  0  0  0
  1  2  1  0  0  0  0
  3  2  1  0  0  0  0
  3  4  2  0  0  0  0
  4  5  1  0  0  0  0
  5  6  2  0  0  0  0
  6  7  1  0  0  0  0
  7  8  2  0  0  0  0
  8  3  1  0  0  0  0
  9  8  1  0  0  0  0
 10  9  2  0  0  0  0
 11 10  1  0  0  0  0
  2 11  2  0  0  0  0
M  END
> <ChemID>
100104

> <CAS>
90-15-3

> <Original_SMILES>
Oc1cccc2ccccc21

> <preferred_name>
1-Naphthol

> <dsstox_substance_id>
DTXSID6021793

> <dsstox_compound_id>
DTXCID401793

> <qc_level>
DSSTox_Low

> <Canonical_QSARr>
OC1=CC=CC2=CC=CC=C21

> <InChI_Code_QSARr>
InChI=1S/C10H8O/c11-10-7-3-5-8-4-1-2-6-9(8)10/h1-7,11H

> <InChI Key_QSARr>
KJCVRFUGPWSIIH-UHFFFAOYSA-N

> <Salt_Solvent>


> <Salt_Solvent_ID>
0

> <MPID>
99381

> <KocRef>
Schuurmann-Main

> <LogKOC>
2.72

> <Tr_1_Tst_0>
1

$$$$
100105
  Mrv171c012251911022D          

 20 21  0  0  0  0            999 V2000
    1.9968   -2.7225    0.0000 O   0  0  0  0  0  0  0  0  0  0  0  0
    2.7112   -2.3100    0.0000 C   0  0  0  0  0  0  0  0  0  0  0  0
    2.7112   -1.4850    0.0000 C   0  0  0  0  0  0  0  0  0  0  0  0
    3.4257   -1.0725    0.0000 C   0  0  0  0  0  0  0  0  0  0  0  0
    3.4257   -0.2475    0.0000 C   0  0  0  0  0  0  0  0  0  0  0  0
    2.7112    0.1650    0.0000 C   0  0  0  0  0  0  0  0  0  0  0  0
    2.7112    0.9900    0.0000 N   0  0  0  0  0  0  0  0  0  0  0  0
    1.9968    1.4025    0.0000 C   0  0  0  0  0  0  0  0  0  0  0  0
    3.4257    1.4025    0.0000 C   0  0  0  0  0  0  0  0  0  0  0  0
    1.9968   -0.2475    0.0000 C   0  0  0  0  0  0  0  0  0  0  0  0
    1.9968   -1.0725    0.0000 C   0  0  0  0  0  0  0  0  0  0  0  0
    3.4257   -2.7225    0.0000 C   0  0  0  0  0  0  0  0  0  0  0  0
    3.4257   -3.5475    0.0000 C   0  0  0  0  0  0  0  0  0  0  0  0
    4.1402   -3.9600    0.0000 C   0  0  0  0  0  0  0  0  0  0  0  0
    4.8547   -3.5475    0.0000 C   0  0  0  0  0  0  0  0  0  0  0  0
    5.5691   -3.9600    0.0000 N   0  0  0  0  0  0  0  0  0  0  0  0
    6.2836   -3.5475    0.0000 C   0  0  0  0  0  0  0  0  0  0  0  0
    5.5691   -4.7850    0.0000 C   0  0  0  0  0  0  0  0  0  0  0  0
    4.8547   -2.7225    0.0000 C   0  0  0  0  0  0  0  0  0  0  0  0
    4.1402   -2.3100    0.0000 C   0  0  0  0  0  0  0  0  0  0  0  0
  1  2  2  0  0  0  0
  2  3  1  0  0  0  0
  4  3  1  0  0  0  0
  5  4  2  0  0  0  0
  6  5  1  0  0  0  0
  6  7  1  0  0  0  0
  7  8  1  0  0  0  0
  7  9  1  0  0  0  0
 10  6  2  0  0  0  0
 11 10  1  0  0  0  0
  3 11  2  0  0  0  0
  2 12  1  0  0  0  0
 13 12  1  0  0  0  0
 14 13  2  0  0  0  0
 15 14  1  0  0  0  0
 15 16  1  0  0  0  0
 16 17  1  0  0  0  0
 16 18  1  0  0  0  0
 19 15  2  0  0  0  0
 20 19  1  0  0  0  0
 12 20  2  0  0  0  0
M  END
> <ChemID>
100105

> <CAS>
90-94-8

> <Original_SMILES>
CN(C)c1ccc(cc1)C(=O)c1ccc(cc1)N(C)C

> <preferred_name>
Michler's ketone

> <dsstox_substance_id>
DTXSID2020894

> <dsstox_compound_id>
DTXCID80894

> <qc_level>
DSSTox_Low

> <Canonical_QSARr>
CN(C)C1C=CC(=CC=1)C(=O)C1C=CC(=CC=1)N(C)C

> <InChI_Code_QSARr>
InChI=1S/C17H20N2O/c1-18(2)15-9-5-13(6-10-15)17(20)14-7-11-16(12-8-14)19(3)4/h5-12H,1-4H3

> <InChI Key_QSARr>
VVBLNCFGVYUYGU-UHFFFAOYSA-N

> <Salt_Solvent>


> <Salt_Solvent_ID>
0

> <MPID>
99382

> <KocRef>
Schuurmann-Main

> <LogKOC>
2.21

> <Tr_1_Tst_0>
1

$$$$
100106
  Mrv171c012251911022D          

 14 15  0  0  0  0            999 V2000
    1.8372    1.2375    0.0000 C   0  0  0  0  0  0  0  0  0  0  0  0
    1.1227    0.8250    0.0000 C   0  0  0  0  0  0  0  0  0  0  0  0
    1.1227    0.0000    0.0000 C   0  0  0  0  0  0  0  0  0  0  0  0
    1.8372   -0.4125    0.0000 C   0  0  0  0  0  0  0  0  0  0  0  0
    2.5517    0.0000    0.0000 C   0  0  0  0  0  0  0  0  0  0  0  0
    2.5517    0.8250    0.0000 C   0  0  0  0  0  0  0  0  0  0  0  0
    1.8372    2.0625    0.0000 C   0  0  0  0  0  0  0  0  0  0  0  0
    2.5517    2.4750    0.0000 O   0  0  0  0  0  0  0  0  0  0  0  0
    1.1227    2.4750    0.0000 C   0  0  0  0  0  0  0  0  0  0  0  0
    1.1227    3.3000    0.0000 C   0  0  0  0  0  0  0  0  0  0  0  0
    0.4083    3.7125    0.0000 C   0  0  0  0  0  0  0  0  0  0  0  0
   -0.3062    3.3000    0.0000 C   0  0  0  0  0  0  0  0  0  0  0  0
   -0.3062    2.4750    0.0000 C   0  0  0  0  0  0  0  0  0  0  0  0
    0.4083    2.0625    0.0000 C   0  0  0  0  0  0  0  0  0  0  0  0
  2  1  1  0  0  0  0
  3  2  2  0  0  0  0
  4  3  1  0  0  0  0
  5  4  2  0  0  0  0
  6  5  1  0  0  0  0
  1  6  2  0  0  0  0
  1  7  1  0  0  0  0
  7  8  1  0  0  0  0
  7  9  1  0  0  0  0
 10  9  1  0  0  0  0
 11 10  2  0  0  0  0
 12 11  1  0  0  0  0
 13 12  2  0  0  0  0
 14 13  1  0  0  0  0
  9 14  2  0  0  0  0
M  END
> <ChemID>
100106

> <CAS>
91-01-0

> <Original_SMILES>
OC(c1ccccc1)c1ccccc1

> <preferred_name>
Diphenylmethanol

> <dsstox_substance_id>
DTXSID2059015

> <dsstox_compound_id>
DTXCID6048707

> <qc_level>
Public_High

> <Canonical_QSARr>
OC(C1C=CC=CC=1)C1C=CC=CC=1

> <InChI_Code_QSARr>
InChI=1S/C13H12O/c14-13(11-7-3-1-4-8-11)12-9-5-2-6-10-12/h1-10,13-14H

> <InChI Key_QSARr>
QILSFLSDHQAZET-UHFFFAOYSA-N

> <Salt_Solvent>


> <Salt_Solvent_ID>
0

> <MPID>
99383

> <KocRef>
Schuurmann-Main

> <LogKOC>
2.34

> <Tr_1_Tst_0>
0

$$$$
100107
  Mrv171c012251911022D          

 10 10  0  0  0  0            999 V2000
    1.2954   -1.0656    0.0000 C   0  0  0  0  0  0  0  0  0  0  0  0
    1.2954   -1.8906    0.0000 C   0  0  0  0  0  0  0  0  0  0  0  0
    2.0099   -2.3031    0.0000 C   0  0  0  0  0  0  0  0  0  0  0  0
    2.7244   -1.8906    0.0000 C   0  0  0  0  0  0  0  0  0  0  0  0
    2.7244   -1.0656    0.0000 C   0  0  0  0  0  0  0  0  0  0  0  0
    2.0099   -0.6531    0.0000 C   0  0  0  0  0  0  0  0  0  0  0  0
    2.0099    0.1719    0.0000 O   0  0  0  0  0  0  0  0  0  0  0  0
    1.2954    0.5844    0.0000 C   0  0  0  0  0  0  0  0  0  0  0  0
    0.5810   -0.6531    0.0000 O   0  0  0  0  0  0  0  0  0  0  0  0
    0.5810    0.1719    0.0000 C   0  0  0  0  0  0  0  0  0  0  0  0
  2  1  2  0  0  0  0
  3  2  1  0  0  0  0
  4  3  2  0  0  0  0
  5  4  1  0  0  0  0
  6  5  2  0  0  0  0
  1  6  1  0  0  0  0
  6  7  1  0  0  0  0
  7  8  1  0  0  0  0
  1  9  1  0  0  0  0
  9 10  1  0  0  0  0
M  END
> <ChemID>
100107

> <CAS>
91-16-7

> <Original_SMILES>
COc1ccccc1OC

> <preferred_name>
1,2-Dimethoxybenzene

> <dsstox_substance_id>
DTXSID7047065

> <dsstox_compound_id>
DTXCID5027065

> <qc_level>
DSSTox_Low

> <Canonical_QSARr>
COC1=CC=CC=C1OC

> <InChI_Code_QSARr>
InChI=1S/C8H10O2/c1-9-7-5-3-4-6-8(7)10-2/h3-6H,1-2H3

> <InChI Key_QSARr>
ABDKAPXRBAPSQN-UHFFFAOYSA-N

> <Salt_Solvent>


> <Salt_Solvent_ID>
0

> <MPID>
99384

> <KocRef>
Schuurmann-Main

> <LogKOC>
2.03

> <Tr_1_Tst_0>
1

$$$$
100108
  Mrv171c012251911022D          

 10 11  0  0  0  0            999 V2000
    1.4297   -0.4125    0.0000 C   0  0  0  0  0  0  0  0  0  0  0  0
    0.7153    0.0000    0.0000 C   0  0  0  0  0  0  0  0  0  0  0  0
    0.0008   -0.4125    0.0000 C   0  0  0  0  0  0  0  0  0  0  0  0
    0.0008   -1.2375    0.0000 C   0  0  0  0  0  0  0  0  0  0  0  0
    0.7153   -1.6500    0.0000 C   0  0  0  0  0  0  0  0  0  0  0  0
    1.4297   -1.2375    0.0000 C   0  0  0  0  0  0  0  0  0  0  0  0
    2.1442   -1.6500    0.0000 C   0  0  0  0  0  0  0  0  0  0  0  0
    2.8587   -1.2375    0.0000 C   0  0  0  0  0  0  0  0  0  0  0  0
    2.8587   -0.4125    0.0000 C   0  0  0  0  0  0  0  0  0  0  0  0
    2.1442    0.0000    0.0000 C   0  0  0  0  0  0  0  0  0  0  0  0
  2  1  1  0  0  0  0
  3  2  1  0  0  0  0
  4  3  1  0  0  0  0
  5  4  1  0  0  0  0
  6  5  1  0  0  0  0
  6  1  1  0  0  0  0
  7  6  1  0  0  0  0
  8  7  1  0  0  0  0
  9  8  1  0  0  0  0
 10  9  1  0  0  0  0
  1 10  1  0  0  0  0
M  END
> <ChemID>
100108

> <CAS>
91-17-8

> <Original_SMILES>
C1CCCC2CCCCC21

> <preferred_name>
Decalin

> <dsstox_substance_id>
DTXSID1024912

> <dsstox_compound_id>
DTXCID304912

> <qc_level>
DSSTox_Low

> <Canonical_QSARr>
C1CCCC2CCCCC21

> <InChI_Code_QSARr>
InChI=1S/C10H18/c1-2-6-10-8-4-3-7-9(10)5-1/h9-10H,1-8H2

> <InChI Key_QSARr>
NNBZCPXTIHJBJL-UHFFFAOYSA-N

> <Salt_Solvent>


> <Salt_Solvent_ID>
0

> <MPID>
99385

> <KocRef>
Schuurmann-Main

> <LogKOC>
3.67

> <Tr_1_Tst_0>
1

$$$$
100109
  Mrv171c012251911022D          

 10 11  0  0  0  0            999 V2000
    0.7153   -1.6500    0.0000 C   0  0  0  0  0  0  0  0  0  0  0  0
    0.0008   -1.2375    0.0000 C   0  0  0  0  0  0  0  0  0  0  0  0
    0.0008   -0.4125    0.0000 C   0  0  0  0  0  0  0  0  0  0  0  0
    0.7153    0.0000    0.0000 C   0  0  0  0  0  0  0  0  0  0  0  0
    1.4297   -0.4125    0.0000 C   0  0  0  0  0  0  0  0  0  0  0  0
    2.1442    0.0000    0.0000 C   0  0  0  0  0  0  0  0  0  0  0  0
    2.8587   -0.4125    0.0000 C   0  0  0  0  0  0  0  0  0  0  0  0
    2.8587   -1.2375    0.0000 C   0  0  0  0  0  0  0  0  0  0  0  0
    2.1442   -1.6500    0.0000 C   0  0  0  0  0  0  0  0  0  0  0  0
    1.4297   -1.2375    0.0000 C   0  0  0  0  0  0  0  0  0  0  0  0
  2  1  1  0  0  0  0
  3  2  2  0  0  0  0
  4  3  1  0  0  0  0
  5  4  2  0  0  0  0
  5  6  1  0  0  0  0
  6  7  2  0  0  0  0
  7  8  1  0  0  0  0
  8  9  2  0  0  0  0
  9 10  1  0  0  0  0
  1 10  2  0  0  0  0
 10  5  1  0  0  0  0
M  END
> <ChemID>
100109

> <CAS>
91-20-3

> <Original_SMILES>
c1cccc2ccccc21

> <preferred_name>
Naphthalene

> <dsstox_substance_id>
DTXSID8020913

> <dsstox_compound_id>
DTXCID00913

> <qc_level>
DSSTox_Low

> <Canonical_QSARr>
C1=CC=CC2=CC=CC=C21

> <InChI_Code_QSARr>
InChI=1S/C10H8/c1-2-6-10-8-4-3-7-9(10)5-1/h1-8H

> <InChI Key_QSARr>
UFWIBTONFRDIAS-UHFFFAOYSA-N

> <Salt_Solvent>


> <Salt_Solvent_ID>
0

> <MPID>
99386

> <KocRef>
Schuurm-SRC avg

> <LogKOC>
2.96

> <Tr_1_Tst_0>
1

$$$$
100110
  Mrv171c012251911022D          

 10 11  0  0  0  0            999 V2000
    0.7153    0.0000    0.0000 N   0  0  0  0  0  0  0  0  0  0  0  0
    1.4297   -0.4125    0.0000 C   0  0  0  0  0  0  0  0  0  0  0  0
    2.1442    0.0000    0.0000 C   0  0  0  0  0  0  0  0  0  0  0  0
    2.8587   -0.4125    0.0000 C   0  0  0  0  0  0  0  0  0  0  0  0
    2.8587   -1.2375    0.0000 C   0  0  0  0  0  0  0  0  0  0  0  0
    2.1442   -1.6500    0.0000 C   0  0  0  0  0  0  0  0  0  0  0  0
    1.4297   -1.2375    0.0000 C   0  0  0  0  0  0  0  0  0  0  0  0
    0.7153   -1.6500    0.0000 C   0  0  0  0  0  0  0  0  0  0  0  0
    0.0008   -1.2375    0.0000 C   0  0  0  0  0  0  0  0  0  0  0  0
    0.0008   -0.4125    0.0000 C   0  0  0  0  0  0  0  0  0  0  0  0
  2  1  1  0  0  0  0
  2  3  1  0  0  0  0
  3  4  2  0  0  0  0
  4  5  1  0  0  0  0
  5  6  2  0  0  0  0
  6  7  1  0  0  0  0
  7  2  2  0  0  0  0
  8  7  1  0  0  0  0
  9  8  2  0  0  0  0
 10  9  1  0  0  0  0
  1 10  2  0  0  0  0
M  END
> <ChemID>
100110

> <CAS>
91-22-5

> <Original_SMILES>
c1cccc2[n]cccc21

> <preferred_name>
Quinoline

> <dsstox_substance_id>
DTXSID1021798

> <dsstox_compound_id>
DTXCID401798

> <qc_level>
DSSTox_Low

> <Canonical_QSARr>
C1=CC=NC2C=CC=CC=21

> <InChI_Code_QSARr>
InChI=1S/C9H7N/c1-2-6-9-8(4-1)5-3-7-10-9/h1-7H

> <InChI Key_QSARr>
SMWDFEZZVXVKRB-UHFFFAOYSA-N

> <Salt_Solvent>


> <Salt_Solvent_ID>
0

> <MPID>
99387

> <KocRef>
Schuurmann-Main

> <LogKOC>
3.1

> <Tr_1_Tst_0>
0

$$$$
100111
  Mrv171c012251911022D          

 11 12  0  0  0  0            999 V2000
    1.8110   -0.4138    0.0000 C   0  0  0  0  0  0  0  0  0  0  0  0
    1.0965   -0.0013    0.0000 C   0  0  0  0  0  0  0  0  0  0  0  0
    0.3820   -0.4138    0.0000 C   0  0  0  0  0  0  0  0  0  0  0  0
   -0.3325   -0.0013    0.0000 C   0  0  0  0  0  0  0  0  0  0  0  0
    0.3820   -1.2388    0.0000 C   0  0  0  0  0  0  0  0  0  0  0  0
    1.0965   -1.6513    0.0000 C   0  0  0  0  0  0  0  0  0  0  0  0
    1.8110   -1.2388    0.0000 C   0  0  0  0  0  0  0  0  0  0  0  0
    2.5254   -1.6513    0.0000 C   0  0  0  0  0  0  0  0  0  0  0  0
    3.2399   -1.2388    0.0000 C   0  0  0  0  0  0  0  0  0  0  0  0
    3.2399   -0.4138    0.0000 C   0  0  0  0  0  0  0  0  0  0  0  0
    2.5254   -0.0013    0.0000 C   0  0  0  0  0  0  0  0  0  0  0  0
  2  1  1  0  0  0  0
  3  2  2  0  0  0  0
  3  4  1  0  0  0  0
  5  3  1  0  0  0  0
  6  5  2  0  0  0  0
  7  6  1  0  0  0  0
  7  1  1  0  0  0  0
  8  7  2  0  0  0  0
  9  8  1  0  0  0  0
 10  9  2  0  0  0  0
 11 10  1  0  0  0  0
  1 11  2  0  0  0  0
M  END
> <ChemID>
100111

> <CAS>
91-57-6

> <Original_SMILES>
Cc1cc2ccccc2cc1

> <preferred_name>
2-Methylnaphthalene

> <dsstox_substance_id>
DTXSID4020878

> <dsstox_compound_id>
DTXCID60878

> <qc_level>
DSSTox_Low

> <Canonical_QSARr>
CC1=CC2=CC=CC=C2C=C1

> <InChI_Code_QSARr>
InChI=1S/C11H10/c1-9-6-7-10-4-2-3-5-11(10)8-9/h2-8H,1H3

> <InChI Key_QSARr>
QIMMUPPBPVKWKM-UHFFFAOYSA-N

> <Salt_Solvent>


> <Salt_Solvent_ID>
0

> <MPID>
99388

> <KocRef>
SRC 1992 Non-Polar

> <LogKOC>
3.6

> <Tr_1_Tst_0>
1

$$$$
100112
  Mrv171c012251911022D          

 11 11  0  0  0  0            999 V2000
    2.6189    1.2341    0.0000 C   0  0  0  0  0  0  0  0  0  0  0  0
    2.6189    0.4091    0.0000 C   0  0  0  0  0  0  0  0  0  0  0  0
    1.9044   -0.0034    0.0000 N   0  0  0  0  0  0  0  0  0  0  0  0
    1.9044   -0.8284    0.0000 C   0  0  0  0  0  0  0  0  0  0  0  0
    1.1900   -1.2409    0.0000 C   0  0  0  0  0  0  0  0  0  0  0  0
    1.1900   -2.0659    0.0000 C   0  0  0  0  0  0  0  0  0  0  0  0
    1.9044   -2.4784    0.0000 C   0  0  0  0  0  0  0  0  0  0  0  0
    2.6189   -2.0659    0.0000 C   0  0  0  0  0  0  0  0  0  0  0  0
    2.6189   -1.2409    0.0000 C   0  0  0  0  0  0  0  0  0  0  0  0
    1.1900    0.4091    0.0000 C   0  0  0  0  0  0  0  0  0  0  0  0
    0.4755   -0.0034    0.0000 C   0  0  0  0  0  0  0  0  0  0  0  0
  1  2  1  0  0  0  0
  2  3  1  0  0  0  0
  3  4  1  0  0  0  0
  5  4  1  0  0  0  0
  6  5  2  0  0  0  0
  7  6  1  0  0  0  0
  8  7  2  0  0  0  0
  9  8  1  0  0  0  0
  4  9  2  0  0  0  0
  3 10  1  0  0  0  0
 10 11  1  0  0  0  0
M  END
> <ChemID>
100112

> <CAS>
91-66-7

> <Original_SMILES>
CCN(CC)c1ccccc1

> <preferred_name>
N,N-Diethylaniline

> <dsstox_substance_id>
DTXSID8021800

> <dsstox_compound_id>
DTXCID701800

> <qc_level>
DSSTox_Low

> <Canonical_QSARr>
CCN(CC)C1C=CC=CC=1

> <InChI_Code_QSARr>
InChI=1S/C10H15N/c1-3-11(4-2)10-8-6-5-7-9-10/h5-9H,3-4H2,1-2H3

> <InChI Key_QSARr>
GGSUCNLOZRCGPQ-UHFFFAOYSA-N

> <Salt_Solvent>


> <Salt_Solvent_ID>
0

> <MPID>
99389

> <KocRef>
Schuurmann-Main

> <LogKOC>
2.08

> <Tr_1_Tst_0>
1

$$$$
100113
  Mrv171c012251911022D          

 18 19  0  0  0  0            999 V2000
    1.8082   -0.2782    0.0000 C   0  0  0  0  0  0  0  0  0  0  0  0
    2.1438   -1.0319    0.0000 C   0  0  0  0  0  0  0  0  0  0  0  0
    1.7313   -1.7464    0.0000 C   0  0  0  0  0  0  0  0  0  0  0  0
    2.1438   -2.4609    0.0000 N   0  0  0  0  0  0  0  0  0  0  0  0
    1.7313   -3.1753    0.0000 C   0  0  0  0  0  0  0  0  0  0  0  0
    0.9063   -3.1753    0.0000 N   0  0  0  0  0  0  0  0  0  0  0  0
    0.4938   -3.8898    0.0000 C   0  0  0  0  0  0  0  0  0  0  0  0
    0.9063   -4.6043    0.0000 C   0  0  0  0  0  0  0  0  0  0  0  0
    1.7313   -4.6043    0.0000 C   0  0  0  0  0  0  0  0  0  0  0  0
    2.1438   -3.8898    0.0000 C   0  0  0  0  0  0  0  0  0  0  0  0
    2.9688   -2.4609    0.0000 C   0  0  0  0  0  0  0  0  0  0  0  0
    3.3813   -1.7464    0.0000 C   0  0  0  0  0  0  0  0  0  0  0  0
    4.2063   -1.7464    0.0000 N   0  0  0  0  0  0  0  0  0  0  0  0
    4.6188   -1.0319    0.0000 C   0  0  0  0  0  0  0  0  0  0  0  0
    4.6188   -2.4609    0.0000 C   0  0  0  0  0  0  0  0  0  0  0  0
    2.9643   -0.9457    0.0000 S   0  0  0  0  0  0  0  0  0  0  0  0
    3.1358   -0.1387    0.0000 C   0  0  0  0  0  0  0  0  0  0  0  0
    2.4213    0.2738    0.0000 C   0  0  0  0  0  0  0  0  0  0  0  0
  2  1  2  0  0  0  0
  2  3  1  0  0  0  0
  3  4  1  0  0  0  0
  4  5  1  0  0  0  0
  6  5  1  0  0  0  0
  7  6  2  0  0  0  0
  8  7  1  0  0  0  0
  9  8  2  0  0  0  0
 10  9  1  0  0  0  0
  5 10  2  0  0  0  0
  4 11  1  0  0  0  0
 11 12  1  0  0  0  0
 12 13  1  0  0  0  0
 13 14  1  0  0  0  0
 13 15  1  0  0  0  0
 16  2  1  0  0  0  0
 17 16  1  0  0  0  0
 18 17  2  0  0  0  0
  1 18  1  0  0  0  0
M  END
> <ChemID>
100113

> <CAS>
91-80-5

> <Original_SMILES>
CN(C)CCN(Cc1ccc[s]1)c1cccc[n]1

> <preferred_name>
Methapyrilene

> <dsstox_substance_id>
DTXSID2023278

> <dsstox_compound_id>
DTXCID003278

> <qc_level>
DSSTox_Low

> <Canonical_QSARr>
CN(C)CCN(CC1=CC=CS1)C1=CC=CC=N1

> <InChI_Code_QSARr>
InChI=1S/C14H19N3S/c1-16(2)9-10-17(12-13-6-5-11-18-13)14-7-3-4-8-15-14/h3-8,11H,9-10,12H2,1-2H3

> <InChI Key_QSARr>
HNJJXZKZRAWDPF-UHFFFAOYSA-N

> <Salt_Solvent>


> <Salt_Solvent_ID>
0

> <MPID>
99390

> <KocRef>
Schuurmann-Main

> <LogKOC>
2.87

> <Tr_1_Tst_0>
1

$$$$
100114
  Mrv171c012251911022D          

 16 17  0  0  0  0            999 V2000
    4.3157   -3.4925    0.0000 Cl  0  0  0  0  0  0  0  0  0  0  0  0
    3.6012   -3.0800    0.0000 C   0  0  0  0  0  0  0  0  0  0  0  0
    3.6012   -2.2550    0.0000 C   0  0  0  0  0  0  0  0  0  0  0  0
    2.8868   -1.8425    0.0000 C   0  0  0  0  0  0  0  0  0  0  0  0
    2.8868   -1.0175    0.0000 C   0  0  0  0  0  0  0  0  0  0  0  0
    3.6012   -0.6050    0.0000 C   0  0  0  0  0  0  0  0  0  0  0  0
    3.6012    0.2200    0.0000 C   0  0  0  0  0  0  0  0  0  0  0  0
    2.8868    0.6325    0.0000 C   0  0  0  0  0  0  0  0  0  0  0  0
    2.8868    1.4575    0.0000 N   0  0  0  0  0  0  0  0  0  0  0  0
    2.1723    0.2200    0.0000 C   0  0  0  0  0  0  0  0  0  0  0  0
    1.4578    0.6325    0.0000 Cl  0  0  0  0  0  0  0  0  0  0  0  0
    2.1723   -0.6050    0.0000 C   0  0  0  0  0  0  0  0  0  0  0  0
    2.1723   -2.2550    0.0000 C   0  0  0  0  0  0  0  0  0  0  0  0
    2.1723   -3.0800    0.0000 C   0  0  0  0  0  0  0  0  0  0  0  0
    2.8868   -3.4925    0.0000 C   0  0  0  0  0  0  0  0  0  0  0  0
    2.8868   -4.3175    0.0000 N   0  0  0  0  0  0  0  0  0  0  0  0
  1  2  1  0  0  0  0
  3  2  1  0  0  0  0
  4  3  2  0  0  0  0
  4  5  1  0  0  0  0
  6  5  1  0  0  0  0
  7  6  2  0  0  0  0
  8  7  1  0  0  0  0
  8  9  1  0  0  0  0
 10  8  2  0  0  0  0
 10 11  1  0  0  0  0
 12 10  1  0  0  0  0
  5 12  2  0  0  0  0
 13  4  1  0  0  0  0
 14 13  2  0  0  0  0
 15 14  1  0  0  0  0
  2 15  2  0  0  0  0
 15 16  1  0  0  0  0
M  END
> <ChemID>
100114

> <CAS>
91-94-1

> <Original_SMILES>
Nc1ccc(cc1Cl)-c1cc(Cl)c(N)cc1

> <preferred_name>
3,3'-Dichlorobenzidine

> <dsstox_substance_id>
DTXSID6020432

> <dsstox_compound_id>
DTXCID60432

> <qc_level>
DSSTox_High

> <Canonical_QSARr>
NC1C=CC(=CC=1Cl)C1=CC(Cl)=C(N)C=C1

> <InChI_Code_QSARr>
InChI=1S/C12H10Cl2N2/c13-9-5-7(1-3-11(9)15)8-2-4-12(16)10(14)6-8/h1-6H,15-16H2

> <InChI Key_QSARr>
HUWXDEQWWKGHRV-UHFFFAOYSA-N

> <Salt_Solvent>


> <Salt_Solvent_ID>
0

> <MPID>
99391

> <KocRef>
SRC 1992 Validation

> <LogKOC>
4.35

> <Tr_1_Tst_0>
0

$$$$
100115
  Mrv171c012251911022D          

 18 21  0  0  0  0            999 V2000
    2.8578   -0.0000    0.0000 C   0  0  0  0  0  0  0  0  0  0  0  0
    3.5723   -0.4125    0.0000 C   0  0  0  0  0  0  0  0  0  0  0  0
    4.2868   -0.0000    0.0000 C   0  0  0  0  0  0  0  0  0  0  0  0
    4.2868    0.8250    0.0000 C   0  0  0  0  0  0  0  0  0  0  0  0
    5.0013    1.2375    0.0000 C   0  0  0  0  0  0  0  0  0  0  0  0
    5.7157    0.8250    0.0000 C   0  0  0  0  0  0  0  0  0  0  0  0
    5.7157   -0.0000    0.0000 C   0  0  0  0  0  0  0  0  0  0  0  0
    5.0013   -0.4125    0.0000 C   0  0  0  0  0  0  0  0  0  0  0  0
    3.5723    1.2375    0.0000 C   0  0  0  0  0  0  0  0  0  0  0  0
    2.8578    0.8250    0.0000 C   0  0  0  0  0  0  0  0  0  0  0  0
    2.1434    1.2375    0.0000 C   0  0  0  0  0  0  0  0  0  0  0  0
    1.4289    0.8250    0.0000 C   0  0  0  0  0  0  0  0  0  0  0  0
    1.4289   -0.0000    0.0000 C   0  0  0  0  0  0  0  0  0  0  0  0
    0.7144   -0.4125    0.0000 C   0  0  0  0  0  0  0  0  0  0  0  0
   -0.0000   -0.0000    0.0000 C   0  0  0  0  0  0  0  0  0  0  0  0
   -0.0000    0.8250    0.0000 C   0  0  0  0  0  0  0  0  0  0  0  0
    0.7144    1.2375    0.0000 C   0  0  0  0  0  0  0  0  0  0  0  0
    2.1434   -0.4125    0.0000 C   0  0  0  0  0  0  0  0  0  0  0  0
  2  1  1  0  0  0  0
  3  2  2  0  0  0  0
  3  4  1  0  0  0  0
  4  5  1  0  0  0  0
  5  6  2  0  0  0  0
  6  7  1  0  0  0  0
  7  8  2  0  0  0  0
  8  3  1  0  0  0  0
  9  4  2  0  0  0  0
 10  9  1  0  0  0  0
 10  1  1  0  0  0  0
 11 10  2  0  0  0  0
 12 11  1  0  0  0  0
 12 13  1  0  0  0  0
 13 14  2  0  0  0  0
 14 15  1  0  0  0  0
 15 16  2  0  0  0  0
 16 17  1  0  0  0  0
 17 12  2  0  0  0  0
 18 13  1  0  0  0  0
  1 18  2  0  0  0  0
M  END
> <ChemID>
100115

> <CAS>
92-24-0

> <Original_SMILES>
c1c2cc3ccccc3cc2cc2ccccc21

> <preferred_name>
Naphthacene

> <dsstox_substance_id>
DTXSID4059045

> <dsstox_compound_id>
DTXCID6048751

> <qc_level>
Public_High

> <Canonical_QSARr>
C1=C2C=C3C=CC=CC3=CC2=CC2=CC=CC=C21

> <InChI_Code_QSARr>
InChI=1S/C18H12/c1-2-6-14-10-18-12-16-8-4-3-7-15(16)11-17(18)9-13(14)5-1/h1-12H

> <InChI Key_QSARr>
IFLREYGFSNHWGE-UHFFFAOYSA-N

> <Salt_Solvent>


> <Salt_Solvent_ID>
0

> <MPID>
99392

> <KocRef>
Schuurmann-Main

> <LogKOC>
5.81

> <Tr_1_Tst_0>
1

$$$$
100116
  Mrv171c012251911022D          

 12 13  0  0  0  0            999 V2000
    1.3498   -1.5392    0.0000 C   0  0  0  0  0  0  0  0  0  0  0  0
    1.3498   -2.3642    0.0000 C   0  0  0  0  0  0  0  0  0  0  0  0
    2.0643   -2.7767    0.0000 C   0  0  0  0  0  0  0  0  0  0  0  0
    2.7787   -2.3642    0.0000 C   0  0  0  0  0  0  0  0  0  0  0  0
    2.7787   -1.5392    0.0000 C   0  0  0  0  0  0  0  0  0  0  0  0
    2.0643   -1.1267    0.0000 C   0  0  0  0  0  0  0  0  0  0  0  0
    2.0643   -0.3017    0.0000 C   0  0  0  0  0  0  0  0  0  0  0  0
    2.7787    0.1108    0.0000 C   0  0  0  0  0  0  0  0  0  0  0  0
    2.7787    0.9358    0.0000 C   0  0  0  0  0  0  0  0  0  0  0  0
    2.0643    1.3483    0.0000 C   0  0  0  0  0  0  0  0  0  0  0  0
    1.3498    0.9358    0.0000 C   0  0  0  0  0  0  0  0  0  0  0  0
    1.3498    0.1108    0.0000 C   0  0  0  0  0  0  0  0  0  0  0  0
  2  1  1  0  0  0  0
  3  2  2  0  0  0  0
  4  3  1  0  0  0  0
  5  4  2  0  0  0  0
  6  5  1  0  0  0  0
  1  6  2  0  0  0  0
  6  7  1  0  0  0  0
  8  7  1  0  0  0  0
  9  8  2  0  0  0  0
 10  9  1  0  0  0  0
 11 10  2  0  0  0  0
 12 11  1  0  0  0  0
  7 12  2  0  0  0  0
M  END
> <ChemID>
100116

> <CAS>
92-52-4

> <Original_SMILES>
c1ccccc1-c1ccccc1

> <preferred_name>
Biphenyl

> <dsstox_substance_id>
DTXSID4020161

> <dsstox_compound_id>
DTXCID60161

> <qc_level>
DSSTox_Low

> <Canonical_QSARr>
C1=CC=CC=C1C1C=CC=CC=1

> <InChI_Code_QSARr>
InChI=1S/C12H10/c1-3-7-11(8-4-1)12-9-5-2-6-10-12/h1-10H

> <InChI Key_QSARr>
ZUOUZKKEUPVFJK-UHFFFAOYSA-N

> <Salt_Solvent>


> <Salt_Solvent_ID>
0

> <MPID>
99393

> <KocRef>
Schuurmann-Main

> <LogKOC>
3.27

> <Tr_1_Tst_0>
1

$$$$
100117
  Mrv171c012251911022D          

 14 16  0  0  0  0            999 V2000
    2.8579   -0.0000    0.0000 C   0  0  0  0  0  0  0  0  0  0  0  0
    3.5724   -0.4125    0.0000 C   0  0  0  0  0  0  0  0  0  0  0  0
    4.2868    0.0000    0.0000 C   0  0  0  0  0  0  0  0  0  0  0  0
    4.2868    0.8250    0.0000 C   0  0  0  0  0  0  0  0  0  0  0  0
    3.5724    1.2375    0.0000 C   0  0  0  0  0  0  0  0  0  0  0  0
    2.8579    0.8250    0.0000 C   0  0  0  0  0  0  0  0  0  0  0  0
    2.1434    1.2375    0.0000 N   0  0  0  0  0  0  0  0  0  0  0  0
    1.4289    0.8250    0.0000 C   0  0  0  0  0  0  0  0  0  0  0  0
    1.4289    0.0000    0.0000 C   0  0  0  0  0  0  0  0  0  0  0  0
    0.7145   -0.4125    0.0000 C   0  0  0  0  0  0  0  0  0  0  0  0
    0.0000   -0.0000    0.0000 C   0  0  0  0  0  0  0  0  0  0  0  0
    0.0000    0.8250    0.0000 C   0  0  0  0  0  0  0  0  0  0  0  0
    0.7145    1.2375    0.0000 C   0  0  0  0  0  0  0  0  0  0  0  0
    2.1434   -0.4125    0.0000 N   0  0  0  0  0  0  0  0  0  0  0  0
  2  1  1  0  0  0  0
  3  2  2  0  0  0  0
  4  3  1  0  0  0  0
  5  4  2  0  0  0  0
  6  5  1  0  0  0  0
  6  1  1  0  0  0  0
  7  6  2  0  0  0  0
  8  7  1  0  0  0  0
  8  9  1  0  0  0  0
  9 10  2  0  0  0  0
 10 11  1  0  0  0  0
 11 12  2  0  0  0  0
 12 13  1  0  0  0  0
 13  8  2  0  0  0  0
 14  9  1  0  0  0  0
  1 14  2  0  0  0  0
M  END
> <ChemID>
100117

> <CAS>
92-82-0

> <Original_SMILES>
c1cccc2[n]c3ccccc3[n]c21

> <preferred_name>
Phenazine

> <dsstox_substance_id>
DTXSID2059069

> <dsstox_compound_id>
DTXCID4048777

> <qc_level>
Public_High

> <Canonical_QSARr>
C1=CC=CC2=NC3=CC=CC=C3N=C21

> <InChI_Code_QSARr>
InChI=1S/C12H8N2/c1-2-6-10-9(5-1)13-11-7-3-4-8-12(11)14-10/h1-8H

> <InChI Key_QSARr>
PCNDJXKNXGMECE-UHFFFAOYSA-N

> <Salt_Solvent>


> <Salt_Solvent_ID>
0

> <MPID>
99394

> <KocRef>
Schuurmann-Main

> <LogKOC>
3.37

> <Tr_1_Tst_0>
1

$$$$
100118
  Mrv171c012251911022D          

 14 15  0  0  0  0            999 V2000
    2.8871   -3.5994    0.0000 N   0  0  0  0  0  0  0  0  0  0  0  0
    2.8871   -2.7744    0.0000 C   0  0  0  0  0  0  0  0  0  0  0  0
    3.6016   -2.3619    0.0000 C   0  0  0  0  0  0  0  0  0  0  0  0
    3.6016   -1.5369    0.0000 C   0  0  0  0  0  0  0  0  0  0  0  0
    2.8871   -1.1244    0.0000 C   0  0  0  0  0  0  0  0  0  0  0  0
    2.8871   -0.2994    0.0000 C   0  0  0  0  0  0  0  0  0  0  0  0
    3.6016    0.1131    0.0000 C   0  0  0  0  0  0  0  0  0  0  0  0
    3.6016    0.9381    0.0000 C   0  0  0  0  0  0  0  0  0  0  0  0
    2.8871    1.3506    0.0000 C   0  0  0  0  0  0  0  0  0  0  0  0
    2.8871    2.1756    0.0000 N   0  0  0  0  0  0  0  0  0  0  0  0
    2.1726    0.9381    0.0000 C   0  0  0  0  0  0  0  0  0  0  0  0
    2.1726    0.1131    0.0000 C   0  0  0  0  0  0  0  0  0  0  0  0
    2.1726   -1.5369    0.0000 C   0  0  0  0  0  0  0  0  0  0  0  0
    2.1726   -2.3619    0.0000 C   0  0  0  0  0  0  0  0  0  0  0  0
  1  2  1  0  0  0  0
  3  2  1  0  0  0  0
  4  3  2  0  0  0  0
  5  4  1  0  0  0  0
  5  6  1  0  0  0  0
  7  6  1  0  0  0  0
  8  7  2  0  0  0  0
  9  8  1  0  0  0  0
  9 10  1  0  0  0  0
 11  9  2  0  0  0  0
 12 11  1  0  0  0  0
  6 12  2  0  0  0  0
 13  5  2  0  0  0  0
 14 13  1  0  0  0  0
  2 14  2  0  0  0  0
M  END
> <ChemID>
100118

> <CAS>
92-87-5

> <Original_SMILES>
Nc1ccc(cc1)-c1ccc(N)cc1

> <preferred_name>
Benzidine

> <dsstox_substance_id>
DTXSID2020137

> <dsstox_compound_id>
DTXCID80137

> <qc_level>
DSSTox_Low

> <Canonical_QSARr>
NC1C=CC(=CC=1)C1C=CC(N)=CC=1

> <InChI_Code_QSARr>
InChI=1S/C12H12N2/c13-11-5-1-9(2-6-11)10-3-7-12(14)8-4-10/h1-8H,13-14H2

> <InChI Key_QSARr>
HFACYLZERDEVSX-UHFFFAOYSA-N

> <Salt_Solvent>


> <Salt_Solvent_ID>
0

> <MPID>
99395

> <KocRef>
SRC 1992 Validation

> <LogKOC>
3.46

> <Tr_1_Tst_0>
0

$$$$
100119
  Mrv171c012251911022D          

 15 16  0  0  0  0            999 V2000
    1.9789   -2.1736    0.0000 C   0  0  0  0  0  0  0  0  0  0  0  0
    1.9789   -2.9986    0.0000 C   0  0  0  0  0  0  0  0  0  0  0  0
    2.6933   -3.4111    0.0000 C   0  0  0  0  0  0  0  0  0  0  0  0
    3.4078   -2.9986    0.0000 C   0  0  0  0  0  0  0  0  0  0  0  0
    3.4078   -2.1736    0.0000 C   0  0  0  0  0  0  0  0  0  0  0  0
    2.6933   -1.7611    0.0000 C   0  0  0  0  0  0  0  0  0  0  0  0
    2.6933   -0.9361    0.0000 C   0  0  0  0  0  0  0  0  0  0  0  0
    3.4078   -0.5236    0.0000 C   0  0  0  0  0  0  0  0  0  0  0  0
    3.4078    0.3014    0.0000 C   0  0  0  0  0  0  0  0  0  0  0  0
    2.6933    0.7139    0.0000 C   0  0  0  0  0  0  0  0  0  0  0  0
    2.6933    1.5389    0.0000 C   0  0  0  0  0  0  0  0  0  0  0  0
    1.9789    1.9514    0.0000 O   0  0  0  0  0  0  0  0  0  0  0  0
    3.4078    1.9514    0.0000 C   0  0  0  0  0  0  0  0  0  0  0  0
    1.9789    0.3014    0.0000 C   0  0  0  0  0  0  0  0  0  0  0  0
    1.9789   -0.5236    0.0000 C   0  0  0  0  0  0  0  0  0  0  0  0
  2  1  2  0  0  0  0
  3  2  1  0  0  0  0
  4  3  2  0  0  0  0
  5  4  1  0  0  0  0
  6  5  2  0  0  0  0
  1  6  1  0  0  0  0
  6  7  1  0  0  0  0
  8  7  2  0  0  0  0
  9  8  1  0  0  0  0
 10  9  2  0  0  0  0
 10 11  1  0  0  0  0
 11 12  2  0  0  0  0
 11 13  1  0  0  0  0
 14 10  1  0  0  0  0
 15 14  2  0  0  0  0
  7 15  1  0  0  0  0
M  END
> <ChemID>
100119

> <CAS>
92-91-1

> <Original_SMILES>
CC(=O)c1ccc(cc1)-c1ccccc1

> <preferred_name>
4'-Acetylbiphenyl

> <dsstox_substance_id>
DTXSID6052619

> <dsstox_compound_id>
DTXCID4031192

> <qc_level>
DSSTox_Low

> <Canonical_QSARr>
CC(=O)C1C=CC(=CC=1)C1C=CC=CC=1

> <InChI_Code_QSARr>
InChI=1S/C14H12O/c1-11(15)12-7-9-14(10-8-12)13-5-3-2-4-6-13/h2-10H,1H3

> <InChI Key_QSARr>
QCZZSANNLWPGEA-UHFFFAOYSA-N

> <Salt_Solvent>


> <Salt_Solvent_ID>
0

> <MPID>
99396

> <KocRef>
SRC 1992 Polar

> <LogKOC>
3.22

> <Tr_1_Tst_0>
1

$$$$
100120
  Mrv171c012251911022D          

 13 14  0  0  0  0            999 V2000
    2.5258   -1.2380    0.0000 C   0  0  0  0  0  0  0  0  0  0  0  0
    1.8113   -0.8255    0.0000 C   0  0  0  0  0  0  0  0  0  0  0  0
    1.0968   -1.2380    0.0000 C   0  0  0  0  0  0  0  0  0  0  0  0
    0.3823   -0.8255    0.0000 C   0  0  0  0  0  0  0  0  0  0  0  0
   -0.3321   -1.2380    0.0000 O   0  0  0  0  0  0  0  0  0  0  0  0
    0.3823   -0.0005    0.0000 C   0  0  0  0  0  0  0  0  0  0  0  0
    1.0968   -2.0630    0.0000 C   0  0  0  0  0  0  0  0  0  0  0  0
    1.8113   -2.4755    0.0000 C   0  0  0  0  0  0  0  0  0  0  0  0
    2.5258   -2.0630    0.0000 C   0  0  0  0  0  0  0  0  0  0  0  0
    3.2402   -2.4755    0.0000 C   0  0  0  0  0  0  0  0  0  0  0  0
    3.9547   -2.0630    0.0000 C   0  0  0  0  0  0  0  0  0  0  0  0
    3.9547   -1.2380    0.0000 C   0  0  0  0  0  0  0  0  0  0  0  0
    3.2402   -0.8255    0.0000 C   0  0  0  0  0  0  0  0  0  0  0  0
  2  1  1  0  0  0  0
  3  2  2  0  0  0  0
  3  4  1  0  0  0  0
  4  5  2  0  0  0  0
  4  6  1  0  0  0  0
  7  3  1  0  0  0  0
  8  7  2  0  0  0  0
  9  8  1  0  0  0  0
  9  1  1  0  0  0  0
 10  9  2  0  0  0  0
 11 10  1  0  0  0  0
 12 11  2  0  0  0  0
 13 12  1  0  0  0  0
  1 13  2  0  0  0  0
M  END
> <ChemID>
100120

> <CAS>
93-08-3

> <Original_SMILES>
CC(=O)c1cc2ccccc2cc1

> <preferred_name>
2'-Acetonaphthone

> <dsstox_substance_id>
DTXSID2041389

> <dsstox_compound_id>
DTXCID0021389

> <qc_level>
DSSTox_Low

> <Canonical_QSARr>
CC(=O)C1=CC2=CC=CC=C2C=C1

> <InChI_Code_QSARr>
InChI=1S/C12H10O/c1-9(13)11-7-6-10-4-2-3-5-12(10)8-11/h2-8H,1H3

> <InChI Key_QSARr>
XSAYZAUNJMRRIR-UHFFFAOYSA-N

> <Salt_Solvent>


> <Salt_Solvent_ID>
0

> <MPID>
99397

> <KocRef>
Schuurmann-Main

> <LogKOC>
2.93

> <Tr_1_Tst_0>
1

$$$$
100121
  Mrv171c012251911022D          

 10 10  0  0  0  0            999 V2000
    1.4946   -0.5005    0.0000 C   0  0  0  0  0  0  0  0  0  0  0  0
    1.4946   -1.3255    0.0000 C   0  0  0  0  0  0  0  0  0  0  0  0
    0.7801   -1.7380    0.0000 C   0  0  0  0  0  0  0  0  0  0  0  0
    0.7801   -2.5630    0.0000 C   0  0  0  0  0  0  0  0  0  0  0  0
    1.4946   -2.9755    0.0000 C   0  0  0  0  0  0  0  0  0  0  0  0
    2.2091   -2.5630    0.0000 C   0  0  0  0  0  0  0  0  0  0  0  0
    2.2091   -1.7380    0.0000 C   0  0  0  0  0  0  0  0  0  0  0  0
    2.2091   -0.0880    0.0000 O   0  0  0  0  0  0  0  0  0  0  0  0
    2.2091    0.7370    0.0000 C   0  0  0  0  0  0  0  0  0  0  0  0
    0.7801   -0.0880    0.0000 O   0  0  0  0  0  0  0  0  0  0  0  0
  1  2  1  0  0  0  0
  3  2  1  0  0  0  0
  4  3  2  0  0  0  0
  5  4  1  0  0  0  0
  6  5  2  0  0  0  0
  7  6  1  0  0  0  0
  2  7  2  0  0  0  0
  1  8  1  0  0  0  0
  8  9  1  0  0  0  0
  1 10  2  0  0  0  0
M  END
> <ChemID>
100121

> <CAS>
93-58-3

> <Original_SMILES>
COC(=O)c1ccccc1

> <preferred_name>
Methyl benzoate

> <dsstox_substance_id>
DTXSID5025572

> <dsstox_compound_id>
DTXCID405572

> <qc_level>
DSSTox_Low

> <Canonical_QSARr>
COC(=O)C1C=CC=CC=1

> <InChI_Code_QSARr>
InChI=1S/C8H8O2/c1-10-8(9)7-5-3-2-4-6-7/h2-6H,1H3

> <InChI Key_QSARr>
QPJVMBTYPHYUOC-UHFFFAOYSA-N

> <Salt_Solvent>


> <Salt_Solvent_ID>
0

> <MPID>
99398

> <KocRef>
Schuurmann-Main

> <LogKOC>
2.1

> <Tr_1_Tst_0>
1

$$$$
100122
  Mrv171c012251911022D          

 14 14  0  0  0  0            999 V2000
    2.9234   -2.1591    0.0000 O   0  0  0  0  0  0  0  0  0  0  0  0
    2.2089   -2.5716    0.0000 C   0  0  0  0  0  0  0  0  0  0  0  0
    1.4944   -2.1591    0.0000 C   0  0  0  0  0  0  0  0  0  0  0  0
    2.2089   -3.3966    0.0000 C   0  0  0  0  0  0  0  0  0  0  0  0
    1.4944   -3.8091    0.0000 O   0  0  0  0  0  0  0  0  0  0  0  0
    2.9234   -3.8091    0.0000 O   0  0  0  0  0  0  0  0  0  0  0  0
    2.9234   -1.3341    0.0000 C   0  0  0  0  0  0  0  0  0  0  0  0
    3.6378   -0.9216    0.0000 C   0  0  0  0  0  0  0  0  0  0  0  0
    3.6378   -0.0966    0.0000 C   0  0  0  0  0  0  0  0  0  0  0  0
    2.9234    0.3159    0.0000 C   0  0  0  0  0  0  0  0  0  0  0  0
    2.9234    1.1409    0.0000 Cl  0  0  0  0  0  0  0  0  0  0  0  0
    2.2089   -0.0966    0.0000 C   0  0  0  0  0  0  0  0  0  0  0  0
    2.2089   -0.9216    0.0000 C   0  0  0  0  0  0  0  0  0  0  0  0
    1.4944   -1.3341    0.0000 C   0  0  0  0  0  0  0  0  0  0  0  0
  1  2  1  0  0  0  0
  2  3  1  0  0  0  0
  2  4  1  0  0  0  0
  4  5  1  0  0  0  0
  4  6  2  0  0  0  0
  1  7  1  0  0  0  0
  8  7  1  0  0  0  0
  9  8  2  0  0  0  0
 10  9  1  0  0  0  0
 10 11  1  0  0  0  0
 12 10  2  0  0  0  0
 13 12  1  0  0  0  0
  7 13  2  0  0  0  0
 13 14  1  0  0  0  0
M  END
> <ChemID>
100122

> <CAS>
93-65-2

> <Original_SMILES>
Cc1cc(Cl)ccc1OC(C)C(O)=O

> <preferred_name>
Mecoprop

> <dsstox_substance_id>
DTXSID9024194

> <dsstox_compound_id>
DTXCID904194

> <qc_level>
DSSTox_High

> <Canonical_QSARr>
CC1C=C(Cl)C=CC=1OC(C)C(O)=O

> <InChI_Code_QSARr>
InChI=1S/C10H11ClO3/c1-6-5-8(11)3-4-9(6)14-7(2)10(12)13/h3-5,7H,1-2H3,(H,12,13)

> <InChI Key_QSARr>
WNTGYJSOUMFZEP-UHFFFAOYSA-N

> <Salt_Solvent>


> <Salt_Solvent_ID>
0

> <MPID>
99399

> <KocRef>
Schuurmann-Main

> <LogKOC>
1.3

> <Tr_1_Tst_0>
0

$$$$
100123
  Mrv171c012251911022D          

 11 10  0  0  0  0            999 V2000
    1.9317   -2.1744    0.0000 C   0  0  0  0  0  0  0  0  0  0  0  0
    2.6462   -2.5869    0.0000 C   0  0  0  0  0  0  0  0  0  0  0  0
    2.6462   -3.4119    0.0000 Cl  0  0  0  0  0  0  0  0  0  0  0  0
    1.2172   -2.5869    0.0000 O   0  0  0  0  0  0  0  0  0  0  0  0
    1.9317   -1.3494    0.0000 N   0  0  0  0  0  0  0  0  0  0  0  0
    1.2172   -0.9369    0.0000 C   0  0  0  0  0  0  0  0  0  0  0  0
    1.2172   -0.1119    0.0000 C   0  0  0  0  0  0  0  0  0  0  0  0
    0.5027    0.3006    0.0000 C   0  0  0  0  0  0  0  0  0  0  0  0
    2.6462   -0.9369    0.0000 C   0  0  0  0  0  0  0  0  0  0  0  0
    2.6462   -0.1119    0.0000 C   0  0  0  0  0  0  0  0  0  0  0  0
    3.3606    0.3006    0.0000 C   0  0  0  0  0  0  0  0  0  0  0  0
  1  2  1  0  0  0  0
  2  3  1  0  0  0  0
  1  4  2  0  0  0  0
  1  5  1  0  0  0  0
  5  6  1  0  0  0  0
  6  7  1  0  0  0  0
  7  8  2  0  0  0  0
  5  9  1  0  0  0  0
  9 10  1  0  0  0  0
 10 11  2  0  0  0  0
M  END
> <ChemID>
100123

> <CAS>
93-71-0

> <Original_SMILES>
C=CCN(CC=C)C(=O)CCl

> <preferred_name>
Allidochlor

> <dsstox_substance_id>
DTXSID2041591

> <dsstox_compound_id>
DTXCID0021591

> <qc_level>
DSSTox_Low

> <Canonical_QSARr>
C=CCN(CC=C)C(=O)CCl

> <InChI_Code_QSARr>
InChI=1S/C8H12ClNO/c1-3-5-10(6-4-2)8(11)7-9/h3-4H,1-2,5-7H2

> <InChI Key_QSARr>
MDBGGTQNNUOQRC-UHFFFAOYSA-N

> <Salt_Solvent>


> <Salt_Solvent_ID>
0

> <MPID>
99400

> <KocRef>
USDA Pest Prop DB

> <LogKOC>
1.3

> <Tr_1_Tst_0>
1

$$$$
100124
  Mrv171c012251911022D          

 15 15  0  0  0  0            999 V2000
    3.4232   -1.8002    0.0000 Cl  0  0  0  0  0  0  0  0  0  0  0  0
    2.7087   -1.3877    0.0000 C   0  0  0  0  0  0  0  0  0  0  0  0
    2.7087   -0.5627    0.0000 C   0  0  0  0  0  0  0  0  0  0  0  0
    1.9943   -0.1502    0.0000 C   0  0  0  0  0  0  0  0  0  0  0  0
    1.9943    0.6748    0.0000 Cl  0  0  0  0  0  0  0  0  0  0  0  0
    1.2798   -0.5627    0.0000 C   0  0  0  0  0  0  0  0  0  0  0  0
    0.5653   -0.1502    0.0000 Cl  0  0  0  0  0  0  0  0  0  0  0  0
    1.2798   -1.3877    0.0000 C   0  0  0  0  0  0  0  0  0  0  0  0
    1.9943   -1.8002    0.0000 C   0  0  0  0  0  0  0  0  0  0  0  0
    1.9943   -2.6252    0.0000 O   0  0  0  0  0  0  0  0  0  0  0  0
    2.7087   -3.0377    0.0000 C   0  0  0  0  0  0  0  0  0  0  0  0
    3.4232   -2.6252    0.0000 C   0  0  0  0  0  0  0  0  0  0  0  0
    2.7087   -3.8627    0.0000 C   0  0  0  0  0  0  0  0  0  0  0  0
    3.4232   -4.2752    0.0000 O   0  0  0  0  0  0  0  0  0  0  0  0
    1.9943   -4.2752    0.0000 O   0  0  0  0  0  0  0  0  0  0  0  0
  1  2  1  0  0  0  0
  3  2  1  0  0  0  0
  4  3  2  0  0  0  0
  4  5  1  0  0  0  0
  6  4  1  0  0  0  0
  6  7  1  0  0  0  0
  8  6  2  0  0  0  0
  9  8  1  0  0  0  0
  2  9  2  0  0  0  0
  9 10  1  0  0  0  0
 10 11  1  0  0  0  0
 11 12  1  0  0  0  0
 11 13  1  0  0  0  0
 13 14  1  0  0  0  0
 13 15  2  0  0  0  0
M  END
> <ChemID>
100124

> <CAS>
93-72-1

> <Original_SMILES>
CC(Oc1cc(Cl)c(Cl)cc1Cl)C(O)=O

> <preferred_name>
2-(2,4,5-Trichlorophenoxy)propionic acid

> <dsstox_substance_id>
DTXSID0021387

> <dsstox_compound_id>
DTXCID901387

> <qc_level>
DSSTox_High

> <Canonical_QSARr>
CC(OC1C=C(Cl)C(Cl)=CC=1Cl)C(O)=O

> <InChI_Code_QSARr>
InChI=1S/C9H7Cl3O3/c1-4(9(13)14)15-8-3-6(11)5(10)2-7(8)12/h2-4H,1H3,(H,13,14)

> <InChI Key_QSARr>
ZLSWBLPERHFHIS-UHFFFAOYSA-N

> <Salt_Solvent>


> <Salt_Solvent_ID>
0

> <MPID>
99401

> <KocRef>
Schuurmann-Main

> <LogKOC>
1.75

> <Tr_1_Tst_0>
1

$$$$
100125
  Mrv171c012251911022D          

 14 14  0  0  0  0            999 V2000
    3.9798   -1.4153    0.0000 Cl  0  0  0  0  0  0  0  0  0  0  0  0
    3.2653   -1.0028    0.0000 C   0  0  0  0  0  0  0  0  0  0  0  0
    3.2653   -0.1778    0.0000 C   0  0  0  0  0  0  0  0  0  0  0  0
    2.5508    0.2347    0.0000 C   0  0  0  0  0  0  0  0  0  0  0  0
    2.5508    1.0597    0.0000 Cl  0  0  0  0  0  0  0  0  0  0  0  0
    1.8364   -0.1778    0.0000 C   0  0  0  0  0  0  0  0  0  0  0  0
    1.1219    0.2347    0.0000 Cl  0  0  0  0  0  0  0  0  0  0  0  0
    1.8364   -1.0028    0.0000 C   0  0  0  0  0  0  0  0  0  0  0  0
    2.5508   -1.4153    0.0000 C   0  0  0  0  0  0  0  0  0  0  0  0
    2.5508   -2.2403    0.0000 O   0  0  0  0  0  0  0  0  0  0  0  0
    3.2653   -2.6528    0.0000 C   0  0  0  0  0  0  0  0  0  0  0  0
    3.2653   -3.4778    0.0000 C   0  0  0  0  0  0  0  0  0  0  0  0
    3.9798   -3.8903    0.0000 O   0  0  0  0  0  0  0  0  0  0  0  0
    2.5508   -3.8903    0.0000 O   0  0  0  0  0  0  0  0  0  0  0  0
  1  2  1  0  0  0  0
  3  2  1  0  0  0  0
  4  3  2  0  0  0  0
  4  5  1  0  0  0  0
  6  4  1  0  0  0  0
  6  7  1  0  0  0  0
  8  6  2  0  0  0  0
  9  8  1  0  0  0  0
  2  9  2  0  0  0  0
  9 10  1  0  0  0  0
 10 11  1  0  0  0  0
 11 12  1  0  0  0  0
 12 13  1  0  0  0  0
 12 14  2  0  0  0  0
M  END
> <ChemID>
100125

> <CAS>
93-76-5

> <Original_SMILES>
OC(=O)COc1cc(Cl)c(Cl)cc1Cl

> <preferred_name>
2,4,5-Trichlorophenoxyacetic acid

> <dsstox_substance_id>
DTXSID5021388

> <dsstox_compound_id>
DTXCID301388

> <qc_level>
DSSTox_Low

> <Canonical_QSARr>
OC(=O)COC1C=C(Cl)C(Cl)=CC=1Cl

> <InChI_Code_QSARr>
InChI=1S/C8H5Cl3O3/c9-4-1-6(11)7(2-5(4)10)14-3-8(12)13/h1-2H,3H2,(H,12,13)

> <InChI Key_QSARr>
SMYMJHWAQXWPDB-UHFFFAOYSA-N

> <Salt_Solvent>


> <Salt_Solvent_ID>
0

> <MPID>
99402

> <KocRef>
Schuurmann-Main

> <LogKOC>
1.99

> <Tr_1_Tst_0>
1

$$$$
100126
  Mrv171c012251911022D          

 11 11  0  0  0  0            999 V2000
    1.5618   -0.7210    0.0000 C   0  0  0  0  0  0  0  0  0  0  0  0
    2.2763   -0.3085    0.0000 O   0  0  0  0  0  0  0  0  0  0  0  0
    2.2763    0.5165    0.0000 C   0  0  0  0  0  0  0  0  0  0  0  0
    2.9908    0.9290    0.0000 C   0  0  0  0  0  0  0  0  0  0  0  0
    1.5618   -1.5460    0.0000 C   0  0  0  0  0  0  0  0  0  0  0  0
    0.8474   -1.9585    0.0000 C   0  0  0  0  0  0  0  0  0  0  0  0
    0.8474   -2.7835    0.0000 C   0  0  0  0  0  0  0  0  0  0  0  0
    1.5618   -3.1960    0.0000 C   0  0  0  0  0  0  0  0  0  0  0  0
    2.2763   -2.7835    0.0000 C   0  0  0  0  0  0  0  0  0  0  0  0
    2.2763   -1.9585    0.0000 C   0  0  0  0  0  0  0  0  0  0  0  0
    0.8474   -0.3085    0.0000 O   0  0  0  0  0  0  0  0  0  0  0  0
  1  2  1  0  0  0  0
  2  3  1  0  0  0  0
  3  4  1  0  0  0  0
  1  5  1  0  0  0  0
  6  5  1  0  0  0  0
  7  6  2  0  0  0  0
  8  7  1  0  0  0  0
  9  8  2  0  0  0  0
 10  9  1  0  0  0  0
  5 10  2  0  0  0  0
  1 11  2  0  0  0  0
M  END
> <ChemID>
100126

> <CAS>
93-89-0

> <Original_SMILES>
CCOC(=O)c1ccccc1

> <preferred_name>
Ethyl benzoate

> <dsstox_substance_id>
DTXSID3038696

> <dsstox_compound_id>
DTXCID1018696

> <qc_level>
DSSTox_Low

> <Canonical_QSARr>
CCOC(=O)C1C=CC=CC=1

> <InChI_Code_QSARr>
InChI=1S/C9H10O2/c1-2-11-9(10)8-6-4-3-5-7-8/h3-7H,2H2,1H3

> <InChI Key_QSARr>
MTZQAGJQAFMTAQ-UHFFFAOYSA-N

> <Salt_Solvent>


> <Salt_Solvent_ID>
0

> <MPID>
99403

> <KocRef>
Schuurmann-Main

> <LogKOC>
2.3

> <Tr_1_Tst_0>
0

$$$$
100127
  Mrv171c012251911022D          

 15 16  0  0  0  0            999 V2000
    2.7620   -1.1486    0.0000 C   0  0  0  0  0  0  0  0  0  0  0  0
    2.0475   -1.5611    0.0000 O   0  0  0  0  0  0  0  0  0  0  0  0
    2.0475   -2.3861    0.0000 C   0  0  0  0  0  0  0  0  0  0  0  0
    1.3331   -2.7986    0.0000 C   0  0  0  0  0  0  0  0  0  0  0  0
    1.3331   -3.6236    0.0000 C   0  0  0  0  0  0  0  0  0  0  0  0
    2.0475   -4.0361    0.0000 C   0  0  0  0  0  0  0  0  0  0  0  0
    2.7620   -3.6236    0.0000 C   0  0  0  0  0  0  0  0  0  0  0  0
    2.7620   -2.7986    0.0000 C   0  0  0  0  0  0  0  0  0  0  0  0
    2.7620   -0.3236    0.0000 C   0  0  0  0  0  0  0  0  0  0  0  0
    3.4765    0.0889    0.0000 C   0  0  0  0  0  0  0  0  0  0  0  0
    3.4765    0.9139    0.0000 C   0  0  0  0  0  0  0  0  0  0  0  0
    2.7620    1.3264    0.0000 C   0  0  0  0  0  0  0  0  0  0  0  0
    2.0475    0.9139    0.0000 C   0  0  0  0  0  0  0  0  0  0  0  0
    2.0475    0.0889    0.0000 C   0  0  0  0  0  0  0  0  0  0  0  0
    3.4765   -1.5611    0.0000 O   0  0  0  0  0  0  0  0  0  0  0  0
  1  2  1  0  0  0  0
  2  3  1  0  0  0  0
  4  3  1  0  0  0  0
  5  4  2  0  0  0  0
  6  5  1  0  0  0  0
  7  6  2  0  0  0  0
  8  7  1  0  0  0  0
  3  8  2  0  0  0  0
  1  9  1  0  0  0  0
 10  9  1  0  0  0  0
 11 10  2  0  0  0  0
 12 11  1  0  0  0  0
 13 12  2  0  0  0  0
 14 13  1  0  0  0  0
  9 14  2  0  0  0  0
  1 15  2  0  0  0  0
M  END
> <ChemID>
100127

> <CAS>
93-99-2

> <Original_SMILES>
O=C(Oc1ccccc1)c1ccccc1

> <preferred_name>
Phenyl benzoate

> <dsstox_substance_id>
DTXSID0048210

> <dsstox_compound_id>
DTXCID8028185

> <qc_level>
DSSTox_Low

> <Canonical_QSARr>
O=C(OC1C=CC=CC=1)C1C=CC=CC=1

> <InChI_Code_QSARr>
InChI=1S/C13H10O2/c14-13(11-7-3-1-4-8-11)15-12-9-5-2-6-10-12/h1-10H

> <InChI Key_QSARr>
FCJSHPDYVMKCHI-UHFFFAOYSA-N

> <Salt_Solvent>


> <Salt_Solvent_ID>
0

> <MPID>
99404

> <KocRef>
Schuurmann-Main

> <LogKOC>
3.16

> <Tr_1_Tst_0>
1

$$$$
100128
  Mrv171c012251911022D          

 12 12  0  0  0  0            999 V2000
    2.4386   -2.1502    0.0000 C   0  0  0  0  0  0  0  0  0  0  0  0
    1.7242   -2.5627    0.0000 O   0  0  0  0  0  0  0  0  0  0  0  0
    1.7242   -3.3877    0.0000 C   0  0  0  0  0  0  0  0  0  0  0  0
    1.0097   -3.8002    0.0000 C   0  0  0  0  0  0  0  0  0  0  0  0
    2.4386   -1.3252    0.0000 C   0  0  0  0  0  0  0  0  0  0  0  0
    3.1531   -0.9127    0.0000 C   0  0  0  0  0  0  0  0  0  0  0  0
    3.1531   -0.0877    0.0000 C   0  0  0  0  0  0  0  0  0  0  0  0
    2.4386    0.3248    0.0000 C   0  0  0  0  0  0  0  0  0  0  0  0
    2.4386    1.1498    0.0000 C   0  0  0  0  0  0  0  0  0  0  0  0
    1.7242   -0.0877    0.0000 C   0  0  0  0  0  0  0  0  0  0  0  0
    1.7242   -0.9127    0.0000 C   0  0  0  0  0  0  0  0  0  0  0  0
    3.1531   -2.5627    0.0000 O   0  0  0  0  0  0  0  0  0  0  0  0
  1  2  1  0  0  0  0
  2  3  1  0  0  0  0
  3  4  1  0  0  0  0
  1  5  1  0  0  0  0
  6  5  1  0  0  0  0
  7  6  2  0  0  0  0
  8  7  1  0  0  0  0
  8  9  1  0  0  0  0
 10  8  2  0  0  0  0
 11 10  1  0  0  0  0
  5 11  2  0  0  0  0
  1 12  2  0  0  0  0
M  END
> <ChemID>
100128

> <CAS>
94-08-6

> <Original_SMILES>
Cc1ccc(cc1)C(=O)OCC

> <preferred_name>
Ethyl 4-methylbenzoate

> <dsstox_substance_id>
DTXSID5048211

> <dsstox_compound_id>
DTXCID3028186

> <qc_level>
DSSTox_Low

> <Canonical_QSARr>
CC1C=CC(=CC=1)C(=O)OCC

> <InChI_Code_QSARr>
InChI=1S/C10H12O2/c1-3-12-10(11)9-6-4-8(2)5-7-9/h4-7H,3H2,1-2H3

> <InChI Key_QSARr>
NWPWRAWAUYIELB-UHFFFAOYSA-N

> <Salt_Solvent>


> <Salt_Solvent_ID>
0

> <MPID>
99405

> <KocRef>
Schuurmann-Main

> <LogKOC>
2.59

> <Tr_1_Tst_0>
1

$$$$
100129
  Mrv171c012251911022D          

 12 13  0  0  0  0            999 V2000
    5.4704   -0.3431    0.0000 C   0  0  0  0  0  0  0  0  0  0  0  0
    4.7559   -0.7556    0.0000 C   0  0  0  0  0  0  0  0  0  0  0  0
    4.0414   -0.3431    0.0000 C   0  0  0  0  0  0  0  0  0  0  0  0
    3.3270   -0.7556    0.0000 C   0  0  0  0  0  0  0  0  0  0  0  0
    2.6125   -0.3431    0.0000 C   0  0  0  0  0  0  0  0  0  0  0  0
    1.8980   -0.7556    0.0000 C   0  0  0  0  0  0  0  0  0  0  0  0
    1.1134   -0.5006    0.0000 O   0  0  0  0  0  0  0  0  0  0  0  0
    0.6285   -1.1681    0.0000 C   0  0  0  0  0  0  0  0  0  0  0  0
    1.1134   -1.8355    0.0000 O   0  0  0  0  0  0  0  0  0  0  0  0
    1.8980   -1.5806    0.0000 C   0  0  0  0  0  0  0  0  0  0  0  0
    2.6125   -1.9931    0.0000 C   0  0  0  0  0  0  0  0  0  0  0  0
    3.3270   -1.5806    0.0000 C   0  0  0  0  0  0  0  0  0  0  0  0
  1  2  2  0  0  0  0
  2  3  1  0  0  0  0
  3  4  1  0  0  0  0
  5  4  1  0  0  0  0
  6  5  2  0  0  0  0
  6  7  1  0  0  0  0
  7  8  1  0  0  0  0
  8  9  1  0  0  0  0
  9 10  1  0  0  0  0
 10  6  1  0  0  0  0
 11 10  2  0  0  0  0
 12 11  1  0  0  0  0
  4 12  2  0  0  0  0
M  END
> <ChemID>
100129

> <CAS>
94-59-7

> <Original_SMILES>
C=CCc1ccc2OCOc2c1

> <preferred_name>
Safrole

> <dsstox_substance_id>
DTXSID0021254

> <dsstox_compound_id>
DTXCID601254

> <qc_level>
DSSTox_Low

> <Canonical_QSARr>
C=CCC1C=C2OCOC2=CC=1

> <InChI_Code_QSARr>
InChI=1S/C10H10O2/c1-2-3-8-4-5-9-10(6-8)12-7-11-9/h2,4-6H,1,3,7H2

> <InChI Key_QSARr>
ZMQAAUBTXCXRIC-UHFFFAOYSA-N

> <Salt_Solvent>


> <Salt_Solvent_ID>
0

> <MPID>
99406

> <KocRef>
Schuurmann-Main

> <LogKOC>
2.83

> <Tr_1_Tst_0>
1

$$$$
100130
  Mrv171c012251911022D          

 13 13  0  0  0  0            999 V2000
    4.1301   -1.3647    0.0000 C   0  0  0  0  0  0  0  0  0  0  0  0
    4.8446   -1.7772    0.0000 C   0  0  0  0  0  0  0  0  0  0  0  0
    4.1301   -0.5397    0.0000 C   0  0  0  0  0  0  0  0  0  0  0  0
    3.4156   -0.1272    0.0000 C   0  0  0  0  0  0  0  0  0  0  0  0
    3.4156    0.6978    0.0000 Cl  0  0  0  0  0  0  0  0  0  0  0  0
    2.7012   -0.5397    0.0000 C   0  0  0  0  0  0  0  0  0  0  0  0
    2.7012   -1.3647    0.0000 C   0  0  0  0  0  0  0  0  0  0  0  0
    3.4156   -1.7772    0.0000 C   0  0  0  0  0  0  0  0  0  0  0  0
    3.4156   -2.6022    0.0000 O   0  0  0  0  0  0  0  0  0  0  0  0
    4.1301   -3.0147    0.0000 C   0  0  0  0  0  0  0  0  0  0  0  0
    4.1301   -3.8397    0.0000 C   0  0  0  0  0  0  0  0  0  0  0  0
    4.8446   -4.2522    0.0000 O   0  0  0  0  0  0  0  0  0  0  0  0
    3.4156   -4.2522    0.0000 O   0  0  0  0  0  0  0  0  0  0  0  0
  1  2  1  0  0  0  0
  3  1  1  0  0  0  0
  4  3  2  0  0  0  0
  4  5  1  0  0  0  0
  6  4  1  0  0  0  0
  7  6  2  0  0  0  0
  8  7  1  0  0  0  0
  1  8  2  0  0  0  0
  8  9  1  0  0  0  0
  9 10  1  0  0  0  0
 10 11  1  0  0  0  0
 11 12  1  0  0  0  0
 11 13  2  0  0  0  0
M  END
> <ChemID>
100130

> <CAS>
94-74-6

> <Original_SMILES>
Cc1cc(Cl)ccc1OCC(O)=O

> <preferred_name>
MCPA

> <dsstox_substance_id>
DTXSID4024195

> <dsstox_compound_id>
DTXCID304195

> <qc_level>
DSSTox_High

> <Canonical_QSARr>
CC1C=C(Cl)C=CC=1OCC(O)=O

> <InChI_Code_QSARr>
InChI=1S/C9H9ClO3/c1-6-4-7(10)2-3-8(6)13-5-9(11)12/h2-4H,5H2,1H3,(H,11,12)

> <InChI Key_QSARr>
WHKUVVPPKQRRBV-UHFFFAOYSA-N

> <Salt_Solvent>


> <Salt_Solvent_ID>
0

> <MPID>
99407

> <KocRef>
Schuurmann-Main

> <LogKOC>
1.73

> <Tr_1_Tst_0>
0

$$$$
100131
  Mrv171c012251911022D          

 13 13  0  0  0  0            999 V2000
    3.0176   -3.3906    0.0000 C   0  0  0  0  0  0  0  0  0  0  0  0
    3.0176   -2.5656    0.0000 C   0  0  0  0  0  0  0  0  0  0  0  0
    2.3031   -2.1531    0.0000 O   0  0  0  0  0  0  0  0  0  0  0  0
    2.3031   -1.3281    0.0000 C   0  0  0  0  0  0  0  0  0  0  0  0
    3.0176   -0.9156    0.0000 C   0  0  0  0  0  0  0  0  0  0  0  0
    3.0176   -0.0906    0.0000 C   0  0  0  0  0  0  0  0  0  0  0  0
    2.3031    0.3219    0.0000 C   0  0  0  0  0  0  0  0  0  0  0  0
    2.3031    1.1469    0.0000 Cl  0  0  0  0  0  0  0  0  0  0  0  0
    1.5887   -0.0906    0.0000 C   0  0  0  0  0  0  0  0  0  0  0  0
    1.5887   -0.9156    0.0000 C   0  0  0  0  0  0  0  0  0  0  0  0
    0.8742   -1.3281    0.0000 Cl  0  0  0  0  0  0  0  0  0  0  0  0
    3.7321   -3.8031    0.0000 O   0  0  0  0  0  0  0  0  0  0  0  0
    2.3031   -3.8031    0.0000 O   0  0  0  0  0  0  0  0  0  0  0  0
  1  2  1  0  0  0  0
  2  3  1  0  0  0  0
  3  4  1  0  0  0  0
  5  4  1  0  0  0  0
  6  5  2  0  0  0  0
  7  6  1  0  0  0  0
  7  8  1  0  0  0  0
  9  7  2  0  0  0  0
 10  9  1  0  0  0  0
  4 10  2  0  0  0  0
 10 11  1  0  0  0  0
  1 12  1  0  0  0  0
  1 13  2  0  0  0  0
M  END
> <ChemID>
100131

> <CAS>
94-75-7

> <Original_SMILES>
OC(=O)COc1ccc(Cl)cc1Cl

> <preferred_name>
2,4-Dichlorophenoxyacetic acid

> <dsstox_substance_id>
DTXSID0020442

> <dsstox_compound_id>
DTXCID80442

> <qc_level>
DSSTox_High

> <Canonical_QSARr>
OC(=O)COC1C=CC(Cl)=CC=1Cl

> <InChI_Code_QSARr>
InChI=1S/C8H6Cl2O3/c9-5-1-2-7(6(10)3-5)13-4-8(11)12/h1-3H,4H2,(H,11,12)

> <InChI Key_QSARr>
OVSKIKFHRZPJSS-UHFFFAOYSA-N

> <Salt_Solvent>


> <Salt_Solvent_ID>
0

> <MPID>
99408

> <KocRef>
Schuurmann-Main

> <LogKOC>
1.66

> <Tr_1_Tst_0>
1

$$$$
100132
  Mrv171c012251911022D          

 16 17  0  0  0  0            999 V2000
    3.8032   -0.0563    0.0000 C   0  0  0  0  0  0  0  0  0  0  0  0
    3.8032   -0.8813    0.0000 N   0  0  0  0  0  0  0  0  0  0  0  0
    3.0887   -1.2938    0.0000 N   0  0  0  0  0  0  0  0  0  0  0  0
    3.0887   -2.1188    0.0000 C   0  0  0  0  0  0  0  0  0  0  0  0
    2.3742   -2.5313    0.0000 C   0  0  0  0  0  0  0  0  0  0  0  0
    2.3742   -3.3563    0.0000 C   0  0  0  0  0  0  0  0  0  0  0  0
    3.0887   -3.7688    0.0000 C   0  0  0  0  0  0  0  0  0  0  0  0
    3.8032   -3.3563    0.0000 C   0  0  0  0  0  0  0  0  0  0  0  0
    3.8032   -2.5313    0.0000 C   0  0  0  0  0  0  0  0  0  0  0  0
    4.5176    0.3562    0.0000 C   0  0  0  0  0  0  0  0  0  0  0  0
    4.5176    1.1812    0.0000 C   0  0  0  0  0  0  0  0  0  0  0  0
    3.8032    1.5937    0.0000 C   0  0  0  0  0  0  0  0  0  0  0  0
    3.8032    2.4187    0.0000 N   0  0  0  0  0  0  0  0  0  0  0  0
    3.0887    1.1812    0.0000 N   0  0  0  0  0  0  0  0  0  0  0  0
    3.0887    0.3562    0.0000 C   0  0  0  0  0  0  0  0  0  0  0  0
    2.3742   -0.0563    0.0000 N   0  0  0  0  0  0  0  0  0  0  0  0
  2  1  1  4  0  0  0
  2  3  2  0  0  0  0
  3  4  1  0  0  0  0
  5  4  1  0  0  0  0
  6  5  2  0  0  0  0
  7  6  1  0  0  0  0
  8  7  2  0  0  0  0
  9  8  1  0  0  0  0
  4  9  2  0  0  0  0
 10  1  2  0  0  0  0
 11 10  1  0  0  0  0
 12 11  2  0  0  0  0
 12 13  1  0  0  0  0
 14 12  1  0  0  0  0
 15 14  2  0  0  0  0
  1 15  1  0  0  0  0
 15 16  1  0  0  0  0
M  END
> <ChemID>
100132

> <CAS>
94-78-0

> <Original_SMILES>
Nc1ccc(N=Nc2ccccc2)c(N)[n]1

> <preferred_name>
Phenazopyridine

> <dsstox_substance_id>
DTXSID1023445

> <dsstox_compound_id>
DTXCID303445

> <qc_level>
DSSTox_Low

> <Canonical_QSARr>
NC1=CC=C(N=NC2C=CC=CC=2)C(N)=N1

> <InChI_Code_QSARr>
InChI=1S/C11H11N5/c12-10-7-6-9(11(13)14-10)16-15-8-4-2-1-3-5-8/h1-7H,(H4,12,13,14)

> <InChI Key_QSARr>
QPFYXYFORQJZEC-UHFFFAOYSA-N

> <Salt_Solvent>


> <Salt_Solvent_ID>
0

> <MPID>
99409

> <KocRef>
Schuurmann-Main

> <LogKOC>
2.32

> <Tr_1_Tst_0>
1

$$$$
100133
  Mrv171c012251911022D          

 15 15  0  0  0  0            999 V2000
    1.6405   -4.1439    0.0000 C   0  0  0  0  0  0  0  0  0  0  0  0
    0.9260   -3.7314    0.0000 O   0  0  0  0  0  0  0  0  0  0  0  0
    1.6405   -4.9689    0.0000 O   0  0  0  0  0  0  0  0  0  0  0  0
    2.3549   -3.7314    0.0000 C   0  0  0  0  0  0  0  0  0  0  0  0
    3.0694   -4.1439    0.0000 C   0  0  0  0  0  0  0  0  0  0  0  0
    3.7839   -3.7314    0.0000 C   0  0  0  0  0  0  0  0  0  0  0  0
    4.4983   -4.1439    0.0000 O   0  0  0  0  0  0  0  0  0  0  0  0
    5.2128   -3.7314    0.0000 C   0  0  0  0  0  0  0  0  0  0  0  0
    5.9273   -4.1439    0.0000 C   0  0  0  0  0  0  0  0  0  0  0  0
    6.6418   -3.7314    0.0000 C   0  0  0  0  0  0  0  0  0  0  0  0
    6.6418   -2.9064    0.0000 C   0  0  0  0  0  0  0  0  0  0  0  0
    7.3562   -2.4939    0.0000 Cl  0  0  0  0  0  0  0  0  0  0  0  0
    5.9273   -2.4939    0.0000 C   0  0  0  0  0  0  0  0  0  0  0  0
    5.2128   -2.9064    0.0000 C   0  0  0  0  0  0  0  0  0  0  0  0
    4.4983   -2.4939    0.0000 C   0  0  0  0  0  0  0  0  0  0  0  0
  1  2  2  0  0  0  0
  1  3  1  0  0  0  0
  1  4  1  0  0  0  0
  4  5  1  0  0  0  0
  5  6  1  0  0  0  0
  6  7  1  0  0  0  0
  7  8  1  0  0  0  0
  9  8  1  0  0  0  0
 10  9  2  0  0  0  0
 11 10  1  0  0  0  0
 11 12  1  0  0  0  0
 13 11  2  0  0  0  0
 14 13  1  0  0  0  0
  8 14  2  0  0  0  0
 14 15  1  0  0  0  0
M  END
> <ChemID>
100133

> <CAS>
94-81-5

> <Original_SMILES>
Cc1cc(Cl)ccc1OCCCC(O)=O

> <preferred_name>
MCPB

> <dsstox_substance_id>
DTXSID4024193

> <dsstox_compound_id>
DTXCID504193

> <qc_level>
DSSTox_Low

> <Canonical_QSARr>
CC1C=C(Cl)C=CC=1OCCCC(O)=O

> <InChI_Code_QSARr>
InChI=1S/C11H13ClO3/c1-8-7-9(12)4-5-10(8)15-6-2-3-11(13)14/h4-5,7H,2-3,6H2,1H3,(H,13,14)

> <InChI Key_QSARr>
LLWADFLAOKUBDR-UHFFFAOYSA-N

> <Salt_Solvent>


> <Salt_Solvent_ID>
0

> <MPID>
99410

> <KocRef>
USDA Pest Prop DB

> <LogKOC>
2.73

> <Tr_1_Tst_0>
1

$$$$
100134
  Mrv171c012251911022D          

  9 10  0  0  0  0            999 V2000
    0.4836   -1.4904    0.0000 N   0  0  0  0  0  0  0  0  0  0  0  0
   -0.0014   -0.8230    0.0000 N   0  0  0  0  0  0  0  0  0  0  0  0
    0.4836   -0.1556    0.0000 N   0  0  0  0  0  0  0  0  0  0  0  0
    1.2682   -0.4105    0.0000 C   0  0  0  0  0  0  0  0  0  0  0  0
    1.9827    0.0020    0.0000 C   0  0  0  0  0  0  0  0  0  0  0  0
    2.6971   -0.4105    0.0000 C   0  0  0  0  0  0  0  0  0  0  0  0
    2.6971   -1.2355    0.0000 C   0  0  0  0  0  0  0  0  0  0  0  0
    1.9827   -1.6480    0.0000 C   0  0  0  0  0  0  0  0  0  0  0  0
    1.2682   -1.2355    0.0000 C   0  0  0  0  0  0  0  0  0  0  0  0
  2  1  1  0  0  0  0
  3  2  2  0  0  0  0
  4  3  1  0  0  0  0
  4  5  1  0  0  0  0
  5  6  2  0  0  0  0
  6  7  1  0  0  0  0
  7  8  2  0  0  0  0
  8  9  1  0  0  0  0
  1  9  1  0  0  0  0
  9  4  2  0  0  0  0
M  END
> <ChemID>
100134

> <CAS>
95-14-7

> <Original_SMILES>
c1cccc2[nH][n][n]c21

> <preferred_name>
1,2,3-Benzotriazole

> <dsstox_substance_id>
DTXSID6020147

> <dsstox_compound_id>
DTXCID00147

> <qc_level>
DSSTox_Low

> <Canonical_QSARr>
C1=CC=CC2NN=NC=21

> <InChI_Code_QSARr>
InChI=1S/C6H5N3/c1-2-4-6-5(3-1)7-9-8-6/h1-4H,(H,7,8,9)

> <InChI Key_QSARr>
QRUDEWIWKLJBPS-UHFFFAOYSA-N

> <Salt_Solvent>


> <Salt_Solvent_ID>
0

> <MPID>
99411

> <KocRef>
Schuurmann-Main

> <LogKOC>
1.69

> <Tr_1_Tst_0>
0

$$$$
100135
  Mrv171c012251911022D          

  9 10  0  0  0  0            999 V2000
    0.3239   -1.4946    0.0000 S   0  0  0  0  0  0  0  0  0  0  0  0
   -0.1611   -0.8272    0.0000 C   0  0  0  0  0  0  0  0  0  0  0  0
    0.3239   -0.1597    0.0000 C   0  0  0  0  0  0  0  0  0  0  0  0
    1.1085   -0.4147    0.0000 C   0  0  0  0  0  0  0  0  0  0  0  0
    1.8229   -0.0022    0.0000 C   0  0  0  0  0  0  0  0  0  0  0  0
    2.5374   -0.4147    0.0000 C   0  0  0  0  0  0  0  0  0  0  0  0
    2.5374   -1.2397    0.0000 C   0  0  0  0  0  0  0  0  0  0  0  0
    1.8229   -1.6522    0.0000 C   0  0  0  0  0  0  0  0  0  0  0  0
    1.1085   -1.2397    0.0000 C   0  0  0  0  0  0  0  0  0  0  0  0
  2  1  1  0  0  0  0
  3  2  2  0  0  0  0
  4  3  1  0  0  0  0
  4  5  1  0  0  0  0
  5  6  2  0  0  0  0
  6  7  1  0  0  0  0
  7  8  2  0  0  0  0
  8  9  1  0  0  0  0
  1  9  1  0  0  0  0
  9  4  2  0  0  0  0
M  END
> <ChemID>
100135

> <CAS>
95-15-8

> <Original_SMILES>
c1cccc2[s]ccc21

> <preferred_name>
Benzothiophene

> <dsstox_substance_id>
DTXSID2052736

> <dsstox_compound_id>
DTXCID9031276

> <qc_level>
DSSTox_High

> <Canonical_QSARr>
C1=CC=CC2SC=CC=21

> <InChI_Code_QSARr>
InChI=1S/C8H6S/c1-2-4-8-7(3-1)5-6-9-8/h1-6H

> <InChI Key_QSARr>
FCEHBMOGCRZNNI-UHFFFAOYSA-N

> <Salt_Solvent>


> <Salt_Solvent_ID>
0

> <MPID>
99412

> <KocRef>
Schuurmann-Main

> <LogKOC>
3.48

> <Tr_1_Tst_0>
1

$$$$
100136
  Mrv171c012251911022D          

  8  8  0  0  0  0            999 V2000
    0.3589   -2.0602    0.0000 C   0  0  0  0  0  0  0  0  0  0  0  0
    1.0734   -2.4727    0.0000 C   0  0  0  0  0  0  0  0  0  0  0  0
    1.7879   -2.0602    0.0000 C   0  0  0  0  0  0  0  0  0  0  0  0
    1.7879   -1.2352    0.0000 C   0  0  0  0  0  0  0  0  0  0  0  0
    1.0734   -0.8227    0.0000 C   0  0  0  0  0  0  0  0  0  0  0  0
    1.0734    0.0023    0.0000 C   0  0  0  0  0  0  0  0  0  0  0  0
    0.3589   -1.2352    0.0000 C   0  0  0  0  0  0  0  0  0  0  0  0
   -0.3556   -0.8227    0.0000 C   0  0  0  0  0  0  0  0  0  0  0  0
  2  1  2  0  0  0  0
  3  2  1  0  0  0  0
  4  3  2  0  0  0  0
  5  4  1  0  0  0  0
  5  6  1  0  0  0  0
  7  5  2  0  0  0  0
  1  7  1  0  0  0  0
  7  8  1  0  0  0  0
M  END
> <ChemID>
100136

> <CAS>
95-47-6

> <Original_SMILES>
Cc1ccccc1C

> <preferred_name>
o-Xylene

> <dsstox_substance_id>
DTXSID3021807

> <dsstox_compound_id>
DTXCID501807

> <qc_level>
DSSTox_Low

> <Canonical_QSARr>
CC1C=CC=CC=1C

> <InChI_Code_QSARr>
InChI=1S/C8H10/c1-7-5-3-4-6-8(7)2/h3-6H,1-2H3

> <InChI Key_QSARr>
CTQNGGLPUBDAKN-UHFFFAOYSA-N

> <Salt_Solvent>


> <Salt_Solvent_ID>
0

> <MPID>
99413

> <KocRef>
SRC 1992 NonPolar Val

> <LogKOC>
2.25

> <Tr_1_Tst_0>
1

$$$$
100137
  Mrv171c012251911022D          

  8  8  0  0  0  0            999 V2000
    0.0913   -0.7358    0.0000 Cl  0  0  0  0  0  0  0  0  0  0  0  0
    0.8057   -1.1483    0.0000 C   0  0  0  0  0  0  0  0  0  0  0  0
    0.8057   -1.9733    0.0000 C   0  0  0  0  0  0  0  0  0  0  0  0
    1.5202   -2.3858    0.0000 C   0  0  0  0  0  0  0  0  0  0  0  0
    2.2347   -1.9733    0.0000 C   0  0  0  0  0  0  0  0  0  0  0  0
    2.2347   -1.1483    0.0000 C   0  0  0  0  0  0  0  0  0  0  0  0
    1.5202   -0.7358    0.0000 C   0  0  0  0  0  0  0  0  0  0  0  0
    1.5202    0.0892    0.0000 Cl  0  0  0  0  0  0  0  0  0  0  0  0
  1  2  1  0  0  0  0
  3  2  1  0  0  0  0
  4  3  2  0  0  0  0
  5  4  1  0  0  0  0
  6  5  2  0  0  0  0
  7  6  1  0  0  0  0
  2  7  2  0  0  0  0
  7  8  1  0  0  0  0
M  END
> <ChemID>
100137

> <CAS>
95-50-1

> <Original_SMILES>
Clc1ccccc1Cl

> <preferred_name>
1,2-Dichlorobenzene

> <dsstox_substance_id>
DTXSID6020430

> <dsstox_compound_id>
DTXCID00430

> <qc_level>
DSSTox_Low

> <Canonical_QSARr>
ClC1C=CC=CC=1Cl

> <InChI_Code_QSARr>
InChI=1S/C6H4Cl2/c7-5-3-1-2-4-6(5)8/h1-4H

> <InChI Key_QSARr>
RFFLAFLAYFXFSW-UHFFFAOYSA-N

> <Salt_Solvent>


> <Salt_Solvent_ID>
0

> <MPID>
99414

> <KocRef>
SRC 1992 Non-Polar

> <LogKOC>
2.56

> <Tr_1_Tst_0>
1

$$$$
100138
  Mrv171c012251911022D          

  8  8  0  0  0  0            999 V2000
    2.3863   -0.7358    0.0000 O   0  0  0  0  0  0  0  0  0  0  0  0
    1.6718   -1.1483    0.0000 C   0  0  0  0  0  0  0  0  0  0  0  0
    0.9573   -0.7358    0.0000 C   0  0  0  0  0  0  0  0  0  0  0  0
    0.9573    0.0892    0.0000 Cl  0  0  0  0  0  0  0  0  0  0  0  0
    0.2429   -1.1483    0.0000 C   0  0  0  0  0  0  0  0  0  0  0  0
    0.2429   -1.9733    0.0000 C   0  0  0  0  0  0  0  0  0  0  0  0
    0.9573   -2.3858    0.0000 C   0  0  0  0  0  0  0  0  0  0  0  0
    1.6718   -1.9733    0.0000 C   0  0  0  0  0  0  0  0  0  0  0  0
  1  2  1  0  0  0  0
  3  2  1  0  0  0  0
  3  4  1  0  0  0  0
  5  3  2  0  0  0  0
  6  5  1  0  0  0  0
  7  6  2  0  0  0  0
  8  7  1  0  0  0  0
  2  8  2  0  0  0  0
M  END
> <ChemID>
100138

> <CAS>
95-57-8

> <Original_SMILES>
Oc1ccccc1Cl

> <preferred_name>
2-Chlorophenol

> <dsstox_substance_id>
DTXSID5021544

> <dsstox_compound_id>
DTXCID901544

> <qc_level>
DSSTox_Low

> <Canonical_QSARr>
OC1=CC=CC=C1Cl

> <InChI_Code_QSARr>
InChI=1S/C6H5ClO/c7-5-3-1-2-4-6(5)8/h1-4,8H

> <InChI Key_QSARr>
ISPYQTSUDJAMAB-UHFFFAOYSA-N

> <Salt_Solvent>


> <Salt_Solvent_ID>
0

> <MPID>
99415

> <KocRef>
Schuurmann-Main

> <LogKOC>
2.6

> <Tr_1_Tst_0>
0

$$$$
100139
  Mrv171c012251911022D          

  9  9  0  0  0  0            999 V2000
    1.4296   -2.6583    0.0000 N   0  0  0  0  0  0  0  0  0  0  0  0
    1.4296   -1.8333    0.0000 C   0  0  0  0  0  0  0  0  0  0  0  0
    2.1441   -1.4208    0.0000 C   0  0  0  0  0  0  0  0  0  0  0  0
    2.1441   -0.5958    0.0000 C   0  0  0  0  0  0  0  0  0  0  0  0
    1.4296   -0.1833    0.0000 C   0  0  0  0  0  0  0  0  0  0  0  0
    1.4296    0.6417    0.0000 Cl  0  0  0  0  0  0  0  0  0  0  0  0
    0.7151   -0.5958    0.0000 C   0  0  0  0  0  0  0  0  0  0  0  0
    0.0007   -0.1833    0.0000 Cl  0  0  0  0  0  0  0  0  0  0  0  0
    0.7151   -1.4208    0.0000 C   0  0  0  0  0  0  0  0  0  0  0  0
  1  2  1  0  0  0  0
  3  2  1  0  0  0  0
  4  3  2  0  0  0  0
  5  4  1  0  0  0  0
  5  6  1  0  0  0  0
  7  5  2  0  0  0  0
  7  8  1  0  0  0  0
  9  7  1  0  0  0  0
  2  9  2  0  0  0  0
M  END
> <ChemID>
100139

> <CAS>
95-76-1

> <Original_SMILES>
Nc1cc(Cl)c(Cl)cc1

> <preferred_name>
3,4-Dichloroaniline

> <dsstox_substance_id>
DTXSID7021815

> <dsstox_compound_id>
DTXCID001815

> <qc_level>
DSSTox_Low

> <Canonical_QSARr>
NC1=CC(Cl)=C(Cl)C=C1

> <InChI_Code_QSARr>
InChI=1S/C6H5Cl2N/c7-5-2-1-4(9)3-6(5)8/h1-3H,9H2

> <InChI Key_QSARr>
SDYWXFYBZPNOFX-UHFFFAOYSA-N

> <Salt_Solvent>


> <Salt_Solvent_ID>
0

> <MPID>
99416

> <KocRef>
Schuurmann-Main

> <LogKOC>
2.29

> <Tr_1_Tst_0>
1

$$$$
100140
  Mrv171c012251911022D          

  9  9  0  0  0  0            999 V2000
    2.8587   -0.1833    0.0000 Cl  0  0  0  0  0  0  0  0  0  0  0  0
    2.1442   -0.5958    0.0000 C   0  0  0  0  0  0  0  0  0  0  0  0
    1.4298   -0.1833    0.0000 C   0  0  0  0  0  0  0  0  0  0  0  0
    1.4298    0.6417    0.0000 Cl  0  0  0  0  0  0  0  0  0  0  0  0
    0.7153   -0.5958    0.0000 C   0  0  0  0  0  0  0  0  0  0  0  0
    0.7153   -1.4208    0.0000 C   0  0  0  0  0  0  0  0  0  0  0  0
    1.4298   -1.8333    0.0000 C   0  0  0  0  0  0  0  0  0  0  0  0
    1.4298   -2.6583    0.0000 O   0  0  0  0  0  0  0  0  0  0  0  0
    2.1442   -1.4208    0.0000 C   0  0  0  0  0  0  0  0  0  0  0  0
  1  2  1  0  0  0  0
  3  2  1  0  0  0  0
  3  4  1  0  0  0  0
  5  3  2  0  0  0  0
  6  5  1  0  0  0  0
  7  6  2  0  0  0  0
  7  8  1  0  0  0  0
  9  7  1  0  0  0  0
  2  9  2  0  0  0  0
M  END
> <ChemID>
100140

> <CAS>
95-77-2

> <Original_SMILES>
Oc1cc(Cl)c(Cl)cc1

> <preferred_name>
3,4-Dichlorophenol

> <dsstox_substance_id>
DTXSID7025005

> <dsstox_compound_id>
DTXCID505005

> <qc_level>
DSSTox_Low

> <Canonical_QSARr>
OC1C=C(Cl)C(Cl)=CC=1

> <InChI_Code_QSARr>
InChI=1S/C6H4Cl2O/c7-5-2-1-4(9)3-6(5)8/h1-3,9H

> <InChI Key_QSARr>
WDNBURPWRNALGP-UHFFFAOYSA-N

> <Salt_Solvent>


> <Salt_Solvent_ID>
0

> <MPID>
99417

> <KocRef>
Schuurmann-Main

> <LogKOC>
3.09

> <Tr_1_Tst_0>
1

$$$$
100141
  Mrv171c012251911022D          

 10 10  0  0  0  0            999 V2000
    1.5453   -1.0160    0.0000 C   0  0  0  0  0  0  0  0  0  0  0  0
    2.2598   -0.6035    0.0000 C   0  0  0  0  0  0  0  0  0  0  0  0
    0.8308   -0.6035    0.0000 C   0  0  0  0  0  0  0  0  0  0  0  0
    0.8308    0.2215    0.0000 C   0  0  0  0  0  0  0  0  0  0  0  0
    0.1164   -1.0160    0.0000 C   0  0  0  0  0  0  0  0  0  0  0  0
    0.1164   -1.8410    0.0000 C   0  0  0  0  0  0  0  0  0  0  0  0
   -0.5981   -2.2535    0.0000 C   0  0  0  0  0  0  0  0  0  0  0  0
    0.8308   -2.2535    0.0000 C   0  0  0  0  0  0  0  0  0  0  0  0
    0.8308   -3.0785    0.0000 C   0  0  0  0  0  0  0  0  0  0  0  0
    1.5453   -1.8410    0.0000 C   0  0  0  0  0  0  0  0  0  0  0  0
  1  2  1  0  0  0  0
  3  1  1  0  0  0  0
  3  4  1  0  0  0  0
  5  3  2  0  0  0  0
  6  5  1  0  0  0  0
  6  7  1  0  0  0  0
  8  6  2  0  0  0  0
  8  9  1  0  0  0  0
 10  8  1  0  0  0  0
  1 10  2  0  0  0  0
M  END
> <ChemID>
100141

> <CAS>
95-93-2

> <Original_SMILES>
Cc1cc(C)c(C)cc1C

> <preferred_name>
1,2,4,5-Tetramethylbenzene

> <dsstox_substance_id>
DTXSID1029124

> <dsstox_compound_id>
DTXCID309124

> <qc_level>
DSSTox_Low

> <Canonical_QSARr>
CC1C=C(C)C(C)=CC=1C

> <InChI_Code_QSARr>
InChI=1S/C10H14/c1-7-5-9(3)10(4)6-8(7)2/h5-6H,1-4H3

> <InChI Key_QSARr>
SQNZJJAZBFDUTD-UHFFFAOYSA-N

> <Salt_Solvent>


> <Salt_Solvent_ID>
0

> <MPID>
99418

> <KocRef>
SRC 1992 Non-Polar

> <LogKOC>
3.12

> <Tr_1_Tst_0>
1

$$$$
100142
  Mrv171c012251911022D          

 10 10  0  0  0  0            999 V2000
    3.0867   -0.6079    0.0000 Cl  0  0  0  0  0  0  0  0  0  0  0  0
    2.3722   -1.0204    0.0000 C   0  0  0  0  0  0  0  0  0  0  0  0
    1.6577   -0.6079    0.0000 C   0  0  0  0  0  0  0  0  0  0  0  0
    1.6577    0.2171    0.0000 Cl  0  0  0  0  0  0  0  0  0  0  0  0
    0.9433   -1.0204    0.0000 C   0  0  0  0  0  0  0  0  0  0  0  0
    0.9433   -1.8454    0.0000 C   0  0  0  0  0  0  0  0  0  0  0  0
    0.2288   -2.2579    0.0000 Cl  0  0  0  0  0  0  0  0  0  0  0  0
    1.6577   -2.2579    0.0000 C   0  0  0  0  0  0  0  0  0  0  0  0
    1.6577   -3.0829    0.0000 Cl  0  0  0  0  0  0  0  0  0  0  0  0
    2.3722   -1.8454    0.0000 C   0  0  0  0  0  0  0  0  0  0  0  0
  1  2  1  0  0  0  0
  3  2  2  0  0  0  0
  3  4  1  0  0  0  0
  5  3  1  0  0  0  0
  6  5  2  0  0  0  0
  6  7  1  0  0  0  0
  8  6  1  0  0  0  0
  8  9  1  0  0  0  0
 10  8  2  0  0  0  0
  2 10  1  0  0  0  0
M  END
> <ChemID>
100142

> <CAS>
95-94-3

> <Original_SMILES>
Clc1cc(Cl)c(Cl)cc1Cl

> <preferred_name>
1,2,4,5-Tetrachlorobenzene

> <dsstox_substance_id>
DTXSID7024320

> <dsstox_compound_id>
DTXCID604320

> <qc_level>
DSSTox_Low

> <Canonical_QSARr>
ClC1C=C(Cl)C(Cl)=CC=1Cl

> <InChI_Code_QSARr>
InChI=1S/C6H2Cl4/c7-3-1-4(8)6(10)2-5(3)9/h1-2H

> <InChI Key_QSARr>
JHBKHLUZVFWLAG-UHFFFAOYSA-N

> <Salt_Solvent>


> <Salt_Solvent_ID>
0

> <MPID>
99419

> <KocRef>
Nguyen-Baker avg

> <LogKOC>
4.1

> <Tr_1_Tst_0>
0

$$$$
100143
  Mrv171c012251911022D          

 10 10  0  0  0  0            999 V2000
    2.8552   -1.6506    0.0000 Cl  0  0  0  0  0  0  0  0  0  0  0  0
    2.1408   -1.2381    0.0000 C   0  0  0  0  0  0  0  0  0  0  0  0
    2.1408   -0.4131    0.0000 C   0  0  0  0  0  0  0  0  0  0  0  0
    1.4263   -0.0006    0.0000 C   0  0  0  0  0  0  0  0  0  0  0  0
    1.4263    0.8244    0.0000 Cl  0  0  0  0  0  0  0  0  0  0  0  0
    0.7118   -0.4131    0.0000 C   0  0  0  0  0  0  0  0  0  0  0  0
   -0.0026   -0.0006    0.0000 Cl  0  0  0  0  0  0  0  0  0  0  0  0
    0.7118   -1.2381    0.0000 C   0  0  0  0  0  0  0  0  0  0  0  0
    1.4263   -1.6506    0.0000 C   0  0  0  0  0  0  0  0  0  0  0  0
    1.4263   -2.4756    0.0000 O   0  0  0  0  0  0  0  0  0  0  0  0
  1  2  1  0  0  0  0
  3  2  1  0  0  0  0
  4  3  2  0  0  0  0
  4  5  1  0  0  0  0
  6  4  1  0  0  0  0
  6  7  1  0  0  0  0
  8  6  2  0  0  0  0
  9  8  1  0  0  0  0
  2  9  2  0  0  0  0
  9 10  1  0  0  0  0
M  END
> <ChemID>
100143

> <CAS>
95-95-4

> <Original_SMILES>
Oc1cc(Cl)c(Cl)cc1Cl

> <preferred_name>
2,4,5-Trichlorophenol

> <dsstox_substance_id>
DTXSID4024359

> <dsstox_compound_id>
DTXCID104359

> <qc_level>
DSSTox_High

> <Canonical_QSARr>
OC1C=C(Cl)C(Cl)=CC=1Cl

> <InChI_Code_QSARr>
InChI=1S/C6H3Cl3O/c7-3-1-5(9)6(10)2-4(3)8/h1-2,10H

> <InChI Key_QSARr>
LHJGJYXLEPZJPM-UHFFFAOYSA-N

> <Salt_Solvent>


> <Salt_Solvent_ID>
0

> <MPID>
99420

> <KocRef>
Schuurmann-Main

> <LogKOC>
3.36

> <Tr_1_Tst_0>
1

$$$$
100144
  Mrv171c012251911022D          

  6  5  0  0  0  0            999 V2000
    0.8266   -1.6670    0.0000 Br  0  0  0  0  0  0  0  0  0  0  0  0
    1.2391   -0.9525    0.0000 C   0  0  0  0  0  0  0  0  0  0  0  0
    2.0641   -0.9525    0.0000 C   0  0  0  0  0  0  0  0  0  0  0  0
    2.4766   -1.6670    0.0000 Br  0  0  0  0  0  0  0  0  0  0  0  0
    0.8266   -0.2381    0.0000 C   0  0  0  0  0  0  0  0  0  0  0  0
    0.0016   -0.2381    0.0000 Cl  0  0  0  0  0  0  0  0  0  0  0  0
  1  2  1  0  0  0  0
  2  3  1  0  0  0  0
  3  4  1  0  0  0  0
  2  5  1  0  0  0  0
  5  6  1  0  0  0  0
M  END
> <ChemID>
100144

> <CAS>
96-12-8

> <Original_SMILES>
ClCC(Br)CBr

> <preferred_name>
1,2-Dibromo-3-chloropropane

> <dsstox_substance_id>
DTXSID3020413

> <dsstox_compound_id>
DTXCID50413

> <qc_level>
DSSTox_Low

> <Canonical_QSARr>
ClCC(Br)CBr

> <InChI_Code_QSARr>
InChI=1S/C3H5Br2Cl/c4-1-3(5)2-6/h3H,1-2H2

> <InChI Key_QSARr>
WBEJYOJJBDISQU-UHFFFAOYSA-N

> <Salt_Solvent>


> <Salt_Solvent_ID>
0

> <MPID>
99421

> <KocRef>
Schuurmann-Main

> <LogKOC>
1.85

> <Tr_1_Tst_0>
1

$$$$
100145
  Mrv171c012251911022D          

 11 11  0  0  0  0            999 V2000
    3.2481   -2.2887    0.0000 F   0  0  0  0  0  0  0  0  0  0  0  0
    2.5337   -1.8762    0.0000 C   0  0  0  0  0  0  0  0  0  0  0  0
    1.8192   -1.4637    0.0000 C   0  0  0  0  0  0  0  0  0  0  0  0
    1.8192   -0.6387    0.0000 C   0  0  0  0  0  0  0  0  0  0  0  0
    1.1047   -0.2262    0.0000 C   0  0  0  0  0  0  0  0  0  0  0  0
    1.1047    0.5988    0.0000 N   0  0  0  0  0  0  0  0  0  0  0  0
    0.3903   -0.6387    0.0000 C   0  0  0  0  0  0  0  0  0  0  0  0
    0.3903   -1.4637    0.0000 C   0  0  0  0  0  0  0  0  0  0  0  0
    1.1047   -1.8762    0.0000 C   0  0  0  0  0  0  0  0  0  0  0  0
    2.9462   -1.1617    0.0000 F   0  0  0  0  0  0  0  0  0  0  0  0
    2.1212   -2.5907    0.0000 F   0  0  0  0  0  0  0  0  0  0  0  0
  1  2  1  0  0  0  0
  2  3  1  0  0  0  0
  4  3  1  0  0  0  0
  5  4  2  0  0  0  0
  5  6  1  0  0  0  0
  7  5  1  0  0  0  0
  8  7  2  0  0  0  0
  9  8  1  0  0  0  0
  3  9  2  0  0  0  0
  2 10  1  0  0  0  0
  2 11  1  0  0  0  0
M  END
> <ChemID>
100145

> <CAS>
98-16-8

> <Original_SMILES>
Nc1cc(ccc1)C(F)(F)F

> <preferred_name>
3-(Trifluoromethyl)aniline

> <dsstox_substance_id>
DTXSID9024512

> <dsstox_compound_id>
DTXCID504512

> <qc_level>
DSSTox_Low

> <Canonical_QSARr>
NC1=CC(=CC=C1)C(F)(F)F

> <InChI_Code_QSARr>
InChI=1S/C7H6F3N/c8-7(9,10)5-2-1-3-6(11)4-5/h1-4H,11H2

> <InChI Key_QSARr>
VIUDTWATMPPKEL-UHFFFAOYSA-N

> <Salt_Solvent>


> <Salt_Solvent_ID>
0

> <MPID>
99422

> <KocRef>
Schuurmann-Main

> <LogKOC>
2.36

> <Tr_1_Tst_0>
1

$$$$
100146
  Mrv171c012251911022D          

  9  9  0  0  0  0            999 V2000
    1.4193   -2.1811    0.0000 C   0  0  0  0  0  0  0  0  0  0  0  0
    2.1337   -1.7686    0.0000 C   0  0  0  0  0  0  0  0  0  0  0  0
    2.1337   -0.9436    0.0000 C   0  0  0  0  0  0  0  0  0  0  0  0
    1.4193   -0.5311    0.0000 C   0  0  0  0  0  0  0  0  0  0  0  0
    1.4193    0.2939    0.0000 C   0  0  0  0  0  0  0  0  0  0  0  0
    0.7048    0.7064    0.0000 C   0  0  0  0  0  0  0  0  0  0  0  0
    2.1337    0.7064    0.0000 O   0  0  0  0  0  0  0  0  0  0  0  0
    0.7048   -0.9436    0.0000 C   0  0  0  0  0  0  0  0  0  0  0  0
    0.7048   -1.7686    0.0000 C   0  0  0  0  0  0  0  0  0  0  0  0
  2  1  1  0  0  0  0
  3  2  2  0  0  0  0
  4  3  1  0  0  0  0
  4  5  1  0  0  0  0
  5  6  1  0  0  0  0
  5  7  1  0  0  0  0
  8  4  2  0  0  0  0
  9  8  1  0  0  0  0
  1  9  2  0  0  0  0
M  END
> <ChemID>
100146

> <CAS>
98-85-1

> <Original_SMILES>
CC(O)c1ccccc1

> <preferred_name>
alpha-Methylbenzyl alcohol

> <dsstox_substance_id>
DTXSID1020859

> <dsstox_compound_id>
DTXCID50859

> <qc_level>
DSSTox_Low

> <Canonical_QSARr>
CC(O)C1C=CC=CC=1

> <InChI_Code_QSARr>
InChI=1S/C8H10O/c1-7(9)8-5-3-2-4-6-8/h2-7,9H,1H3

> <InChI Key_QSARr>
WAPNOHKVXSQRPX-UHFFFAOYSA-N

> <Salt_Solvent>


> <Salt_Solvent_ID>
0

> <MPID>
99423

> <KocRef>
SRC 1992 Validation

> <LogKOC>
1.5

> <Tr_1_Tst_0>
0

$$$$
100147
  Mrv171c012251911022D          

  9  9  0  0  0  0            999 V2000
    1.5821   -0.3257    0.0000 C   0  0  0  0  0  0  0  0  0  0  0  0
    1.5821   -1.1507    0.0000 C   0  0  0  0  0  0  0  0  0  0  0  0
    0.8676   -1.5632    0.0000 C   0  0  0  0  0  0  0  0  0  0  0  0
    0.8676   -2.3882    0.0000 C   0  0  0  0  0  0  0  0  0  0  0  0
    1.5821   -2.8007    0.0000 C   0  0  0  0  0  0  0  0  0  0  0  0
    2.2966   -2.3882    0.0000 C   0  0  0  0  0  0  0  0  0  0  0  0
    2.2966   -1.5632    0.0000 C   0  0  0  0  0  0  0  0  0  0  0  0
    0.8676    0.0868    0.0000 O   0  0  0  0  0  0  0  0  0  0  0  0
    2.2966    0.0868    0.0000 C   0  0  0  0  0  0  0  0  0  0  0  0
  1  2  1  0  0  0  0
  3  2  1  0  0  0  0
  4  3  2  0  0  0  0
  5  4  1  0  0  0  0
  6  5  2  0  0  0  0
  7  6  1  0  0  0  0
  2  7  2  0  0  0  0
  1  8  2  0  0  0  0
  1  9  1  0  0  0  0
M  END
> <ChemID>
100147

> <CAS>
98-86-2

> <Original_SMILES>
CC(=O)c1ccccc1

> <preferred_name>
Acetophenone

> <dsstox_substance_id>
DTXSID6021828

> <dsstox_compound_id>
DTXCID501828

> <qc_level>
DSSTox_Low

> <Canonical_QSARr>
CC(=O)C1C=CC=CC=1

> <InChI_Code_QSARr>
InChI=1S/C8H8O/c1-7(9)8-5-3-2-4-6-8/h2-6H,1H3

> <InChI Key_QSARr>
KWOLFJPFCHCOCG-UHFFFAOYSA-N

> <Salt_Solvent>


> <Salt_Solvent_ID>
0

> <MPID>
99424

> <KocRef>
SRC 1992 Polar

> <LogKOC>
1.8

> <Tr_1_Tst_0>
1

$$$$
100148
  Mrv171c012251911022D          

  9  9  0  0  0  0            999 V2000
    2.1337    0.7064    0.0000 O   0  0  0  0  0  0  0  0  0  0  0  0
    1.4193    0.2939    0.0000 N   0  3  0  0  0  0  0  0  0  0  0  0
    0.7048    0.7064    0.0000 O   0  5  0  0  0  0  0  0  0  0  0  0
    1.4193   -0.5311    0.0000 C   0  0  0  0  0  0  0  0  0  0  0  0
    0.7048   -0.9436    0.0000 C   0  0  0  0  0  0  0  0  0  0  0  0
    0.7048   -1.7686    0.0000 C   0  0  0  0  0  0  0  0  0  0  0  0
    1.4193   -2.1811    0.0000 C   0  0  0  0  0  0  0  0  0  0  0  0
    2.1337   -1.7686    0.0000 C   0  0  0  0  0  0  0  0  0  0  0  0
    2.1337   -0.9436    0.0000 C   0  0  0  0  0  0  0  0  0  0  0  0
  1  2  2  0  0  0  0
  2  3  1  0  0  0  0
  2  4  1  0  0  0  0
  5  4  1  0  0  0  0
  6  5  2  0  0  0  0
  7  6  1  0  0  0  0
  8  7  2  0  0  0  0
  9  8  1  0  0  0  0
  4  9  2  0  0  0  0
M  CHG  2   2   1   3  -1
M  END
> <ChemID>
100148

> <CAS>
98-95-3

> <Original_SMILES>
[O-][N+](=O)c1ccccc1

> <preferred_name>
Nitrobenzene

> <dsstox_substance_id>
DTXSID3020964

> <dsstox_compound_id>
DTXCID30964

> <qc_level>
DSSTox_Low

> <Canonical_QSARr>
[O-][N+](=O)C1C=CC=CC=1

> <InChI_Code_QSARr>
InChI=1S/C6H5NO2/c8-7(9)6-4-2-1-3-5-6/h1-5H

> <InChI Key_QSARr>
LQNUZADURLCDLV-UHFFFAOYSA-N

> <Salt_Solvent>


> <Salt_Solvent_ID>
0

> <MPID>
99425

> <KocRef>
Schuurmann-Main

> <LogKOC>
1.94

> <Tr_1_Tst_0>
1

$$$$
100149
  Mrv171c012251911022D          

 10 10  0  0  0  0            999 V2000
    2.2482   -1.9860    0.0000 N   0  3  0  0  0  0  0  0  0  0  0  0
    1.5337   -1.5735    0.0000 C   0  0  0  0  0  0  0  0  0  0  0  0
    1.5337   -0.7485    0.0000 C   0  0  0  0  0  0  0  0  0  0  0  0
    0.8192   -0.3360    0.0000 C   0  0  0  0  0  0  0  0  0  0  0  0
    0.8192    0.4890    0.0000 N   0  0  0  0  0  0  0  0  0  0  0  0
    0.1048   -0.7485    0.0000 C   0  0  0  0  0  0  0  0  0  0  0  0
    0.1048   -1.5735    0.0000 C   0  0  0  0  0  0  0  0  0  0  0  0
    0.8192   -1.9860    0.0000 C   0  0  0  0  0  0  0  0  0  0  0  0
    2.9627   -1.5735    0.0000 O   0  5  0  0  0  0  0  0  0  0  0  0
    2.2482   -2.8110    0.0000 O   0  0  0  0  0  0  0  0  0  0  0  0
  1  2  1  0  0  0  0
  3  2  1  0  0  0  0
  4  3  2  0  0  0  0
  4  5  1  0  0  0  0
  6  4  1  0  0  0  0
  7  6  2  0  0  0  0
  8  7  1  0  0  0  0
  2  8  2  0  0  0  0
  1  9  1  0  0  0  0
  1 10  2  0  0  0  0
M  CHG  2   1   1   9  -1
M  END
> <ChemID>
100149

> <CAS>
99-09-2

> <Original_SMILES>
Nc1cc(ccc1)[N+]([O-])=O

> <preferred_name>
3-Nitroaniline

> <dsstox_substance_id>
DTXSID6025725

> <dsstox_compound_id>
DTXCID505725

> <qc_level>
DSSTox_High

> <Canonical_QSARr>
NC1=CC(=CC=C1)[N+]([O-])=O

> <InChI_Code_QSARr>
InChI=1S/C6H6N2O2/c7-5-2-1-3-6(4-5)8(9)10/h1-4H,7H2

> <InChI Key_QSARr>
XJCVRTZCHMZPBD-UHFFFAOYSA-N

> <Salt_Solvent>


> <Salt_Solvent_ID>
0

> <MPID>
99426

> <KocRef>
Schuurmann-Main

> <LogKOC>
1.73

> <Tr_1_Tst_0>
1

$$$$
100150
  Mrv171c012251911022D          

 12 12  0  0  0  0            999 V2000
    3.1031   -2.9744    0.0000 O   0  0  0  0  0  0  0  0  0  0  0  0
    3.1031   -2.1494    0.0000 N   0  3  0  0  0  0  0  0  0  0  0  0
    3.8175   -1.7369    0.0000 O   0  5  0  0  0  0  0  0  0  0  0  0
    2.3886   -1.7369    0.0000 C   0  0  0  0  0  0  0  0  0  0  0  0
    2.3886   -0.9119    0.0000 C   0  0  0  0  0  0  0  0  0  0  0  0
    1.6741   -0.4994    0.0000 C   0  0  0  0  0  0  0  0  0  0  0  0
    1.6741    0.3256    0.0000 Cl  0  0  0  0  0  0  0  0  0  0  0  0
    0.9597   -0.9119    0.0000 C   0  0  0  0  0  0  0  0  0  0  0  0
    0.2452   -0.4994    0.0000 N   0  0  0  0  0  0  0  0  0  0  0  0
    0.9597   -1.7369    0.0000 C   0  0  0  0  0  0  0  0  0  0  0  0
    0.2452   -2.1494    0.0000 Cl  0  0  0  0  0  0  0  0  0  0  0  0
    1.6741   -2.1494    0.0000 C   0  0  0  0  0  0  0  0  0  0  0  0
  1  2  2  0  0  0  0
  2  3  1  0  0  0  0
  2  4  1  0  0  0  0
  5  4  1  0  0  0  0
  6  5  2  0  0  0  0
  6  7  1  0  0  0  0
  8  6  1  0  0  0  0
  8  9  1  0  0  0  0
 10  8  2  0  0  0  0
 10 11  1  0  0  0  0
 12 10  1  0  0  0  0
  4 12  2  0  0  0  0
M  CHG  2   2   1   3  -1
M  END
> <ChemID>
100150

> <CAS>
99-30-9

> <Original_SMILES>
Nc1c(Cl)cc(cc1Cl)[N+]([O-])=O

> <preferred_name>
Dicloran

> <dsstox_substance_id>
DTXSID2020426

> <dsstox_compound_id>
DTXCID60426

> <qc_level>
DSSTox_Low

> <Canonical_QSARr>
NC1C(Cl)=CC(=CC=1Cl)[N+]([O-])=O

> <InChI_Code_QSARr>
InChI=1S/C6H4Cl2N2O2/c7-4-1-3(10(11)12)2-5(8)6(4)9/h1-2H,9H2

> <InChI Key_QSARr>
BIXZHMJUSMUDOQ-UHFFFAOYSA-N

> <Salt_Solvent>


> <Salt_Solvent_ID>
0

> <MPID>
99427

> <KocRef>
Schuurmann-Main

> <LogKOC>
3.0

> <Tr_1_Tst_0>
0

$$$$
100151
  Mrv171c012251911022D          

 15 15  0  0  0  0            999 V2000
    1.4289    0.8250    0.0000 C   0  0  0  0  0  0  0  0  0  0  0  0
    0.7145    1.2375    0.0000 C   0  0  0  0  0  0  0  0  0  0  0  0
    0.7145    2.0625    0.0000 N   0  3  0  0  0  0  0  0  0  0  0  0
    1.4289    2.4750    0.0000 O   0  5  0  0  0  0  0  0  0  0  0  0
   -0.0000    2.4750    0.0000 O   0  0  0  0  0  0  0  0  0  0  0  0
   -0.0000    0.8250    0.0000 C   0  0  0  0  0  0  0  0  0  0  0  0
   -0.0000    0.0000    0.0000 C   0  0  0  0  0  0  0  0  0  0  0  0
   -0.7145   -0.4125    0.0000 N   0  3  0  0  0  0  0  0  0  0  0  0
   -0.7145   -1.2375    0.0000 O   0  5  0  0  0  0  0  0  0  0  0  0
   -1.4289    0.0000    0.0000 O   0  0  0  0  0  0  0  0  0  0  0  0
    0.7145   -0.4125    0.0000 C   0  0  0  0  0  0  0  0  0  0  0  0
    1.4289   -0.0000    0.0000 C   0  0  0  0  0  0  0  0  0  0  0  0
    2.1434   -0.4125    0.0000 C   0  0  0  0  0  0  0  0  0  0  0  0
    2.8579   -0.0000    0.0000 O   0  0  0  0  0  0  0  0  0  0  0  0
    2.1434   -1.2375    0.0000 O   0  0  0  0  0  0  0  0  0  0  0  0
  2  1  1  0  0  0  0
  2  3  1  0  0  0  0
  3  4  1  0  0  0  0
  3  5  2  0  0  0  0
  6  2  2  0  0  0  0
  7  6  1  0  0  0  0
  7  8  1  0  0  0  0
  8  9  1  0  0  0  0
  8 10  2  0  0  0  0
 11  7  2  0  0  0  0
 12 11  1  0  0  0  0
  1 12  2  0  0  0  0
 12 13  1  0  0  0  0
 13 14  1  0  0  0  0
 13 15  2  0  0  0  0
M  CHG  4   3   1   4  -1   8   1   9  -1
M  END
> <ChemID>
100151

> <CAS>
99-34-3

> <Original_SMILES>
[O-][N+](=O)c1cc(cc(c1)[N+]([O-])=O)C(O)=O

> <preferred_name>
3,5-Dinitrobenzoic acid

> <dsstox_substance_id>
DTXSID7059195

> <dsstox_compound_id>
DTXCID5049104

> <qc_level>
Public_High

> <Canonical_QSARr>
[O-][N+](=O)C1C=C(C=C(C=1)[N+]([O-])=O)C(O)=O

> <InChI_Code_QSARr>
InChI=1S/C7H4N2O6/c10-7(11)4-1-5(8(12)13)3-6(2-4)9(14)15/h1-3H,(H,10,11)

> <InChI Key_QSARr>
VYWYYJYRVSBHJQ-UHFFFAOYSA-N

> <Salt_Solvent>


> <Salt_Solvent_ID>
0

> <MPID>
99428

> <KocRef>
SRC 1992 Validation

> <LogKOC>
1.53

> <Tr_1_Tst_0>
1

$$$$
100152
  Mrv171c012251911022D          

 11 11  0  0  0  0            999 V2000
    3.0507   -2.0835    0.0000 N   0  3  0  0  0  0  0  0  0  0  0  0
    2.3362   -1.6710    0.0000 C   0  0  0  0  0  0  0  0  0  0  0  0
    2.3362   -0.8460    0.0000 C   0  0  0  0  0  0  0  0  0  0  0  0
    1.6217   -0.4335    0.0000 C   0  0  0  0  0  0  0  0  0  0  0  0
    1.6217    0.3915    0.0000 Cl  0  0  0  0  0  0  0  0  0  0  0  0
    0.9073   -0.8460    0.0000 C   0  0  0  0  0  0  0  0  0  0  0  0
    0.1928   -0.4335    0.0000 Cl  0  0  0  0  0  0  0  0  0  0  0  0
    0.9073   -1.6710    0.0000 C   0  0  0  0  0  0  0  0  0  0  0  0
    1.6217   -2.0835    0.0000 C   0  0  0  0  0  0  0  0  0  0  0  0
    3.7651   -1.6710    0.0000 O   0  5  0  0  0  0  0  0  0  0  0  0
    3.0507   -2.9085    0.0000 O   0  0  0  0  0  0  0  0  0  0  0  0
  1  2  1  0  0  0  0
  3  2  1  0  0  0  0
  4  3  2  0  0  0  0
  4  5  1  0  0  0  0
  6  4  1  0  0  0  0
  6  7  1  0  0  0  0
  8  6  2  0  0  0  0
  9  8  1  0  0  0  0
  2  9  2  0  0  0  0
  1 10  1  0  0  0  0
  1 11  2  0  0  0  0
M  CHG  2   1   1  10  -1
M  END
> <ChemID>
100152

> <CAS>
99-54-7

> <Original_SMILES>
[O-][N+](=O)c1cc(Cl)c(Cl)cc1

> <preferred_name>
3,4-Dichloronitrobenzene

> <dsstox_substance_id>
DTXSID8024999

> <dsstox_compound_id>
DTXCID504999

> <qc_level>
DSSTox_Low

> <Canonical_QSARr>
[O-][N+](=O)C1C=C(Cl)C(Cl)=CC=1

> <InChI_Code_QSARr>
InChI=1S/C6H3Cl2NO2/c7-5-2-1-4(9(10)11)3-6(5)8/h1-3H

> <InChI Key_QSARr>
NTBYINQTYWZXLH-UHFFFAOYSA-N

> <Salt_Solvent>


> <Salt_Solvent_ID>
0

> <MPID>
99429

> <KocRef>
Schuurmann-Main

> <LogKOC>
2.53

> <Tr_1_Tst_0>
1

$$$$
100153
  Mrv171c012251911022D          

 14 14  0  0  0  0            999 V2000
    2.7534   -1.9432    0.0000 C   0  0  0  0  0  0  0  0  0  0  0  0
    2.7534   -2.7682    0.0000 C   0  0  0  0  0  0  0  0  0  0  0  0
    3.4679   -3.1807    0.0000 O   0  0  0  0  0  0  0  0  0  0  0  0
    2.0390   -3.1807    0.0000 O   0  0  0  0  0  0  0  0  0  0  0  0
    2.0390   -4.0057    0.0000 C   0  0  0  0  0  0  0  0  0  0  0  0
    1.3245   -4.4182    0.0000 C   0  0  0  0  0  0  0  0  0  0  0  0
    3.4679   -1.5307    0.0000 C   0  0  0  0  0  0  0  0  0  0  0  0
    3.4679   -0.7057    0.0000 C   0  0  0  0  0  0  0  0  0  0  0  0
    2.7534   -0.2932    0.0000 C   0  0  0  0  0  0  0  0  0  0  0  0
    2.7534    0.5318    0.0000 N   0  3  0  0  0  0  0  0  0  0  0  0
    2.0390    0.9443    0.0000 O   0  0  0  0  0  0  0  0  0  0  0  0
    3.4679    0.9443    0.0000 O   0  5  0  0  0  0  0  0  0  0  0  0
    2.0390   -0.7057    0.0000 C   0  0  0  0  0  0  0  0  0  0  0  0
    2.0390   -1.5307    0.0000 C   0  0  0  0  0  0  0  0  0  0  0  0
  1  2  1  0  0  0  0
  2  3  2  0  0  0  0
  2  4  1  0  0  0  0
  4  5  1  0  0  0  0
  5  6  1  0  0  0  0
  7  1  2  0  0  0  0
  8  7  1  0  0  0  0
  9  8  2  0  0  0  0
  9 10  1  0  0  0  0
 10 11  2  0  0  0  0
 10 12  1  0  0  0  0
 13  9  1  0  0  0  0
 14 13  2  0  0  0  0
  1 14  1  0  0  0  0
M  CHG  2  10   1  12  -1
M  END
> <ChemID>
100153

> <CAS>
99-77-4

> <Original_SMILES>
CCOC(=O)c1ccc(cc1)[N+]([O-])=O

> <preferred_name>
Ethyl 4-nitrobenzoate

> <dsstox_substance_id>
DTXSID1052666

> <dsstox_compound_id>
DTXCID8031239

> <qc_level>
DSSTox_Low

> <Canonical_QSARr>
CCOC(=O)C1=CC=C(C=C1)[N+]([O-])=O

> <InChI_Code_QSARr>
InChI=1S/C9H9NO4/c1-2-14-9(11)7-3-5-8(6-4-7)10(12)13/h3-6H,2H2,1H3

> <InChI Key_QSARr>
PHWSCBWNPZDYRI-UHFFFAOYSA-N

> <Salt_Solvent>


> <Salt_Solvent_ID>
0

> <MPID>
99430

> <KocRef>
Schuurmann-Main

> <LogKOC>
2.48

> <Tr_1_Tst_0>
1

$$$$
100154
  Mrv171c012251911022D          

 10 10  0  0  0  0            999 V2000
    1.6491   -2.7776    0.0000 C   0  0  0  0  0  0  0  0  0  0  0  0
    1.6491   -1.9526    0.0000 C   0  0  0  0  0  0  0  0  0  0  0  0
    2.3635   -1.5401    0.0000 C   0  0  0  0  0  0  0  0  0  0  0  0
    2.3635   -0.7151    0.0000 C   0  0  0  0  0  0  0  0  0  0  0  0
    1.6491   -0.3026    0.0000 C   0  0  0  0  0  0  0  0  0  0  0  0
    1.6491    0.5224    0.0000 C   0  0  0  0  0  0  0  0  0  0  0  0
    0.9346    0.9349    0.0000 O   0  0  0  0  0  0  0  0  0  0  0  0
    2.3635    0.9349    0.0000 O   0  0  0  0  0  0  0  0  0  0  0  0
    0.9346   -0.7151    0.0000 C   0  0  0  0  0  0  0  0  0  0  0  0
    0.9346   -1.5401    0.0000 C   0  0  0  0  0  0  0  0  0  0  0  0
  1  2  1  0  0  0  0
  3  2  1  0  0  0  0
  4  3  2  0  0  0  0
  5  4  1  0  0  0  0
  5  6  1  0  0  0  0
  6  7  2  0  0  0  0
  6  8  1  0  0  0  0
  9  5  2  0  0  0  0
 10  9  1  0  0  0  0
  2 10  2  0  0  0  0
M  END
> <ChemID>
100154

> <CAS>
99-94-5

> <Original_SMILES>
Cc1ccc(cc1)C(O)=O

> <preferred_name>
4-Methylbenzoic acid

> <dsstox_substance_id>
DTXSID6021618

> <dsstox_compound_id>
DTXCID801618

> <qc_level>
DSSTox_Low

> <Canonical_QSARr>
CC1=CC=C(C=C1)C(O)=O

> <InChI_Code_QSARr>
InChI=1S/C8H8O2/c1-6-2-4-7(5-3-6)8(9)10/h2-5H,1H3,(H,9,10)

> <InChI Key_QSARr>
LPNBBFKOUUSUDB-UHFFFAOYSA-N

> <Salt_Solvent>


> <Salt_Solvent_ID>
0

> <MPID>
99431

> <KocRef>
Schuurmann-Main

> <LogKOC>
1.77

> <Tr_1_Tst_0>
0

$$$$
100155
  Mrv171c012251911022D          

 10 10  0  0  0  0            999 V2000
    2.0644   -1.9470    0.0000 C   0  0  0  0  0  0  0  0  0  0  0  0
    1.3499   -2.3595    0.0000 O   0  0  0  0  0  0  0  0  0  0  0  0
    2.0644   -1.1220    0.0000 C   0  0  0  0  0  0  0  0  0  0  0  0
    2.7789   -0.7095    0.0000 C   0  0  0  0  0  0  0  0  0  0  0  0
    2.7789    0.1155    0.0000 C   0  0  0  0  0  0  0  0  0  0  0  0
    2.0644    0.5280    0.0000 C   0  0  0  0  0  0  0  0  0  0  0  0
    2.0644    1.3530    0.0000 O   0  0  0  0  0  0  0  0  0  0  0  0
    1.3499    0.1155    0.0000 C   0  0  0  0  0  0  0  0  0  0  0  0
    1.3499   -0.7095    0.0000 C   0  0  0  0  0  0  0  0  0  0  0  0
    2.7789   -2.3595    0.0000 O   0  0  0  0  0  0  0  0  0  0  0  0
  1  2  1  0  0  0  0
  1  3  1  0  0  0  0
  4  3  1  0  0  0  0
  5  4  2  0  0  0  0
  6  5  1  0  0  0  0
  6  7  1  0  0  0  0
  8  6  2  0  0  0  0
  9  8  1  0  0  0  0
  3  9  2  0  0  0  0
  1 10  2  0  0  0  0
M  END
> <ChemID>
100155

> <CAS>
99-96-7

> <Original_SMILES>
Oc1ccc(cc1)C(O)=O

> <preferred_name>
4-Hydroxybenzoic acid

> <dsstox_substance_id>
DTXSID3026647

> <dsstox_compound_id>
DTXCID806647

> <qc_level>
DSSTox_Low

> <Canonical_QSARr>
OC1C=CC(=CC=1)C(O)=O

> <InChI_Code_QSARr>
InChI=1S/C7H6O3/c8-6-3-1-5(2-4-6)7(9)10/h1-4,8H,(H,9,10)

> <InChI Key_QSARr>
FJKROLUGYXJWQN-UHFFFAOYSA-N

> <Salt_Solvent>


> <Salt_Solvent_ID>
0

> <MPID>
99432

> <KocRef>
Schuurmann-Main

> <LogKOC>
1.43

> <Tr_1_Tst_0>
1

$$$$
100156
  Mrv171c012251911022D          

 10 10  0  0  0  0            999 V2000
    0.9322   -2.3640    0.0000 O   0  0  0  0  0  0  0  0  0  0  0  0
    1.6467   -1.9515    0.0000 N   0  3  0  0  0  0  0  0  0  0  0  0
    2.3611   -2.3640    0.0000 O   0  5  0  0  0  0  0  0  0  0  0  0
    1.6467   -1.1265    0.0000 C   0  0  0  0  0  0  0  0  0  0  0  0
    2.3611   -0.7140    0.0000 C   0  0  0  0  0  0  0  0  0  0  0  0
    2.3611    0.1110    0.0000 C   0  0  0  0  0  0  0  0  0  0  0  0
    1.6467    0.5235    0.0000 C   0  0  0  0  0  0  0  0  0  0  0  0
    1.6467    1.3485    0.0000 N   0  0  0  0  0  0  0  0  0  0  0  0
    0.9322    0.1110    0.0000 C   0  0  0  0  0  0  0  0  0  0  0  0
    0.9322   -0.7140    0.0000 C   0  0  0  0  0  0  0  0  0  0  0  0
  1  2  2  0  0  0  0
  2  3  1  0  0  0  0
  2  4  1  0  0  0  0
  5  4  1  0  0  0  0
  6  5  2  0  0  0  0
  7  6  1  0  0  0  0
  7  8  1  0  0  0  0
  9  7  2  0  0  0  0
 10  9  1  0  0  0  0
  4 10  2  0  0  0  0
M  CHG  2   2   1   3  -1
M  END
> <ChemID>
100156

> <CAS>
100-01-6

> <Original_SMILES>
Nc1ccc(cc1)[N+]([O-])=O

> <preferred_name>
4-Nitroaniline

> <dsstox_substance_id>
DTXSID8020961

> <dsstox_compound_id>
DTXCID40961

> <qc_level>
DSSTox_Low

> <Canonical_QSARr>
NC1=CC=C(C=C1)[N+]([O-])=O

> <InChI_Code_QSARr>
InChI=1S/C6H6N2O2/c7-5-1-3-6(4-2-5)8(9)10/h1-4H,7H2

> <InChI Key_QSARr>
TYMLOMAKGOJONV-UHFFFAOYSA-N

> <Salt_Solvent>


> <Salt_Solvent_ID>
0

> <MPID>
99433

> <KocRef>
Schuurmann-Main

> <LogKOC>
1.88

> <Tr_1_Tst_0>
1

$$$$
100157
  Mrv171c012251911022D          

 10 10  0  0  0  0            999 V2000
    1.6467   -2.7765    0.0000 O   0  0  0  0  0  0  0  0  0  0  0  0
    1.6467   -1.9515    0.0000 C   0  0  0  0  0  0  0  0  0  0  0  0
    2.3611   -1.5390    0.0000 C   0  0  0  0  0  0  0  0  0  0  0  0
    2.3611   -0.7140    0.0000 C   0  0  0  0  0  0  0  0  0  0  0  0
    1.6467   -0.3015    0.0000 C   0  0  0  0  0  0  0  0  0  0  0  0
    1.6467    0.5235    0.0000 N   0  3  0  0  0  0  0  0  0  0  0  0
    0.9322    0.9360    0.0000 O   0  5  0  0  0  0  0  0  0  0  0  0
    2.3611    0.9360    0.0000 O   0  0  0  0  0  0  0  0  0  0  0  0
    0.9322   -0.7140    0.0000 C   0  0  0  0  0  0  0  0  0  0  0  0
    0.9322   -1.5390    0.0000 C   0  0  0  0  0  0  0  0  0  0  0  0
  1  2  1  0  0  0  0
  3  2  1  0  0  0  0
  4  3  2  0  0  0  0
  5  4  1  0  0  0  0
  5  6  1  0  0  0  0
  6  7  1  0  0  0  0
  6  8  2  0  0  0  0
  9  5  2  0  0  0  0
 10  9  1  0  0  0  0
  2 10  2  0  0  0  0
M  CHG  2   6   1   7  -1
M  END
> <ChemID>
100157

> <CAS>
100-02-7

> <Original_SMILES>
[O-][N+](=O)c1ccc(O)cc1

> <preferred_name>
4-Nitrophenol

> <dsstox_substance_id>
DTXSID0021834

> <dsstox_compound_id>
DTXCID201834

> <qc_level>
DSSTox_Low

> <Canonical_QSARr>
[O-][N+](=O)C1C=CC(O)=CC=1

> <InChI_Code_QSARr>
InChI=1S/C6H5NO3/c8-6-3-1-5(2-4-6)7(9)10/h1-4,8H

> <InChI Key_QSARr>
BTJIUGUIPKRLHP-UHFFFAOYSA-N

> <Salt_Solvent>


> <Salt_Solvent_ID>
0

> <MPID>
99434

> <KocRef>
Schuurmann-Main

> <LogKOC>
2.37

> <Tr_1_Tst_0>
1

$$$$
100158
  Mrv171c012251911022D          

  8  8  0  0  0  0            999 V2000
    2.2218    0.9732    0.0000 C   0  0  0  0  0  0  0  0  0  0  0  0
    1.5073    0.5607    0.0000 C   0  0  0  0  0  0  0  0  0  0  0  0
    1.5073   -0.2643    0.0000 C   0  0  0  0  0  0  0  0  0  0  0  0
    0.7928   -0.6768    0.0000 C   0  0  0  0  0  0  0  0  0  0  0  0
    0.7928   -1.5018    0.0000 C   0  0  0  0  0  0  0  0  0  0  0  0
    1.5073   -1.9143    0.0000 C   0  0  0  0  0  0  0  0  0  0  0  0
    2.2218   -1.5018    0.0000 C   0  0  0  0  0  0  0  0  0  0  0  0
    2.2218   -0.6768    0.0000 C   0  0  0  0  0  0  0  0  0  0  0  0
  1  2  1  0  0  0  0
  2  3  1  0  0  0  0
  4  3  1  0  0  0  0
  5  4  2  0  0  0  0
  6  5  1  0  0  0  0
  7  6  2  0  0  0  0
  8  7  1  0  0  0  0
  3  8  2  0  0  0  0
M  END
> <ChemID>
100158

> <CAS>
100-41-4

> <Original_SMILES>
CCc1ccccc1

> <preferred_name>
Ethylbenzene

> <dsstox_substance_id>
DTXSID3020596

> <dsstox_compound_id>
DTXCID10596

> <qc_level>
DSSTox_High

> <Canonical_QSARr>
CCC1C=CC=CC=1

> <InChI_Code_QSARr>
InChI=1S/C8H10/c1-2-8-6-4-3-5-7-8/h3-7H,2H2,1H3

> <InChI Key_QSARr>
YNQLUTRBYVCPMQ-UHFFFAOYSA-N

> <Salt_Solvent>


> <Salt_Solvent_ID>
0

> <MPID>
99435

> <KocRef>
SRC 1992 Non-Polar

> <LogKOC>
2.23

> <Tr_1_Tst_0>
0

$$$$
100159
  Mrv171c012251911022D          

  8  8  0  0  0  0            999 V2000
    3.1082    0.5344    0.0000 C   0  0  0  0  0  0  0  0  0  0  0  0
    2.3938    0.1219    0.0000 C   0  0  0  0  0  0  0  0  0  0  0  0
    2.3938   -0.7031    0.0000 C   0  0  0  0  0  0  0  0  0  0  0  0
    1.6793   -1.1156    0.0000 C   0  0  0  0  0  0  0  0  0  0  0  0
    1.6793   -1.9406    0.0000 C   0  0  0  0  0  0  0  0  0  0  0  0
    2.3938   -2.3531    0.0000 C   0  0  0  0  0  0  0  0  0  0  0  0
    3.1082   -1.9406    0.0000 C   0  0  0  0  0  0  0  0  0  0  0  0
    3.1082   -1.1156    0.0000 C   0  0  0  0  0  0  0  0  0  0  0  0
  1  2  2  0  0  0  0
  2  3  1  0  0  0  0
  4  3  1  0  0  0  0
  5  4  2  0  0  0  0
  6  5  1  0  0  0  0
  7  6  2  0  0  0  0
  8  7  1  0  0  0  0
  3  8  2  0  0  0  0
M  END
> <ChemID>
100159

> <CAS>
100-42-5

> <Original_SMILES>
C=Cc1ccccc1

> <preferred_name>
Styrene

> <dsstox_substance_id>
DTXSID2021284

> <dsstox_compound_id>
DTXCID501284

> <qc_level>
DSSTox_High

> <Canonical_QSARr>
C=CC1C=CC=CC=1

> <InChI_Code_QSARr>
InChI=1S/C8H8/c1-2-8-6-4-3-5-7-8/h2-7H,1H2

> <InChI Key_QSARr>
PPBRXRYQALVLMV-UHFFFAOYSA-N

> <Salt_Solvent>


> <Salt_Solvent_ID>
0

> <MPID>
99436

> <KocRef>
SRC 1992 NonPolar Val

> <LogKOC>
2.96

> <Tr_1_Tst_0>
1

$$$$
100160
  Mrv171c012251911022D          

  8  8  0  0  0  0            999 V2000
    0.7136   -2.8852    0.0000 N   0  0  0  0  0  0  0  0  0  0  0  0
    1.4280   -2.4727    0.0000 C   0  0  0  0  0  0  0  0  0  0  0  0
    1.4280   -1.6477    0.0000 C   0  0  0  0  0  0  0  0  0  0  0  0
    0.7136   -1.2352    0.0000 C   0  0  0  0  0  0  0  0  0  0  0  0
    0.7136   -0.4102    0.0000 C   0  0  0  0  0  0  0  0  0  0  0  0
   -0.0009    0.0023    0.0000 C   0  0  0  0  0  0  0  0  0  0  0  0
   -0.0009   -1.6477    0.0000 C   0  0  0  0  0  0  0  0  0  0  0  0
   -0.0009   -2.4727    0.0000 C   0  0  0  0  0  0  0  0  0  0  0  0
  2  1  1  0  0  0  0
  3  2  2  0  0  0  0
  4  3  1  0  0  0  0
  4  5  1  0  0  0  0
  5  6  2  0  0  0  0
  7  4  2  0  0  0  0
  8  7  1  0  0  0  0
  1  8  2  0  0  0  0
M  END
> <ChemID>
100160

> <CAS>
100-43-6

> <Original_SMILES>
C=Cc1cc[n]cc1

> <preferred_name>
4-Vinylpyridine

> <dsstox_substance_id>
DTXSID0051499

> <dsstox_compound_id>
DTXCID4030047

> <qc_level>
DSSTox_High

> <Canonical_QSARr>
C=CC1C=CN=CC=1

> <InChI_Code_QSARr>
InChI=1S/C7H7N/c1-2-7-3-5-8-6-4-7/h2-6H,1H2

> <InChI Key_QSARr>
KFDVPJUYSDEJTH-UHFFFAOYSA-N

> <Salt_Solvent>


> <Salt_Solvent_ID>
0

> <MPID>
99437

> <KocRef>
Schuurmann-Main

> <LogKOC>
1.18

> <Tr_1_Tst_0>
1

$$$$
100161
  Mrv171c012251911022D          

  8  8  0  0  0  0            999 V2000
    2.2218    0.9732    0.0000 O   0  0  0  0  0  0  0  0  0  0  0  0
    1.5073    0.5607    0.0000 C   0  0  0  0  0  0  0  0  0  0  0  0
    1.5073   -0.2643    0.0000 C   0  0  0  0  0  0  0  0  0  0  0  0
    0.7928   -0.6768    0.0000 C   0  0  0  0  0  0  0  0  0  0  0  0
    0.7928   -1.5018    0.0000 C   0  0  0  0  0  0  0  0  0  0  0  0
    1.5073   -1.9143    0.0000 C   0  0  0  0  0  0  0  0  0  0  0  0
    2.2218   -1.5018    0.0000 C   0  0  0  0  0  0  0  0  0  0  0  0
    2.2218   -0.6768    0.0000 C   0  0  0  0  0  0  0  0  0  0  0  0
  1  2  1  0  0  0  0
  2  3  1  0  0  0  0
  4  3  1  0  0  0  0
  5  4  2  0  0  0  0
  6  5  1  0  0  0  0
  7  6  2  0  0  0  0
  8  7  1  0  0  0  0
  3  8  2  0  0  0  0
M  END
> <ChemID>
100161

> <CAS>
100-51-6

> <Original_SMILES>
OCc1ccccc1

> <preferred_name>
Benzyl alcohol

> <dsstox_substance_id>
DTXSID5020152

> <dsstox_compound_id>
DTXCID70152

> <qc_level>
DSSTox_Low

> <Canonical_QSARr>
OCC1C=CC=CC=1

> <InChI_Code_QSARr>
InChI=1S/C7H8O/c8-6-7-4-2-1-3-5-7/h1-5,8H,6H2

> <InChI Key_QSARr>
WVDDGKGOMKODPV-UHFFFAOYSA-N

> <Salt_Solvent>


> <Salt_Solvent_ID>
0

> <MPID>
99438

> <KocRef>
SRC 1992 Polar

> <LogKOC>
1.1

> <Tr_1_Tst_0>
1

$$$$
100162
  Mrv171c012251911022D          

  8  8  0  0  0  0            999 V2000
    2.0326   -1.5894    0.0000 N   0  0  0  0  0  0  0  0  0  0  0  0
    2.0326   -0.7644    0.0000 C   0  0  0  0  0  0  0  0  0  0  0  0
    1.3181   -0.3519    0.0000 C   0  0  0  0  0  0  0  0  0  0  0  0
    1.3181    0.4731    0.0000 C   0  0  0  0  0  0  0  0  0  0  0  0
    1.3181    1.2981    0.0000 N   0  0  0  0  0  0  0  0  0  0  0  0
    0.6037   -0.7644    0.0000 C   0  0  0  0  0  0  0  0  0  0  0  0
    0.6037   -1.5894    0.0000 C   0  0  0  0  0  0  0  0  0  0  0  0
    1.3181   -2.0019    0.0000 C   0  0  0  0  0  0  0  0  0  0  0  0
  2  1  1  0  0  0  0
  3  2  2  0  0  0  0
  3  4  1  0  0  0  0
  4  5  3  0  0  0  0
  6  3  1  0  0  0  0
  7  6  2  0  0  0  0
  8  7  1  0  0  0  0
  1  8  2  0  0  0  0
M  END
> <ChemID>
100162

> <CAS>
100-54-9

> <Original_SMILES>
N#Cc1c[n]ccc1

> <preferred_name>
3-Pyridinecarbonitrile

> <dsstox_substance_id>
DTXSID1026665

> <dsstox_compound_id>
DTXCID606665

> <qc_level>
DSSTox_Low

> <Canonical_QSARr>
N#CC1=CN=CC=C1

> <InChI_Code_QSARr>
InChI=1S/C6H4N2/c7-4-6-2-1-3-8-5-6/h1-3,5H

> <InChI Key_QSARr>
GZPHSAQLYPIAIN-UHFFFAOYSA-N

> <Salt_Solvent>


> <Salt_Solvent_ID>
0

> <MPID>
99439

> <KocRef>
Schuurmann-Main

> <LogKOC>
1.56

> <Tr_1_Tst_0>
0

$$$$
100163
  Mrv171c012251911022D          

  8  8  0  0  0  0            999 V2000
    1.6859   -1.9143    0.0000 C   0  0  0  0  0  0  0  0  0  0  0  0
    2.4004   -1.5018    0.0000 C   0  0  0  0  0  0  0  0  0  0  0  0
    2.4004   -0.6768    0.0000 C   0  0  0  0  0  0  0  0  0  0  0  0
    1.6859   -0.2643    0.0000 C   0  0  0  0  0  0  0  0  0  0  0  0
    1.6859    0.5607    0.0000 N   0  0  0  0  0  0  0  0  0  0  0  0
    0.9715    0.9732    0.0000 C   0  0  0  0  0  0  0  0  0  0  0  0
    0.9715   -0.6768    0.0000 C   0  0  0  0  0  0  0  0  0  0  0  0
    0.9715   -1.5018    0.0000 C   0  0  0  0  0  0  0  0  0  0  0  0
  2  1  1  0  0  0  0
  3  2  2  0  0  0  0
  4  3  1  0  0  0  0
  4  5  1  0  0  0  0
  5  6  1  0  0  0  0
  7  4  2  0  0  0  0
  8  7  1  0  0  0  0
  1  8  2  0  0  0  0
M  END
> <ChemID>
100163

> <CAS>
100-61-8

> <Original_SMILES>
CNc1ccccc1

> <preferred_name>
N-Methylaniline

> <dsstox_substance_id>
DTXSID9021841

> <dsstox_compound_id>
DTXCID301841

> <qc_level>
DSSTox_Low

> <Canonical_QSARr>
CNC1C=CC=CC=1

> <InChI_Code_QSARr>
InChI=1S/C7H9N/c1-8-7-5-3-2-4-6-7/h2-6,8H,1H3

> <InChI Key_QSARr>
AFBPFSWMIHJQDM-UHFFFAOYSA-N

> <Salt_Solvent>


> <Salt_Solvent_ID>
0

> <MPID>
99440

> <KocRef>
Schuurmann-Main

> <LogKOC>
2.28

> <Tr_1_Tst_0>
1

$$$$
100164
  Mrv171c012251911022D          

  8  8  0  0  0  0            999 V2000
    1.2520   -0.3058    0.0000 C   0  0  0  0  0  0  0  0  0  0  0  0
    0.5376   -0.7183    0.0000 C   0  0  0  0  0  0  0  0  0  0  0  0
    0.5376   -1.5433    0.0000 C   0  0  0  0  0  0  0  0  0  0  0  0
    1.2520   -1.9558    0.0000 C   0  0  0  0  0  0  0  0  0  0  0  0
    1.9665   -1.5433    0.0000 C   0  0  0  0  0  0  0  0  0  0  0  0
    1.9665   -0.7183    0.0000 C   0  0  0  0  0  0  0  0  0  0  0  0
    1.2520    0.5192    0.0000 O   0  0  0  0  0  0  0  0  0  0  0  0
    0.5376    0.9317    0.0000 C   0  0  0  0  0  0  0  0  0  0  0  0
  2  1  2  0  0  0  0
  3  2  1  0  0  0  0
  4  3  2  0  0  0  0
  5  4  1  0  0  0  0
  6  5  2  0  0  0  0
  1  6  1  0  0  0  0
  1  7  1  0  0  0  0
  7  8  1  0  0  0  0
M  END
> <ChemID>
100164

> <CAS>
100-66-3

> <Original_SMILES>
COc1ccccc1

> <preferred_name>
Anisole

> <dsstox_substance_id>
DTXSID4041608

> <dsstox_compound_id>
DTXCID2021608

> <qc_level>
DSSTox_Low

> <Canonical_QSARr>
COC1C=CC=CC=1

> <InChI_Code_QSARr>
InChI=1S/C7H8O/c1-8-7-5-3-2-4-6-7/h2-6H,1H3

> <InChI Key_QSARr>
RDOXTESZEPMUJZ-UHFFFAOYSA-N

> <Salt_Solvent>


> <Salt_Solvent_ID>
0

> <MPID>
99441

> <KocRef>
Schuurmann-Main

> <LogKOC>
1.54

> <Tr_1_Tst_0>
1

$$$$
100165
  Mrv171c012251911022D          

 16 17  0  0  0  0            999 V2000
    4.6437   -3.7139    0.0000 Cl  0  0  0  0  0  0  0  0  0  0  0  0
    3.9292   -3.3014    0.0000 C   0  0  0  0  0  0  0  0  0  0  0  0
    3.9292   -2.4764    0.0000 N   0  0  0  0  0  0  0  0  0  0  0  0
    3.2148   -2.0639    0.0000 C   0  0  0  0  0  0  0  0  0  0  0  0
    3.2148   -1.2389    0.0000 N   0  0  0  0  0  0  0  0  0  0  0  0
    2.5003   -0.8264    0.0000 C   0  0  0  0  0  0  0  0  0  0  0  0
    2.5003   -0.0014    0.0000 C   0  0  0  0  0  0  0  0  0  0  0  0
    3.2148    0.4111    0.0000 Cl  0  0  0  0  0  0  0  0  0  0  0  0
    1.7858    0.4111    0.0000 C   0  0  0  0  0  0  0  0  0  0  0  0
    1.0714   -0.0014    0.0000 C   0  0  0  0  0  0  0  0  0  0  0  0
    1.0714   -0.8264    0.0000 C   0  0  0  0  0  0  0  0  0  0  0  0
    1.7858   -1.2389    0.0000 C   0  0  0  0  0  0  0  0  0  0  0  0
    2.5003   -2.4764    0.0000 N   0  0  0  0  0  0  0  0  0  0  0  0
    2.5003   -3.3014    0.0000 C   0  0  0  0  0  0  0  0  0  0  0  0
    1.7858   -3.7139    0.0000 Cl  0  0  0  0  0  0  0  0  0  0  0  0
    3.2148   -3.7139    0.0000 N   0  0  0  0  0  0  0  0  0  0  0  0
  1  2  1  0  0  0  0
  3  2  1  0  0  0  0
  4  3  2  0  0  0  0
  4  5  1  0  0  0  0
  5  6  1  0  0  0  0
  7  6  1  0  0  0  0
  7  8  1  0  0  0  0
  9  7  2  0  0  0  0
 10  9  1  0  0  0  0
 11 10  2  0  0  0  0
 12 11  1  0  0  0  0
  6 12  2  0  0  0  0
 13  4  1  0  0  0  0
 14 13  2  0  0  0  0
 14 15  1  0  0  0  0
 16 14  1  0  0  0  0
  2 16  2  0  0  0  0
M  END
> <ChemID>
100165

> <CAS>
101-05-3

> <Original_SMILES>
Clc1ccccc1Nc1[n]c(Cl)[n]c(Cl)[n]1

> <preferred_name>
Anilazine

> <dsstox_substance_id>
DTXSID9020089

> <dsstox_compound_id>
DTXCID6089

> <qc_level>
DSSTox_Low

> <Canonical_QSARr>
ClC1=CC=CC=C1NC1N=C(Cl)N=C(Cl)N=1

> <InChI_Code_QSARr>
InChI=1S/C9H5Cl3N4/c10-5-3-1-2-4-6(5)13-9-15-7(11)14-8(12)16-9/h1-4H,(H,13,14,15,16)

> <InChI Key_QSARr>
IMHBYKMAHXWHRP-UHFFFAOYSA-N

> <Salt_Solvent>


> <Salt_Solvent_ID>
0

> <MPID>
99442

> <KocRef>
Schuurmann-Main

> <LogKOC>
3.0

> <Tr_1_Tst_0>
1

$$$$
100166
  Mrv171c012251911022D          

 14 14  0  0  0  0            999 V2000
    2.1450   -0.4143    0.0000 O   0  0  0  0  0  0  0  0  0  0  0  0
    2.1450   -1.2393    0.0000 C   0  0  0  0  0  0  0  0  0  0  0  0
    1.4306   -1.6518    0.0000 O   0  0  0  0  0  0  0  0  0  0  0  0
    0.7161   -1.2393    0.0000 C   0  0  0  0  0  0  0  0  0  0  0  0
    0.0016   -1.6518    0.0000 C   0  0  0  0  0  0  0  0  0  0  0  0
    0.7161   -0.4143    0.0000 C   0  0  0  0  0  0  0  0  0  0  0  0
    2.8595   -1.6518    0.0000 N   0  0  0  0  0  0  0  0  0  0  0  0
    3.5740   -1.2393    0.0000 C   0  0  0  0  0  0  0  0  0  0  0  0
    4.2885   -1.6518    0.0000 C   0  0  0  0  0  0  0  0  0  0  0  0
    5.0029   -1.2393    0.0000 C   0  0  0  0  0  0  0  0  0  0  0  0
    5.7174   -1.6518    0.0000 Cl  0  0  0  0  0  0  0  0  0  0  0  0
    5.0029   -0.4143    0.0000 C   0  0  0  0  0  0  0  0  0  0  0  0
    4.2885   -0.0018    0.0000 C   0  0  0  0  0  0  0  0  0  0  0  0
    3.5740   -0.4143    0.0000 C   0  0  0  0  0  0  0  0  0  0  0  0
  1  2  2  0  0  0  0
  2  3  1  0  0  0  0
  3  4  1  0  0  0  0
  4  5  1  0  0  0  0
  4  6  1  0  0  0  0
  2  7  1  0  0  0  0
  7  8  1  0  0  0  0
  9  8  1  0  0  0  0
 10  9  2  0  0  0  0
 10 11  1  0  0  0  0
 12 10  1  0  0  0  0
 13 12  2  0  0  0  0
 14 13  1  0  0  0  0
  8 14  2  0  0  0  0
M  END
> <ChemID>
100166

> <CAS>
101-21-3

> <Original_SMILES>
CC(C)OC(=O)Nc1cccc(Cl)c1

> <preferred_name>
Chlorpropham

> <dsstox_substance_id>
DTXSID7020764

> <dsstox_compound_id>
DTXCID10764

> <qc_level>
DSSTox_High

> <Canonical_QSARr>
CC(C)OC(=O)NC1C=C(Cl)C=CC=1

> <InChI_Code_QSARr>
InChI=1S/C10H12ClNO2/c1-7(2)14-10(13)12-9-5-3-4-8(11)6-9/h3-7H,1-2H3,(H,12,13)

> <InChI Key_QSARr>
CWJSHJJYOPWUGX-UHFFFAOYSA-N

> <Salt_Solvent>


> <Salt_Solvent_ID>
0

> <MPID>
99443

> <KocRef>
Schuur-USDA avg

> <LogKOC>
2.6

> <Tr_1_Tst_0>
0

$$$$
100167
  Mrv171c012251911022D          

 16 16  0  0  0  0            999 V2000
    3.3996   -1.3873    0.0000 C   0  0  0  0  0  0  0  0  0  0  0  0
    2.6851   -1.7998    0.0000 O   0  0  0  0  0  0  0  0  0  0  0  0
    1.9707   -1.3873    0.0000 C   0  0  0  0  0  0  0  0  0  0  0  0
    1.2562   -1.7998    0.0000 C   0  0  0  0  0  0  0  0  0  0  0  0
    0.5417   -2.2123    0.0000 C   0  0  0  0  0  0  0  0  0  0  0  0
   -0.1728   -2.6248    0.0000 C   0  0  0  0  0  0  0  0  0  0  0  0
   -0.8872   -2.2123    0.0000 Cl  0  0  0  0  0  0  0  0  0  0  0  0
    3.3996   -0.5623    0.0000 O   0  0  0  0  0  0  0  0  0  0  0  0
    4.1141   -1.7998    0.0000 N   0  0  0  0  0  0  0  0  0  0  0  0
    4.8285   -1.3873    0.0000 C   0  0  0  0  0  0  0  0  0  0  0  0
    5.5430   -1.7998    0.0000 C   0  0  0  0  0  0  0  0  0  0  0  0
    6.2575   -1.3873    0.0000 C   0  0  0  0  0  0  0  0  0  0  0  0
    6.2575   -0.5623    0.0000 C   0  0  0  0  0  0  0  0  0  0  0  0
    5.5430   -0.1498    0.0000 C   0  0  0  0  0  0  0  0  0  0  0  0
    5.5430    0.6752    0.0000 Cl  0  0  0  0  0  0  0  0  0  0  0  0
    4.8285   -0.5623    0.0000 C   0  0  0  0  0  0  0  0  0  0  0  0
  1  2  1  0  0  0  0
  2  3  1  0  0  0  0
  3  4  1  0  0  0  0
  4  5  3  0  0  0  0
  5  6  1  0  0  0  0
  6  7  1  0  0  0  0
  1  8  2  0  0  0  0
  1  9  1  0  0  0  0
  9 10  1  0  0  0  0
 11 10  2  0  0  0  0
 12 11  1  0  0  0  0
 13 12  2  0  0  0  0
 14 13  1  0  0  0  0
 14 15  1  0  0  0  0
 16 14  2  0  0  0  0
 10 16  1  0  0  0  0
M  END
> <ChemID>
100167

> <CAS>
101-27-9

> <Original_SMILES>
O=C(Nc1cc(Cl)ccc1)OCC#CCCl

> <preferred_name>
Barban

> <dsstox_substance_id>
DTXSID3041617

> <dsstox_compound_id>
DTXCID1021617

> <qc_level>
DSSTox_Low

> <Canonical_QSARr>
O=C(NC1C=C(Cl)C=CC=1)OCC#CCCl

> <InChI_Code_QSARr>
InChI=1S/C11H9Cl2NO2/c12-6-1-2-7-16-11(15)14-10-5-3-4-9(13)8-10/h3-5,8H,6-7H2,(H,14,15)

> <InChI Key_QSARr>
MCOQHIWZJUDQIC-UHFFFAOYSA-N

> <Salt_Solvent>


> <Salt_Solvent_ID>
0

> <MPID>
99444

> <KocRef>
USDA Pest Prop DB

> <LogKOC>
3.06

> <Tr_1_Tst_0>
1

$$$$
100168
  Mrv171c012251911022D          

 12 12  0  0  0  0            999 V2000
    2.3150   -0.3049    0.0000 C   0  0  0  0  0  0  0  0  0  0  0  0
    3.0294   -0.7174    0.0000 O   0  0  0  0  0  0  0  0  0  0  0  0
    2.3150    0.5201    0.0000 N   0  0  0  0  0  0  0  0  0  0  0  0
    3.0294    0.9326    0.0000 C   0  0  0  0  0  0  0  0  0  0  0  0
    1.6005    0.9326    0.0000 C   0  0  0  0  0  0  0  0  0  0  0  0
    1.6005   -0.7174    0.0000 N   0  0  0  0  0  0  0  0  0  0  0  0
    1.6005   -1.5424    0.0000 C   0  0  0  0  0  0  0  0  0  0  0  0
    0.8860   -1.9549    0.0000 C   0  0  0  0  0  0  0  0  0  0  0  0
    0.8860   -2.7799    0.0000 C   0  0  0  0  0  0  0  0  0  0  0  0
    1.6005   -3.1924    0.0000 C   0  0  0  0  0  0  0  0  0  0  0  0
    2.3150   -2.7799    0.0000 C   0  0  0  0  0  0  0  0  0  0  0  0
    2.3150   -1.9549    0.0000 C   0  0  0  0  0  0  0  0  0  0  0  0
  1  2  2  0  0  0  0
  1  3  1  0  0  0  0
  3  4  1  0  0  0  0
  3  5  1  0  0  0  0
  1  6  1  0  0  0  0
  6  7  1  0  0  0  0
  8  7  1  0  0  0  0
  9  8  2  0  0  0  0
 10  9  1  0  0  0  0
 11 10  2  0  0  0  0
 12 11  1  0  0  0  0
  7 12  2  0  0  0  0
M  END
> <ChemID>
100168

> <CAS>
101-42-8

> <Original_SMILES>
CN(C)C(=O)Nc1ccccc1

> <preferred_name>
Fenuron

> <dsstox_substance_id>
DTXSID7037551

> <dsstox_compound_id>
DTXCID5017551

> <qc_level>
DSSTox_High

> <Canonical_QSARr>
CN(C)C(=O)NC1C=CC=CC=1

> <InChI_Code_QSARr>
InChI=1S/C9H12N2O/c1-11(2)9(12)10-8-6-4-3-5-7-8/h3-7H,1-2H3,(H,10,12)

> <InChI Key_QSARr>
XXOYNJXVWVNOOJ-UHFFFAOYSA-N

> <Salt_Solvent>


> <Salt_Solvent_ID>
0

> <MPID>
99445

> <KocRef>
Schuurmann-Main

> <LogKOC>
1.4

> <Tr_1_Tst_0>
1

$$$$
100169
  Mrv171c012251911022D          

 14 15  0  0  0  0            999 V2000
    3.2588   -3.5376    0.0000 Br  0  0  0  0  0  0  0  0  0  0  0  0
    3.2588   -2.7126    0.0000 C   0  0  0  0  0  0  0  0  0  0  0  0
    3.9732   -2.3001    0.0000 C   0  0  0  0  0  0  0  0  0  0  0  0
    3.9732   -1.4751    0.0000 C   0  0  0  0  0  0  0  0  0  0  0  0
    3.2588   -1.0626    0.0000 C   0  0  0  0  0  0  0  0  0  0  0  0
    3.2588   -0.2376    0.0000 O   0  0  0  0  0  0  0  0  0  0  0  0
    2.5443    0.1749    0.0000 C   0  0  0  0  0  0  0  0  0  0  0  0
    2.5443    0.9999    0.0000 C   0  0  0  0  0  0  0  0  0  0  0  0
    1.8298    1.4124    0.0000 C   0  0  0  0  0  0  0  0  0  0  0  0
    1.1154    0.9999    0.0000 C   0  0  0  0  0  0  0  0  0  0  0  0
    1.1154    0.1749    0.0000 C   0  0  0  0  0  0  0  0  0  0  0  0
    1.8298   -0.2376    0.0000 C   0  0  0  0  0  0  0  0  0  0  0  0
    2.5443   -1.4751    0.0000 C   0  0  0  0  0  0  0  0  0  0  0  0
    2.5443   -2.3001    0.0000 C   0  0  0  0  0  0  0  0  0  0  0  0
  1  2  1  0  0  0  0
  3  2  2  0  0  0  0
  4  3  1  0  0  0  0
  5  4  2  0  0  0  0
  5  6  1  0  0  0  0
  6  7  1  0  0  0  0
  8  7  2  0  0  0  0
  9  8  1  0  0  0  0
 10  9  2  0  0  0  0
 11 10  1  0  0  0  0
 12 11  2  0  0  0  0
  7 12  1  0  0  0  0
 13  5  1  0  0  0  0
 14 13  2  0  0  0  0
  2 14  1  0  0  0  0
M  END
> <ChemID>
100169

> <CAS>
101-55-3

> <Original_SMILES>
Brc1ccc(cc1)Oc1ccccc1

> <preferred_name>
p-Bromodiphenyl ether

> <dsstox_substance_id>
DTXSID8023927

> <dsstox_compound_id>
DTXCID503927

> <qc_level>
DSSTox_Low

> <Canonical_QSARr>
BrC1C=CC(=CC=1)OC1C=CC=CC=1

> <InChI_Code_QSARr>
InChI=1S/C12H9BrO/c13-10-6-8-12(9-7-10)14-11-4-2-1-3-5-11/h1-9H

> <InChI Key_QSARr>
JDUYPUMQALQRCN-UHFFFAOYSA-N

> <Salt_Solvent>


> <Salt_Solvent_ID>
0

> <MPID>
99446

> <KocRef>
Schuurmann-Main

> <LogKOC>
4.23

> <Tr_1_Tst_0>
1

$$$$
100170
  Mrv171c012251911022D          

 19 20  0  0  0  0            999 V2000
    2.6164   -1.6255    0.0000 C   0  0  0  0  0  0  0  0  0  0  0  0
    2.6164   -0.8005    0.0000 C   0  0  0  0  0  0  0  0  0  0  0  0
    3.3308   -0.3880    0.0000 C   0  0  0  0  0  0  0  0  0  0  0  0
    3.3308    0.4370    0.0000 C   0  0  0  0  0  0  0  0  0  0  0  0
    2.6164    0.8495    0.0000 C   0  0  0  0  0  0  0  0  0  0  0  0
    2.6164    1.6745    0.0000 N   0  0  0  0  0  0  0  0  0  0  0  0
    1.9019    2.0870    0.0000 C   0  0  0  0  0  0  0  0  0  0  0  0
    3.3308    2.0870    0.0000 C   0  0  0  0  0  0  0  0  0  0  0  0
    1.9019    0.4370    0.0000 C   0  0  0  0  0  0  0  0  0  0  0  0
    1.9019   -0.3880    0.0000 C   0  0  0  0  0  0  0  0  0  0  0  0
    3.3308   -2.0380    0.0000 C   0  0  0  0  0  0  0  0  0  0  0  0
    3.3308   -2.8630    0.0000 C   0  0  0  0  0  0  0  0  0  0  0  0
    4.0453   -3.2755    0.0000 C   0  0  0  0  0  0  0  0  0  0  0  0
    4.7598   -2.8630    0.0000 C   0  0  0  0  0  0  0  0  0  0  0  0
    5.4743   -3.2755    0.0000 N   0  0  0  0  0  0  0  0  0  0  0  0
    6.1887   -2.8630    0.0000 C   0  0  0  0  0  0  0  0  0  0  0  0
    5.4743   -4.1005    0.0000 C   0  0  0  0  0  0  0  0  0  0  0  0
    4.7598   -2.0380    0.0000 C   0  0  0  0  0  0  0  0  0  0  0  0
    4.0453   -1.6255    0.0000 C   0  0  0  0  0  0  0  0  0  0  0  0
  1  2  1  0  0  0  0
  3  2  1  0  0  0  0
  4  3  2  0  0  0  0
  5  4  1  0  0  0  0
  5  6  1  0  0  0  0
  6  7  1  0  0  0  0
  6  8  1  0  0  0  0
  9  5  2  0  0  0  0
 10  9  1  0  0  0  0
  2 10  2  0  0  0  0
  1 11  1  0  0  0  0
 12 11  1  0  0  0  0
 13 12  2  0  0  0  0
 14 13  1  0  0  0  0
 14 15  1  0  0  0  0
 15 16  1  0  0  0  0
 15 17  1  0  0  0  0
 18 14  2  0  0  0  0
 19 18  1  0  0  0  0
 11 19  2  0  0  0  0
M  END
> <ChemID>
100170

> <CAS>
101-61-1

> <Original_SMILES>
CN(C)c1ccc(Cc2ccc(cc2)N(C)C)cc1

> <preferred_name>
4,4'-Methylenebis(N,N-dimethylaniline)

> <dsstox_substance_id>
DTXSID5020869

> <dsstox_compound_id>
DTXCID70869

> <qc_level>
DSSTox_High

> <Canonical_QSARr>
CN(C)C1C=CC(CC2C=CC(=CC=2)N(C)C)=CC=1

> <InChI_Code_QSARr>
InChI=1S/C17H22N2/c1-18(2)16-9-5-14(6-10-16)13-15-7-11-17(12-8-15)19(3)4/h5-12H,13H2,1-4H3

> <InChI Key_QSARr>
JNRLEMMIVRBKJE-UHFFFAOYSA-N

> <Salt_Solvent>


> <Salt_Solvent_ID>
0

> <MPID>
99447

> <KocRef>
Schuurmann-Main

> <LogKOC>
3.96

> <Tr_1_Tst_0>
0

$$$$
100171
  Mrv171c012251911022D          

 15 16  0  0  0  0            999 V2000
    3.6216   -2.9165    0.0000 C   0  0  0  0  0  0  0  0  0  0  0  0
    4.3361   -2.5040    0.0000 C   0  0  0  0  0  0  0  0  0  0  0  0
    4.3361   -1.6790    0.0000 C   0  0  0  0  0  0  0  0  0  0  0  0
    3.6216   -1.2665    0.0000 C   0  0  0  0  0  0  0  0  0  0  0  0
    3.6216   -0.4415    0.0000 C   0  0  0  0  0  0  0  0  0  0  0  0
    2.9071   -0.0290    0.0000 C   0  0  0  0  0  0  0  0  0  0  0  0
    2.9071    0.7960    0.0000 C   0  0  0  0  0  0  0  0  0  0  0  0
    2.1927    1.2085    0.0000 C   0  0  0  0  0  0  0  0  0  0  0  0
    1.4782    0.7960    0.0000 C   0  0  0  0  0  0  0  0  0  0  0  0
    0.7637    1.2085    0.0000 N   0  0  0  0  0  0  0  0  0  0  0  0
    1.4782   -0.0290    0.0000 C   0  0  0  0  0  0  0  0  0  0  0  0
    2.1927   -0.4415    0.0000 C   0  0  0  0  0  0  0  0  0  0  0  0
    2.9071   -1.6790    0.0000 C   0  0  0  0  0  0  0  0  0  0  0  0
    2.9071   -2.5040    0.0000 C   0  0  0  0  0  0  0  0  0  0  0  0
    3.6216   -3.7415    0.0000 N   0  0  0  0  0  0  0  0  0  0  0  0
  2  1  2  0  0  0  0
  3  2  1  0  0  0  0
  4  3  2  0  0  0  0
  4  5  1  0  0  0  0
  5  6  1  0  0  0  0
  7  6  1  0  0  0  0
  8  7  2  0  0  0  0
  9  8  1  0  0  0  0
  9 10  1  0  0  0  0
 11  9  2  0  0  0  0
 12 11  1  0  0  0  0
  6 12  2  0  0  0  0
 13  4  1  0  0  0  0
 14 13  2  0  0  0  0
  1 14  1  0  0  0  0
  1 15  1  0  0  0  0
M  END
> <ChemID>
100171

> <CAS>
101-77-9

> <Original_SMILES>
Nc1ccc(Cc2ccc(N)cc2)cc1

> <preferred_name>
4,4'-Methylenedianiline

> <dsstox_substance_id>
DTXSID6022422

> <dsstox_compound_id>
DTXCID402422

> <qc_level>
DSSTox_Low

> <Canonical_QSARr>
NC1C=CC(CC2C=CC(N)=CC=2)=CC=1

> <InChI_Code_QSARr>
InChI=1S/C13H14N2/c14-12-5-1-10(2-6-12)9-11-3-7-13(15)8-4-11/h1-8H,9,14-15H2

> <InChI Key_QSARr>
YBRVSVVVWCFQMG-UHFFFAOYSA-N

> <Salt_Solvent>


> <Salt_Solvent_ID>
0

> <MPID>
99448

> <KocRef>
Schuurmann-Main

> <LogKOC>
1.99

> <Tr_1_Tst_0>
1

$$$$
100172
  Mrv171c012251911022D          

 13 14  0  0  0  0            999 V2000
    3.5155   -1.7446    0.0000 C   0  0  0  0  0  0  0  0  0  0  0  0
    2.8010   -1.3321    0.0000 C   0  0  0  0  0  0  0  0  0  0  0  0
    2.8010   -0.5071    0.0000 O   0  0  0  0  0  0  0  0  0  0  0  0
    2.0865   -0.0946    0.0000 C   0  0  0  0  0  0  0  0  0  0  0  0
    2.0865    0.7304    0.0000 C   0  0  0  0  0  0  0  0  0  0  0  0
    1.3721    1.1429    0.0000 C   0  0  0  0  0  0  0  0  0  0  0  0
    0.6576    0.7304    0.0000 C   0  0  0  0  0  0  0  0  0  0  0  0
    0.6576   -0.0946    0.0000 C   0  0  0  0  0  0  0  0  0  0  0  0
    1.3721   -0.5071    0.0000 C   0  0  0  0  0  0  0  0  0  0  0  0
    2.0865   -1.7446    0.0000 C   0  0  0  0  0  0  0  0  0  0  0  0
    2.0865   -2.5696    0.0000 C   0  0  0  0  0  0  0  0  0  0  0  0
    2.8010   -2.9821    0.0000 C   0  0  0  0  0  0  0  0  0  0  0  0
    3.5155   -2.5696    0.0000 C   0  0  0  0  0  0  0  0  0  0  0  0
  2  1  1  0  0  0  0
  2  3  1  0  0  0  0
  3  4  1  0  0  0  0
  5  4  1  0  0  0  0
  6  5  2  0  0  0  0
  7  6  1  0  0  0  0
  8  7  2  0  0  0  0
  9  8  1  0  0  0  0
  4  9  2  0  0  0  0
 10  2  2  0  0  0  0
 11 10  1  0  0  0  0
 12 11  2  0  0  0  0
 13 12  1  0  0  0  0
  1 13  2  0  0  0  0
M  END
> <ChemID>
100172

> <CAS>
101-84-8

> <Original_SMILES>
c1ccccc1Oc1ccccc1

> <preferred_name>
Diphenyl oxide

> <dsstox_substance_id>
DTXSID9021847

> <dsstox_compound_id>
DTXCID701847

> <qc_level>
DSSTox_Low

> <Canonical_QSARr>
C1=CC=CC=C1OC1C=CC=CC=1

> <InChI_Code_QSARr>
InChI=1S/C12H10O/c1-3-7-11(8-4-1)13-12-9-5-2-6-10-12/h1-10H

> <InChI Key_QSARr>
USIUVYZYUHIAEV-UHFFFAOYSA-N

> <Salt_Solvent>


> <Salt_Solvent_ID>
0

> <MPID>
99449

> <KocRef>
Schuurmann-Main

> <LogKOC>
3.29

> <Tr_1_Tst_0>
1

$$$$
100173
  Mrv171c012251911022D          

 12 12  0  0  0  0            999 V2000
    1.4327   -0.4338    0.0000 C   0  0  0  0  0  0  0  0  0  0  0  0
    2.1471   -0.0213    0.0000 C   0  0  0  0  0  0  0  0  0  0  0  0
    2.8616   -0.4338    0.0000 C   0  0  0  0  0  0  0  0  0  0  0  0
    3.5761   -0.0213    0.0000 O   0  0  0  0  0  0  0  0  0  0  0  0
    4.2905   -0.4338    0.0000 C   0  0  0  0  0  0  0  0  0  0  0  0
    5.0050   -0.0213    0.0000 C   0  0  0  0  0  0  0  0  0  0  0  0
    2.8616   -1.2588    0.0000 O   0  0  0  0  0  0  0  0  0  0  0  0
    0.7182   -0.0213    0.0000 C   0  0  0  0  0  0  0  0  0  0  0  0
    0.0037   -0.4338    0.0000 C   0  0  0  0  0  0  0  0  0  0  0  0
    0.0037   -1.2588    0.0000 C   0  0  0  0  0  0  0  0  0  0  0  0
    0.7182   -1.6713    0.0000 C   0  0  0  0  0  0  0  0  0  0  0  0
    1.4327   -1.2588    0.0000 C   0  0  0  0  0  0  0  0  0  0  0  0
  1  2  1  0  0  0  0
  2  3  1  0  0  0  0
  3  4  1  0  0  0  0
  4  5  1  0  0  0  0
  5  6  1  0  0  0  0
  3  7  2  0  0  0  0
  8  1  1  0  0  0  0
  9  8  2  0  0  0  0
 10  9  1  0  0  0  0
 11 10  2  0  0  0  0
 12 11  1  0  0  0  0
  1 12  2  0  0  0  0
M  END
> <ChemID>
100173

> <CAS>
101-97-3

> <Original_SMILES>
CCOC(=O)Cc1ccccc1

> <preferred_name>
Ethyl phenylacetate

> <dsstox_substance_id>
DTXSID6044353

> <dsstox_compound_id>
DTXCID4024353

> <qc_level>
DSSTox_Low

> <Canonical_QSARr>
CCOC(=O)CC1C=CC=CC=1

> <InChI_Code_QSARr>
InChI=1S/C10H12O2/c1-2-12-10(11)8-9-6-4-3-5-7-9/h3-7H,2,8H2,1H3

> <InChI Key_QSARr>
DULCUDSUACXJJC-UHFFFAOYSA-N

> <Salt_Solvent>


> <Salt_Solvent_ID>
0

> <MPID>
99450

> <KocRef>
SRC 1992 Validation

> <LogKOC>
1.89

> <Tr_1_Tst_0>
1

$$$$
100174
  Mrv171c012251911022D          

 12 12  0  0  0  0            999 V2000
    0.0000   -3.6437    0.0000 C   0  0  0  0  0  0  0  0  0  0  0  0
    0.7145   -3.2312    0.0000 C   0  0  0  0  0  0  0  0  0  0  0  0
    1.4289   -3.6437    0.0000 O   0  0  0  0  0  0  0  0  0  0  0  0
    2.1434   -3.2313    0.0000 C   0  0  0  0  0  0  0  0  0  0  0  0
    2.8579   -3.6437    0.0000 N   0  0  0  0  0  0  0  0  0  0  0  0
    3.5724   -3.2313    0.0000 C   0  0  0  0  0  0  0  0  0  0  0  0
    4.2868   -3.6438    0.0000 C   0  0  0  0  0  0  0  0  0  0  0  0
    5.0013   -3.2312    0.0000 C   0  0  0  0  0  0  0  0  0  0  0  0
    5.0013   -2.4062    0.0000 C   0  0  0  0  0  0  0  0  0  0  0  0
    4.2868   -1.9937    0.0000 C   0  0  0  0  0  0  0  0  0  0  0  0
    3.5724   -2.4063    0.0000 C   0  0  0  0  0  0  0  0  0  0  0  0
    2.1434   -2.4063    0.0000 O   0  0  0  0  0  0  0  0  0  0  0  0
  1  2  1  0  0  0  0
  2  3  1  0  0  0  0
  3  4  1  0  0  0  0
  4  5  1  0  0  0  0
  5  6  1  0  0  0  0
  7  6  1  0  0  0  0
  8  7  2  0  0  0  0
  9  8  1  0  0  0  0
 10  9  2  0  0  0  0
 11 10  1  0  0  0  0
  6 11  2  0  0  0  0
  4 12  2  0  0  0  0
M  END
> <ChemID>
100174

> <CAS>
101-99-5

> <Original_SMILES>
CCOC(=O)Nc1ccccc1

> <preferred_name>
Carbamic acid, phenyl-, ethyl ester

> <dsstox_substance_id>
DTXSID0059243

> <dsstox_compound_id>
DTXCID3032593

> <qc_level>
Public_High

> <Canonical_QSARr>
CCOC(=O)NC1C=CC=CC=1

> <InChI_Code_QSARr>
InChI=1S/C9H11NO2/c1-2-12-9(11)10-8-6-4-3-5-7-8/h3-7H,2H2,1H3,(H,10,11)

> <InChI Key_QSARr>
LBKPGNUOUPTQKA-UHFFFAOYSA-N

> <Salt_Solvent>


> <Salt_Solvent_ID>
0

> <MPID>
99451

> <KocRef>
Schuurmann-Main

> <LogKOC>
1.82

> <Tr_1_Tst_0>
0

$$$$
100175
  Mrv171c012251911022D          

 26 25  0  0  0  0            999 V2000
    2.7458   -3.9001    0.0000 C   0  0  0  0  0  0  0  0  0  0  0  0
    2.0313   -3.4876    0.0000 C   0  0  0  0  0  0  0  0  0  0  0  0
    2.0313   -2.6626    0.0000 C   0  0  0  0  0  0  0  0  0  0  0  0
    1.3169   -2.2501    0.0000 C   0  0  0  0  0  0  0  0  0  0  0  0
    0.6024   -2.6626    0.0000 C   0  0  0  0  0  0  0  0  0  0  0  0
   -0.1121   -2.2501    0.0000 C   0  0  0  0  0  0  0  0  0  0  0  0
   -0.8265   -2.6626    0.0000 C   0  0  0  0  0  0  0  0  0  0  0  0
    2.7458   -2.2501    0.0000 C   0  0  0  0  0  0  0  0  0  0  0  0
    3.4603   -2.6626    0.0000 O   0  0  0  0  0  0  0  0  0  0  0  0
    4.1748   -2.2501    0.0000 C   0  0  0  0  0  0  0  0  0  0  0  0
    4.8892   -2.6626    0.0000 C   0  0  0  0  0  0  0  0  0  0  0  0
    5.6037   -2.2501    0.0000 C   0  0  0  0  0  0  0  0  0  0  0  0
    6.3182   -2.6626    0.0000 C   0  0  0  0  0  0  0  0  0  0  0  0
    7.0326   -2.2501    0.0000 C   0  0  0  0  0  0  0  0  0  0  0  0
    7.7471   -2.6626    0.0000 C   0  0  0  0  0  0  0  0  0  0  0  0
    8.4616   -2.2501    0.0000 O   0  0  0  0  0  0  0  0  0  0  0  0
    9.1761   -2.6626    0.0000 C   0  0  0  0  0  0  0  0  0  0  0  0
    9.8905   -2.2501    0.0000 C   0  0  0  0  0  0  0  0  0  0  0  0
    9.8905   -1.4251    0.0000 C   0  0  0  0  0  0  0  0  0  0  0  0
   10.6050   -1.0126    0.0000 C   0  0  0  0  0  0  0  0  0  0  0  0
   10.6050   -2.6626    0.0000 C   0  0  0  0  0  0  0  0  0  0  0  0
   11.3195   -2.2501    0.0000 C   0  0  0  0  0  0  0  0  0  0  0  0
   12.0339   -2.6626    0.0000 C   0  0  0  0  0  0  0  0  0  0  0  0
   12.7484   -2.2501    0.0000 C   0  0  0  0  0  0  0  0  0  0  0  0
    7.7471   -3.4876    0.0000 O   0  0  0  0  0  0  0  0  0  0  0  0
    4.1748   -1.4251    0.0000 O   0  0  0  0  0  0  0  0  0  0  0  0
  1  2  1  0  0  0  0
  2  3  1  0  0  0  0
  3  4  1  0  0  0  0
  4  5  1  0  0  0  0
  5  6  1  0  0  0  0
  6  7  1  0  0  0  0
  3  8  1  0  0  0  0
  8  9  1  0  0  0  0
  9 10  1  0  0  0  0
 10 11  1  0  0  0  0
 11 12  1  0  0  0  0
 12 13  1  0  0  0  0
 13 14  1  0  0  0  0
 14 15  1  0  0  0  0
 15 16  1  0  0  0  0
 16 17  1  0  0  0  0
 17 18  1  0  0  0  0
 18 19  1  0  0  0  0
 19 20  1  0  0  0  0
 18 21  1  0  0  0  0
 21 22  1  0  0  0  0
 22 23  1  0  0  0  0
 23 24  1  0  0  0  0
 15 25  2  0  0  0  0
 10 26  2  0  0  0  0
M  END
> <ChemID>
100175

> <CAS>
103-23-1

> <Original_SMILES>
CCCCC(COC(=O)CCCCC(=O)OCC(CCCC)CC)CC

> <preferred_name>
Di(2-ethylhexyl) adipate

> <dsstox_substance_id>
DTXSID0020606

> <dsstox_compound_id>
DTXCID40606

> <qc_level>
DSSTox_High

> <Canonical_QSARr>
CCCCC(COC(=O)CCCCC(=O)OCC(CCCC)CC)CC

> <InChI_Code_QSARr>
InChI=1S/C22H42O4/c1-5-9-13-19(7-3)17-25-21(23)15-11-12-16-22(24)26-18-20(8-4)14-10-6-2/h19-20H,5-18H2,1-4H3

> <InChI Key_QSARr>
SAOKZLXYCUGLFA-UHFFFAOYSA-N

> <Salt_Solvent>


> <Salt_Solvent_ID>
0

> <MPID>
99452

> <KocRef>
Schuurmann-Main

> <LogKOC>
4.19

> <Tr_1_Tst_0>
1

$$$$
100176
  Mrv171c012251911022D          

 14 15  0  0  0  0            999 V2000
    2.4492   -0.9191    0.0000 N   0  0  0  0  0  0  0  0  0  0  0  0
    2.4492   -1.7441    0.0000 C   0  0  0  0  0  0  0  0  0  0  0  0
    1.7347   -2.1566    0.0000 C   0  0  0  0  0  0  0  0  0  0  0  0
    1.7347   -2.9816    0.0000 C   0  0  0  0  0  0  0  0  0  0  0  0
    2.4492   -3.3941    0.0000 C   0  0  0  0  0  0  0  0  0  0  0  0
    3.1637   -2.9816    0.0000 C   0  0  0  0  0  0  0  0  0  0  0  0
    3.1637   -2.1566    0.0000 C   0  0  0  0  0  0  0  0  0  0  0  0
    3.1637   -0.5066    0.0000 N   0  0  0  0  0  0  0  0  0  0  0  0
    3.1637    0.3184    0.0000 C   0  0  0  0  0  0  0  0  0  0  0  0
    3.8782    0.7309    0.0000 C   0  0  0  0  0  0  0  0  0  0  0  0
    3.8782    1.5559    0.0000 C   0  0  0  0  0  0  0  0  0  0  0  0
    3.1637    1.9684    0.0000 C   0  0  0  0  0  0  0  0  0  0  0  0
    2.4492    1.5559    0.0000 C   0  0  0  0  0  0  0  0  0  0  0  0
    2.4492    0.7309    0.0000 C   0  0  0  0  0  0  0  0  0  0  0  0
  1  2  1  4  0  0  0
  3  2  1  0  0  0  0
  4  3  2  0  0  0  0
  5  4  1  0  0  0  0
  6  5  2  0  0  0  0
  7  6  1  0  0  0  0
  2  7  2  0  0  0  0
  1  8  2  0  0  0  0
  8  9  1  0  0  0  0
 10  9  1  0  0  0  0
 11 10  2  0  0  0  0
 12 11  1  0  0  0  0
 13 12  2  0  0  0  0
 14 13  1  0  0  0  0
  9 14  2  0  0  0  0
M  END
> <ChemID>
100176

> <CAS>
103-33-3

> <Original_SMILES>
c1ccccc1N=Nc1ccccc1

> <preferred_name>
Azobenzene

> <dsstox_substance_id>
DTXSID8020123

> <dsstox_compound_id>
DTXCID40123

> <qc_level>
DSSTox_Low

> <Canonical_QSARr>
C1=CC=CC=C1N=NC1C=CC=CC=1

> <InChI_Code_QSARr>
InChI=1S/C12H10N2/c1-3-7-11(8-4-1)13-14-12-9-5-2-6-10-12/h1-10H

> <InChI Key_QSARr>
DMLAVOWQYNRWNQ-UHFFFAOYSA-N

> <Salt_Solvent>


> <Salt_Solvent_ID>
0

> <MPID>
99453

> <KocRef>
Schuurmann-Main

> <LogKOC>
3.3

> <Tr_1_Tst_0>
1

$$$$
100177
  Mrv171c012251911022D          

 12 12  0  0  0  0            999 V2000
    1.4264   -0.8940    0.0000 C   0  0  0  0  0  0  0  0  0  0  0  0
    0.7119   -0.4815    0.0000 C   0  0  0  0  0  0  0  0  0  0  0  0
   -0.0025   -0.8940    0.0000 C   0  0  0  0  0  0  0  0  0  0  0  0
   -0.0025   -1.7190    0.0000 C   0  0  0  0  0  0  0  0  0  0  0  0
    0.7119   -2.1315    0.0000 C   0  0  0  0  0  0  0  0  0  0  0  0
    1.4264   -1.7190    0.0000 C   0  0  0  0  0  0  0  0  0  0  0  0
    2.1409   -0.4815    0.0000 C   0  0  0  0  0  0  0  0  0  0  0  0
    2.8554   -0.8940    0.0000 C   0  0  0  0  0  0  0  0  0  0  0  0
    3.5698   -0.4815    0.0000 O   0  0  0  0  0  0  0  0  0  0  0  0
    4.2843   -0.8940    0.0000 C   0  0  0  0  0  0  0  0  0  0  0  0
    4.9988   -0.4815    0.0000 C   0  0  0  0  0  0  0  0  0  0  0  0
    4.2843   -1.7190    0.0000 O   0  0  0  0  0  0  0  0  0  0  0  0
  2  1  2  0  0  0  0
  3  2  1  0  0  0  0
  4  3  2  0  0  0  0
  5  4  1  0  0  0  0
  6  5  2  0  0  0  0
  1  6  1  0  0  0  0
  1  7  1  0  0  0  0
  7  8  1  0  0  0  0
  8  9  1  0  0  0  0
  9 10  1  0  0  0  0
 10 11  1  0  0  0  0
 10 12  2  0  0  0  0
M  END
> <ChemID>
100177

> <CAS>
103-45-7

> <Original_SMILES>
CC(=O)OCCc1ccccc1

> <preferred_name>
2-Phenylethyl acetate

> <dsstox_substance_id>
DTXSID7044506

> <dsstox_compound_id>
DTXCID5024506

> <qc_level>
DSSTox_Low

> <Canonical_QSARr>
CC(=O)OCCC1C=CC=CC=1

> <InChI_Code_QSARr>
InChI=1S/C10H12O2/c1-9(11)12-8-7-10-5-3-2-4-6-10/h2-6H,7-8H2,1H3

> <InChI Key_QSARr>
MDHYEMXUFSJLGV-UHFFFAOYSA-N

> <Salt_Solvent>


> <Salt_Solvent_ID>
0

> <MPID>
99454

> <KocRef>
Schuurmann-Main

> <LogKOC>
1.89

> <Tr_1_Tst_0>
1

$$$$
100178
  Mrv171c012251911022D          

  9  9  0  0  0  0            999 V2000
    1.2747   -0.5068    0.0000 C   0  0  0  0  0  0  0  0  0  0  0  0
    1.2747    0.3182    0.0000 C   0  0  0  0  0  0  0  0  0  0  0  0
    1.9892    0.7307    0.0000 C   0  0  0  0  0  0  0  0  0  0  0  0
    1.9892    1.5557    0.0000 C   0  0  0  0  0  0  0  0  0  0  0  0
    0.5603   -0.9193    0.0000 C   0  0  0  0  0  0  0  0  0  0  0  0
    0.5603   -1.7443    0.0000 C   0  0  0  0  0  0  0  0  0  0  0  0
    1.2747   -2.1568    0.0000 C   0  0  0  0  0  0  0  0  0  0  0  0
    1.9892   -1.7443    0.0000 C   0  0  0  0  0  0  0  0  0  0  0  0
    1.9892   -0.9193    0.0000 C   0  0  0  0  0  0  0  0  0  0  0  0
  1  2  1  0  0  0  0
  2  3  1  0  0  0  0
  3  4  1  0  0  0  0
  5  1  2  0  0  0  0
  6  5  1  0  0  0  0
  7  6  2  0  0  0  0
  8  7  1  0  0  0  0
  9  8  2  0  0  0  0
  1  9  1  0  0  0  0
M  END
> <ChemID>
100178

> <CAS>
103-65-1

> <Original_SMILES>
CCCc1ccccc1

> <preferred_name>
Propylbenzene

> <dsstox_substance_id>
DTXSID3042219

> <dsstox_compound_id>
DTXCID1022219

> <qc_level>
DSSTox_Low

> <Canonical_QSARr>
CCCC1C=CC=CC=1

> <InChI_Code_QSARr>
InChI=1S/C9H12/c1-2-6-9-7-4-3-5-8-9/h3-5,7-8H,2,6H2,1H3

> <InChI Key_QSARr>
ODLMAHJVESYWTB-UHFFFAOYSA-N

> <Salt_Solvent>


> <Salt_Solvent_ID>
0

> <MPID>
99455

> <KocRef>
SRC 1992 NonPolar Val

> <LogKOC>
2.87

> <Tr_1_Tst_0>
0

$$$$
100179
  Mrv171c012251911022D          

  9  9  0  0  0  0            999 V2000
    1.9924    0.2702    0.0000 C   0  0  0  0  0  0  0  0  0  0  0  0
    1.9924    1.0952    0.0000 O   0  0  0  0  0  0  0  0  0  0  0  0
    1.2779   -0.1423    0.0000 C   0  0  0  0  0  0  0  0  0  0  0  0
    1.2779   -0.9673    0.0000 C   0  0  0  0  0  0  0  0  0  0  0  0
    0.5634   -1.3798    0.0000 C   0  0  0  0  0  0  0  0  0  0  0  0
    0.5634   -2.2048    0.0000 C   0  0  0  0  0  0  0  0  0  0  0  0
    1.2779   -2.6173    0.0000 C   0  0  0  0  0  0  0  0  0  0  0  0
    1.9924   -2.2048    0.0000 C   0  0  0  0  0  0  0  0  0  0  0  0
    1.9924   -1.3798    0.0000 N   0  0  0  0  0  0  0  0  0  0  0  0
  1  2  1  0  0  0  0
  1  3  1  0  0  0  0
  3  4  1  0  0  0  0
  5  4  1  0  0  0  0
  6  5  2  0  0  0  0
  7  6  1  0  0  0  0
  8  7  2  0  0  0  0
  9  8  1  0  0  0  0
  4  9  2  0  0  0  0
M  END
> <ChemID>
100179

> <CAS>
103-74-2

> <Original_SMILES>
OCCc1cccc[n]1

> <preferred_name>
2-(Pyridin-2-yl)ethanol

> <dsstox_substance_id>
DTXSID2044767

> <dsstox_compound_id>
DTXCID0024767

> <qc_level>
DSSTox_Low

> <Canonical_QSARr>
OCCC1C=CC=CN=1

> <InChI_Code_QSARr>
InChI=1S/C7H9NO/c9-6-4-7-3-1-2-5-8-7/h1-3,5,9H,4,6H2

> <InChI Key_QSARr>
BXGYBSJAZFGIPX-UHFFFAOYSA-N

> <Salt_Solvent>


> <Salt_Solvent_ID>
0

> <MPID>
99456

> <KocRef>
Schuurmann-Main

> <LogKOC>
1.45

> <Tr_1_Tst_0>
1

$$$$
100180
  Mrv171c012251911022D          

 10 10  0  0  0  0            999 V2000
    2.4299    1.0708    0.0000 O   0  0  0  0  0  0  0  0  0  0  0  0
    2.4299    0.2458    0.0000 C   0  0  0  0  0  0  0  0  0  0  0  0
    3.1443   -0.1667    0.0000 O   0  0  0  0  0  0  0  0  0  0  0  0
    1.7154   -0.1667    0.0000 C   0  0  0  0  0  0  0  0  0  0  0  0
    1.7154   -0.9917    0.0000 C   0  0  0  0  0  0  0  0  0  0  0  0
    1.0009   -1.4042    0.0000 C   0  0  0  0  0  0  0  0  0  0  0  0
    1.0009   -2.2292    0.0000 C   0  0  0  0  0  0  0  0  0  0  0  0
    1.7154   -2.6417    0.0000 C   0  0  0  0  0  0  0  0  0  0  0  0
    2.4299   -2.2292    0.0000 C   0  0  0  0  0  0  0  0  0  0  0  0
    2.4299   -1.4042    0.0000 C   0  0  0  0  0  0  0  0  0  0  0  0
  1  2  1  0  0  0  0
  2  3  2  0  0  0  0
  2  4  1  0  0  0  0
  4  5  1  0  0  0  0
  6  5  1  0  0  0  0
  7  6  2  0  0  0  0
  8  7  1  0  0  0  0
  9  8  2  0  0  0  0
 10  9  1  0  0  0  0
  5 10  2  0  0  0  0
M  END
> <ChemID>
100180

> <CAS>
103-82-2

> <Original_SMILES>
OC(=O)Cc1ccccc1

> <preferred_name>
Phenylacetic acid

> <dsstox_substance_id>
DTXSID2021656

> <dsstox_compound_id>
DTXCID201656

> <qc_level>
DSSTox_Low

> <Canonical_QSARr>
OC(=O)CC1C=CC=CC=1

> <InChI_Code_QSARr>
InChI=1S/C8H8O2/c9-8(10)6-7-4-2-1-3-5-7/h1-5H,6H2,(H,9,10)

> <InChI Key_QSARr>
WLJVXDMOQOGPHL-UHFFFAOYSA-N

> <Salt_Solvent>


> <Salt_Solvent_ID>
0

> <MPID>
99457

> <KocRef>
Schuurmann-Main

> <LogKOC>
1.45

> <Tr_1_Tst_0>
1

$$$$
100181
  Mrv171c012251911022D          

 10 10  0  0  0  0            999 V2000
    2.5717   -1.4036    0.0000 C   0  0  0  0  0  0  0  0  0  0  0  0
    1.8572   -0.9911    0.0000 C   0  0  0  0  0  0  0  0  0  0  0  0
    1.8572   -0.1661    0.0000 N   0  0  0  0  0  0  0  0  0  0  0  0
    1.1428    0.2464    0.0000 C   0  0  0  0  0  0  0  0  0  0  0  0
    1.1428    1.0714    0.0000 O   0  0  0  0  0  0  0  0  0  0  0  0
    0.4283   -0.1661    0.0000 C   0  0  0  0  0  0  0  0  0  0  0  0
    1.1428   -1.4036    0.0000 C   0  0  0  0  0  0  0  0  0  0  0  0
    1.1428   -2.2286    0.0000 C   0  0  0  0  0  0  0  0  0  0  0  0
    1.8572   -2.6411    0.0000 C   0  0  0  0  0  0  0  0  0  0  0  0
    2.5717   -2.2286    0.0000 C   0  0  0  0  0  0  0  0  0  0  0  0
  2  1  1  0  0  0  0
  2  3  1  0  0  0  0
  3  4  1  0  0  0  0
  4  5  2  0  0  0  0
  4  6  1  0  0  0  0
  7  2  2  0  0  0  0
  8  7  1  0  0  0  0
  9  8  2  0  0  0  0
 10  9  1  0  0  0  0
  1 10  2  0  0  0  0
M  END
> <ChemID>
100181

> <CAS>
103-84-4

> <Original_SMILES>
CC(=O)Nc1ccccc1

> <preferred_name>
Acetanilide

> <dsstox_substance_id>
DTXSID2022543

> <dsstox_compound_id>
DTXCID602543

> <qc_level>
DSSTox_Low

> <Canonical_QSARr>
CC(=O)NC1C=CC=CC=1

> <InChI_Code_QSARr>
InChI=1S/C8H9NO/c1-7(10)9-8-5-3-2-4-6-8/h2-6H,1H3,(H,9,10)

> <InChI Key_QSARr>
FZERHIULMFGESH-UHFFFAOYSA-N

> <Salt_Solvent>


> <Salt_Solvent_ID>
0

> <MPID>
99458

> <KocRef>
Schuurmann-Main

> <LogKOC>
1.43

> <Tr_1_Tst_0>
1

$$$$
100182
  Mrv171c012251911022D          

 11 11  0  0  0  0            999 V2000
    1.2341    0.7875    0.0000 C   0  0  0  0  0  0  0  0  0  0  0  0
    1.2341   -0.0375    0.0000 N   0  0  0  0  0  0  0  0  0  0  0  0
    0.5196   -0.4500    0.0000 C   0  0  0  0  0  0  0  0  0  0  0  0
    0.5196   -1.2750    0.0000 O   0  0  0  0  0  0  0  0  0  0  0  0
   -0.1949   -0.0375    0.0000 C   0  0  0  0  0  0  0  0  0  0  0  0
    1.9485    1.2000    0.0000 C   0  0  0  0  0  0  0  0  0  0  0  0
    1.9485    2.0250    0.0000 C   0  0  0  0  0  0  0  0  0  0  0  0
    1.2341    2.4375    0.0000 C   0  0  0  0  0  0  0  0  0  0  0  0
    1.2341    3.2625    0.0000 Br  0  0  0  0  0  0  0  0  0  0  0  0
    0.5196    2.0250    0.0000 C   0  0  0  0  0  0  0  0  0  0  0  0
    0.5196    1.2000    0.0000 C   0  0  0  0  0  0  0  0  0  0  0  0
  1  2  1  0  0  0  0
  2  3  1  0  0  0  0
  3  4  2  0  0  0  0
  3  5  1  0  0  0  0
  6  1  1  0  0  0  0
  7  6  2  0  0  0  0
  8  7  1  0  0  0  0
  8  9  1  0  0  0  0
 10  8  2  0  0  0  0
 11 10  1  0  0  0  0
  1 11  2  0  0  0  0
M  END
> <ChemID>
100182

> <CAS>
103-88-8

> <Original_SMILES>
CC(=O)Nc1ccc(Br)cc1

> <preferred_name>
Acetamide, N-(4-bromophenyl)-

> <dsstox_substance_id>
DTXSID6059283

> <dsstox_compound_id>
DTXCID6032772

> <qc_level>
Public_High

> <Canonical_QSARr>
CC(=O)NC1C=CC(Br)=CC=1

> <InChI_Code_QSARr>
InChI=1S/C8H8BrNO/c1-6(11)10-8-4-2-7(9)3-5-8/h2-5H,1H3,(H,10,11)

> <InChI Key_QSARr>
MSLICLMCQYQNPK-UHFFFAOYSA-N

> <Salt_Solvent>


> <Salt_Solvent_ID>
0

> <MPID>
99459

> <KocRef>
Schuurmann-Main

> <LogKOC>
1.95

> <Tr_1_Tst_0>
0

$$$$
100183
  Mrv171c012251911022D          

 16 16  0  0  0  0            999 V2000
    0.0169   -1.6513    0.0000 C   0  0  0  0  0  0  0  0  0  0  0  0
    0.7314   -1.2388    0.0000 C   0  0  0  0  0  0  0  0  0  0  0  0
    1.4459   -1.6513    0.0000 C   0  0  0  0  0  0  0  0  0  0  0  0
    2.1603   -1.2388    0.0000 C   0  0  0  0  0  0  0  0  0  0  0  0
    2.8748   -1.6513    0.0000 C   0  0  0  0  0  0  0  0  0  0  0  0
    3.5893   -1.2388    0.0000 C   0  0  0  0  0  0  0  0  0  0  0  0
    4.3037   -1.6513    0.0000 C   0  0  0  0  0  0  0  0  0  0  0  0
    5.0182   -1.2388    0.0000 C   0  0  0  0  0  0  0  0  0  0  0  0
    5.7327   -1.6513    0.0000 C   0  0  0  0  0  0  0  0  0  0  0  0
    6.4472   -1.2388    0.0000 C   0  0  0  0  0  0  0  0  0  0  0  0
    7.1616   -1.6513    0.0000 C   0  0  0  0  0  0  0  0  0  0  0  0
    7.8761   -1.2388    0.0000 C   0  0  0  0  0  0  0  0  0  0  0  0
    7.8761   -0.4138    0.0000 C   0  0  0  0  0  0  0  0  0  0  0  0
    8.5906   -0.0013    0.0000 O   0  0  0  0  0  0  0  0  0  0  0  0
    7.1616   -0.0013    0.0000 C   0  0  0  0  0  0  0  0  0  0  0  0
    6.4472   -0.4138    0.0000 C   0  0  0  0  0  0  0  0  0  0  0  0
  1  2  1  0  0  0  0
  2  3  1  0  0  0  0
  3  4  1  0  0  0  0
  4  5  1  0  0  0  0
  5  6  1  0  0  0  0
  6  7  1  0  0  0  0
  7  8  1  0  0  0  0
  8  9  1  0  0  0  0
  9 10  1  0  0  0  0
 11 10  1  0  0  0  0
 12 11  2  0  0  0  0
 13 12  1  0  0  0  0
 13 14  1  0  0  0  0
 15 13  2  0  0  0  0
 16 15  1  0  0  0  0
 10 16  2  0  0  0  0
M  END
> <ChemID>
100183

> <CAS>
104-40-5

> <Original_SMILES>
CCCCCCCCCc1ccc(O)cc1

> <preferred_name>
4-Nonylphenol

> <dsstox_substance_id>
DTXSID5033836

> <dsstox_compound_id>
DTXCID001857

> <qc_level>
DSSTox_High

> <Canonical_QSARr>
CCCCCCCCCC1C=CC(O)=CC=1

> <InChI_Code_QSARr>
InChI=1S/C15H24O/c1-2-3-4-5-6-7-8-9-14-10-12-15(16)13-11-14/h10-13,16H,2-9H2,1H3

> <InChI Key_QSARr>
IGFHQQFPSIBGKE-UHFFFAOYSA-N

> <Salt_Solvent>


> <Salt_Solvent_ID>
0

> <MPID>
99460

> <KocRef>
Schuurmann-Main

> <LogKOC>
3.84

> <Tr_1_Tst_0>
1

$$$$
100184
  Mrv171c012251911022D          

 10 10  0  0  0  0            999 V2000
    2.8556   -1.2371    0.0000 C   0  0  0  0  0  0  0  0  0  0  0  0
    2.1412   -1.6496    0.0000 C   0  0  0  0  0  0  0  0  0  0  0  0
    2.1412   -2.4746    0.0000 C   0  0  0  0  0  0  0  0  0  0  0  0
    2.8556   -2.8871    0.0000 C   0  0  0  0  0  0  0  0  0  0  0  0
    3.5701   -2.4746    0.0000 C   0  0  0  0  0  0  0  0  0  0  0  0
    3.5701   -1.6496    0.0000 C   0  0  0  0  0  0  0  0  0  0  0  0
    2.8556   -0.4121    0.0000 C   0  0  0  0  0  0  0  0  0  0  0  0
    2.1412    0.0004    0.0000 C   0  0  0  0  0  0  0  0  0  0  0  0
    2.1412    0.8254    0.0000 C   0  0  0  0  0  0  0  0  0  0  0  0
    1.4267    1.2379    0.0000 C   0  0  0  0  0  0  0  0  0  0  0  0
  2  1  2  0  0  0  0
  3  2  1  0  0  0  0
  4  3  2  0  0  0  0
  5  4  1  0  0  0  0
  6  5  2  0  0  0  0
  1  6  1  0  0  0  0
  1  7  1  0  0  0  0
  7  8  1  0  0  0  0
  8  9  1  0  0  0  0
  9 10  1  0  0  0  0
M  END
> <ChemID>
100184

> <CAS>
104-51-8

> <Original_SMILES>
CCCCc1ccccc1

> <preferred_name>
Butylbenzene

> <dsstox_substance_id>
DTXSID6022472

> <dsstox_compound_id>
DTXCID902472

> <qc_level>
DSSTox_Low

> <Canonical_QSARr>
CCCCC1C=CC=CC=1

> <InChI_Code_QSARr>
InChI=1S/C10H14/c1-2-3-7-10-8-5-4-6-9-10/h4-6,8-9H,2-3,7H2,1H3

> <InChI Key_QSARr>
OCKPCBLVNKHBMX-UHFFFAOYSA-N

> <Salt_Solvent>


> <Salt_Solvent_ID>
0

> <MPID>
99461

> <KocRef>
SRC 1992 Non-Polar

> <LogKOC>
3.39

> <Tr_1_Tst_0>
1

$$$$
100185
  Mrv171c012251911022D          

  9  9  0  0  0  0            999 V2000
    3.0381   -2.4903    0.0000 O   0  0  0  0  0  0  0  0  0  0  0  0
    2.3236   -2.9028    0.0000 C   0  0  0  0  0  0  0  0  0  0  0  0
    3.0381   -1.6653    0.0000 C   0  0  0  0  0  0  0  0  0  0  0  0
    3.7526   -1.2528    0.0000 C   0  0  0  0  0  0  0  0  0  0  0  0
    3.7526   -0.4278    0.0000 C   0  0  0  0  0  0  0  0  0  0  0  0
    3.0381   -0.0153    0.0000 C   0  0  0  0  0  0  0  0  0  0  0  0
    3.0381    0.8097    0.0000 N   0  0  0  0  0  0  0  0  0  0  0  0
    2.3236   -0.4278    0.0000 C   0  0  0  0  0  0  0  0  0  0  0  0
    2.3236   -1.2528    0.0000 C   0  0  0  0  0  0  0  0  0  0  0  0
  1  2  1  0  0  0  0
  1  3  1  0  0  0  0
  4  3  1  0  0  0  0
  5  4  2  0  0  0  0
  6  5  1  0  0  0  0
  6  7  1  0  0  0  0
  8  6  2  0  0  0  0
  9  8  1  0  0  0  0
  3  9  2  0  0  0  0
M  END
> <ChemID>
100185

> <CAS>
104-94-9

> <Original_SMILES>
COc1ccc(N)cc1

> <preferred_name>
4-Methoxyaniline

> <dsstox_substance_id>
DTXSID7024532

> <dsstox_compound_id>
DTXCID104532

> <qc_level>
DSSTox_Low

> <Canonical_QSARr>
COC1C=CC(N)=CC=1

> <InChI_Code_QSARr>
InChI=1S/C7H9NO/c1-9-7-4-2-6(8)3-5-7/h2-5H,8H2,1H3

> <InChI Key_QSARr>
BHAAPTBBJKJZER-UHFFFAOYSA-N

> <Salt_Solvent>


> <Salt_Solvent_ID>
0

> <MPID>
99462

> <KocRef>
Nguyen-Add

> <LogKOC>
1.93

> <Tr_1_Tst_0>
1

$$$$
100186
  Mrv171c012251911022D          

 11 10  0  0  0  0            999 V2000
    2.3423   -0.8240    0.0000 C   0  0  0  0  0  0  0  0  0  0  0  0
    2.3423    0.0010    0.0000 O   0  0  0  0  0  0  0  0  0  0  0  0
    1.6279   -1.2365    0.0000 O   0  0  0  0  0  0  0  0  0  0  0  0
    0.9134   -0.8240    0.0000 C   0  0  0  0  0  0  0  0  0  0  0  0
    0.1989   -1.2365    0.0000 C   0  0  0  0  0  0  0  0  0  0  0  0
    3.0568   -1.2365    0.0000 C   0  0  0  0  0  0  0  0  0  0  0  0
    3.7713   -0.8240    0.0000 C   0  0  0  0  0  0  0  0  0  0  0  0
    4.4857   -1.2365    0.0000 C   0  0  0  0  0  0  0  0  0  0  0  0
    5.2002   -0.8240    0.0000 C   0  0  0  0  0  0  0  0  0  0  0  0
    5.9147   -1.2365    0.0000 C   0  0  0  0  0  0  0  0  0  0  0  0
    6.6292   -0.8240    0.0000 C   0  0  0  0  0  0  0  0  0  0  0  0
  1  2  2  0  0  0  0
  1  3  1  0  0  0  0
  3  4  1  0  0  0  0
  4  5  1  0  0  0  0
  1  6  1  0  0  0  0
  6  7  1  0  0  0  0
  7  8  1  0  0  0  0
  8  9  1  0  0  0  0
  9 10  1  0  0  0  0
 10 11  1  0  0  0  0
M  END
> <ChemID>
100186

> <CAS>
106-30-9

> <Original_SMILES>
CCCCCCC(=O)OCC

> <preferred_name>
Ethyl heptanoate

> <dsstox_substance_id>
DTXSID1040112

> <dsstox_compound_id>
DTXCID9020112

> <qc_level>
DSSTox_Low

> <Canonical_QSARr>
CCCCCCC(=O)OCC

> <InChI_Code_QSARr>
InChI=1S/C9H18O2/c1-3-5-6-7-8-9(10)11-4-2/h3-8H2,1-2H3

> <InChI Key_QSARr>
TVQGDYNRXLTQAP-UHFFFAOYSA-N

> <Salt_Solvent>


> <Salt_Solvent_ID>
0

> <MPID>
99463

> <KocRef>
Schuurmann-Main

> <LogKOC>
2.61

> <Tr_1_Tst_0>
0

$$$$
100187
  Mrv171c012251911022D          

 12 11  0  0  0  0            999 V2000
    7.2474   -1.4903    0.0000 C   0  0  0  0  0  0  0  0  0  0  0  0
    6.5329   -1.0778    0.0000 C   0  0  0  0  0  0  0  0  0  0  0  0
    5.8184   -1.4903    0.0000 C   0  0  0  0  0  0  0  0  0  0  0  0
    5.1040   -1.0778    0.0000 C   0  0  0  0  0  0  0  0  0  0  0  0
    4.3895   -1.4903    0.0000 C   0  0  0  0  0  0  0  0  0  0  0  0
    3.6750   -1.0778    0.0000 C   0  0  0  0  0  0  0  0  0  0  0  0
    2.9606   -1.4903    0.0000 C   0  0  0  0  0  0  0  0  0  0  0  0
    2.2461   -1.0778    0.0000 C   0  0  0  0  0  0  0  0  0  0  0  0
    7.9619   -1.0778    0.0000 O   0  0  0  0  0  0  0  0  0  0  0  0
    8.6763   -1.4903    0.0000 C   0  0  0  0  0  0  0  0  0  0  0  0
    9.3908   -1.0778    0.0000 C   0  0  0  0  0  0  0  0  0  0  0  0
    7.2474   -2.3153    0.0000 O   0  0  0  0  0  0  0  0  0  0  0  0
  1  2  1  0  0  0  0
  2  3  1  0  0  0  0
  3  4  1  0  0  0  0
  4  5  1  0  0  0  0
  5  6  1  0  0  0  0
  6  7  1  0  0  0  0
  7  8  1  0  0  0  0
  1  9  1  0  0  0  0
  9 10  1  0  0  0  0
 10 11  1  0  0  0  0
  1 12  2  0  0  0  0
M  END
> <ChemID>
100187

> <CAS>
106-32-1

> <Original_SMILES>
CCCCCCCC(=O)OCC

> <preferred_name>
Ethyl octanoate

> <dsstox_substance_id>
DTXSID8051542

> <dsstox_compound_id>
DTXCID9030094

> <qc_level>
DSSTox_High

> <Canonical_QSARr>
CCCCCCCC(=O)OCC

> <InChI_Code_QSARr>
InChI=1S/C10H20O2/c1-3-5-6-7-8-9-10(11)12-4-2/h3-9H2,1-2H3

> <InChI Key_QSARr>
YYZUSRORWSJGET-UHFFFAOYSA-N

> <Salt_Solvent>


> <Salt_Solvent_ID>
0

> <MPID>
99464

> <KocRef>
Schuurmann-Main

> <LogKOC>
3.02

> <Tr_1_Tst_0>
1

$$$$
100188
  Mrv171c012251911022D          

  8  8  0  0  0  0            999 V2000
    1.6500   -2.3653    0.0000 N   0  0  0  0  0  0  0  0  0  0  0  0
    1.6500   -1.5403    0.0000 C   0  0  0  0  0  0  0  0  0  0  0  0
    2.3645   -1.1278    0.0000 C   0  0  0  0  0  0  0  0  0  0  0  0
    2.3645   -0.3028    0.0000 C   0  0  0  0  0  0  0  0  0  0  0  0
    1.6500    0.1097    0.0000 C   0  0  0  0  0  0  0  0  0  0  0  0
    1.6500    0.9347    0.0000 Br  0  0  0  0  0  0  0  0  0  0  0  0
    0.9355   -0.3028    0.0000 C   0  0  0  0  0  0  0  0  0  0  0  0
    0.9355   -1.1278    0.0000 C   0  0  0  0  0  0  0  0  0  0  0  0
  1  2  1  0  0  0  0
  3  2  1  0  0  0  0
  4  3  2  0  0  0  0
  5  4  1  0  0  0  0
  5  6  1  0  0  0  0
  7  5  2  0  0  0  0
  8  7  1  0  0  0  0
  2  8  2  0  0  0  0
M  END
> <ChemID>
100188

> <CAS>
106-40-1

> <Original_SMILES>
Nc1ccc(Br)cc1

> <preferred_name>
4-Bromoaniline

> <dsstox_substance_id>
DTXSID7021867

> <dsstox_compound_id>
DTXCID301867

> <qc_level>
DSSTox_Low

> <Canonical_QSARr>
NC1=CC=C(Br)C=C1

> <InChI_Code_QSARr>
InChI=1S/C6H6BrN/c7-5-1-3-6(8)4-2-5/h1-4H,8H2

> <InChI Key_QSARr>
WDFQBORIUYODSI-UHFFFAOYSA-N

> <Salt_Solvent>


> <Salt_Solvent_ID>
0

> <MPID>
99465

> <KocRef>
Schuurmann-Main

> <LogKOC>
1.96

> <Tr_1_Tst_0>
1

$$$$
100189
  Mrv171c012251911022D          

  8  8  0  0  0  0            999 V2000
    0.7109   -2.4876    0.0000 C   0  0  0  0  0  0  0  0  0  0  0  0
    1.4254   -2.0751    0.0000 C   0  0  0  0  0  0  0  0  0  0  0  0
    1.4254   -1.2501    0.0000 C   0  0  0  0  0  0  0  0  0  0  0  0
    0.7109   -0.8376    0.0000 C   0  0  0  0  0  0  0  0  0  0  0  0
    0.7109   -0.0126    0.0000 Br  0  0  0  0  0  0  0  0  0  0  0  0
   -0.0036   -1.2501    0.0000 C   0  0  0  0  0  0  0  0  0  0  0  0
   -0.0036   -2.0751    0.0000 C   0  0  0  0  0  0  0  0  0  0  0  0
    0.7109   -3.3126    0.0000 O   0  0  0  0  0  0  0  0  0  0  0  0
  2  1  1  0  0  0  0
  3  2  2  0  0  0  0
  4  3  1  0  0  0  0
  4  5  1  0  0  0  0
  6  4  2  0  0  0  0
  7  6  1  0  0  0  0
  1  7  2  0  0  0  0
  1  8  1  0  0  0  0
M  END
> <ChemID>
100189

> <CAS>
106-41-2

> <Original_SMILES>
Oc1ccc(Br)cc1

> <preferred_name>
4-Bromophenol

> <dsstox_substance_id>
DTXSID3051543

> <dsstox_compound_id>
DTXCID4030095

> <qc_level>
DSSTox_High

> <Canonical_QSARr>
OC1=CC=C(Br)C=C1

> <InChI_Code_QSARr>
InChI=1S/C6H5BrO/c7-5-1-3-6(8)4-2-5/h1-4,8H

> <InChI Key_QSARr>
GZFGOTFRPZRKDS-UHFFFAOYSA-N

> <Salt_Solvent>


> <Salt_Solvent_ID>
0

> <MPID>
99466

> <KocRef>
Schuurmann-Main

> <LogKOC>
2.41

> <Tr_1_Tst_0>
1

$$$$
100190
  Mrv171c012251911022D          

  8  8  0  0  0  0            999 V2000
    1.6500   -2.3653    0.0000 C   0  0  0  0  0  0  0  0  0  0  0  0
    1.6500   -1.5403    0.0000 C   0  0  0  0  0  0  0  0  0  0  0  0
    2.3645   -1.1278    0.0000 C   0  0  0  0  0  0  0  0  0  0  0  0
    2.3645   -0.3028    0.0000 C   0  0  0  0  0  0  0  0  0  0  0  0
    1.6500    0.1097    0.0000 C   0  0  0  0  0  0  0  0  0  0  0  0
    1.6500    0.9347    0.0000 C   0  0  0  0  0  0  0  0  0  0  0  0
    0.9355   -0.3028    0.0000 C   0  0  0  0  0  0  0  0  0  0  0  0
    0.9355   -1.1278    0.0000 C   0  0  0  0  0  0  0  0  0  0  0  0
  1  2  1  0  0  0  0
  3  2  1  0  0  0  0
  4  3  2  0  0  0  0
  5  4  1  0  0  0  0
  5  6  1  0  0  0  0
  7  5  2  0  0  0  0
  8  7  1  0  0  0  0
  2  8  2  0  0  0  0
M  END
> <ChemID>
100190

> <CAS>
106-42-3

> <Original_SMILES>
Cc1ccc(C)cc1

> <preferred_name>
p-Xylene

> <dsstox_substance_id>
DTXSID2021868

> <dsstox_compound_id>
DTXCID701868

> <qc_level>
DSSTox_Low

> <Canonical_QSARr>
CC1C=CC(C)=CC=1

> <InChI_Code_QSARr>
InChI=1S/C8H10/c1-7-3-5-8(2)6-4-7/h3-6H,1-2H3

> <InChI Key_QSARr>
URLKBWYHVLBVBO-UHFFFAOYSA-N

> <Salt_Solvent>


> <Salt_Solvent_ID>
0

> <MPID>
99467

> <KocRef>
SRC 1992 Non-Polar

> <LogKOC>
2.41

> <Tr_1_Tst_0>
0

$$$$
100191
  Mrv171c012251911022D          

  8  8  0  0  0  0            999 V2000
    1.6500   -2.3653    0.0000 O   0  0  0  0  0  0  0  0  0  0  0  0
    1.6500   -1.5403    0.0000 C   0  0  0  0  0  0  0  0  0  0  0  0
    2.3645   -1.1278    0.0000 C   0  0  0  0  0  0  0  0  0  0  0  0
    2.3645   -0.3028    0.0000 C   0  0  0  0  0  0  0  0  0  0  0  0
    1.6500    0.1097    0.0000 C   0  0  0  0  0  0  0  0  0  0  0  0
    1.6500    0.9347    0.0000 C   0  0  0  0  0  0  0  0  0  0  0  0
    0.9355   -0.3028    0.0000 C   0  0  0  0  0  0  0  0  0  0  0  0
    0.9355   -1.1278    0.0000 C   0  0  0  0  0  0  0  0  0  0  0  0
  1  2  1  0  0  0  0
  3  2  1  0  0  0  0
  4  3  2  0  0  0  0
  5  4  1  0  0  0  0
  5  6  1  0  0  0  0
  7  5  2  0  0  0  0
  8  7  1  0  0  0  0
  2  8  2  0  0  0  0
M  END
> <ChemID>
100191

> <CAS>
106-44-5

> <Original_SMILES>
Cc1ccc(O)cc1

> <preferred_name>
p-Cresol

> <dsstox_substance_id>
DTXSID7021869

> <dsstox_compound_id>
DTXCID101869

> <qc_level>
DSSTox_Low

> <Canonical_QSARr>
CC1=CC=C(O)C=C1

> <InChI_Code_QSARr>
InChI=1S/C7H8O/c1-6-2-4-7(8)5-3-6/h2-5,8H,1H3

> <InChI Key_QSARr>
IWDCLRJOBJJRNH-UHFFFAOYSA-N

> <Salt_Solvent>


> <Salt_Solvent_ID>
0

> <MPID>
99468

> <KocRef>
Schuurmann-Main

> <LogKOC>
2.7

> <Tr_1_Tst_0>
1

$$$$
100192
  Mrv171c012251911022D          

  8  8  0  0  0  0            999 V2000
    1.6500   -2.3653    0.0000 Cl  0  0  0  0  0  0  0  0  0  0  0  0
    1.6500   -1.5403    0.0000 C   0  0  0  0  0  0  0  0  0  0  0  0
    2.3645   -1.1278    0.0000 C   0  0  0  0  0  0  0  0  0  0  0  0
    2.3645   -0.3028    0.0000 C   0  0  0  0  0  0  0  0  0  0  0  0
    1.6500    0.1097    0.0000 C   0  0  0  0  0  0  0  0  0  0  0  0
    1.6500    0.9347    0.0000 Cl  0  0  0  0  0  0  0  0  0  0  0  0
    0.9355   -0.3028    0.0000 C   0  0  0  0  0  0  0  0  0  0  0  0
    0.9355   -1.1278    0.0000 C   0  0  0  0  0  0  0  0  0  0  0  0
  1  2  1  0  0  0  0
  3  2  1  0  0  0  0
  4  3  2  0  0  0  0
  5  4  1  0  0  0  0
  5  6  1  0  0  0  0
  7  5  2  0  0  0  0
  8  7  1  0  0  0  0
  2  8  2  0  0  0  0
M  END
> <ChemID>
100192

> <CAS>
106-46-7

> <Original_SMILES>
Clc1ccc(Cl)cc1

> <preferred_name>
1,4-Dichlorobenzene

> <dsstox_substance_id>
DTXSID1020431

> <dsstox_compound_id>
DTXCID30431

> <qc_level>
DSSTox_Low

> <Canonical_QSARr>
ClC1C=CC(Cl)=CC=1

> <InChI_Code_QSARr>
InChI=1S/C6H4Cl2/c7-5-1-2-6(8)4-3-5/h1-4H

> <InChI Key_QSARr>
OCJBOOLMMGQPQU-UHFFFAOYSA-N

> <Salt_Solvent>


> <Salt_Solvent_ID>
0

> <MPID>
99469

> <KocRef>
SRC 1992 Non-Polar

> <LogKOC>
2.65

> <Tr_1_Tst_0>
1

$$$$
100193
  Mrv171c012251911022D          

  8  8  0  0  0  0            999 V2000
    1.6500   -2.3653    0.0000 N   0  0  0  0  0  0  0  0  0  0  0  0
    1.6500   -1.5403    0.0000 C   0  0  0  0  0  0  0  0  0  0  0  0
    2.3645   -1.1278    0.0000 C   0  0  0  0  0  0  0  0  0  0  0  0
    2.3645   -0.3028    0.0000 C   0  0  0  0  0  0  0  0  0  0  0  0
    1.6500    0.1097    0.0000 C   0  0  0  0  0  0  0  0  0  0  0  0
    1.6500    0.9347    0.0000 Cl  0  0  0  0  0  0  0  0  0  0  0  0
    0.9355   -0.3028    0.0000 C   0  0  0  0  0  0  0  0  0  0  0  0
    0.9355   -1.1278    0.0000 C   0  0  0  0  0  0  0  0  0  0  0  0
  1  2  1  0  0  0  0
  3  2  1  0  0  0  0
  4  3  2  0  0  0  0
  5  4  1  0  0  0  0
  5  6  1  0  0  0  0
  7  5  2  0  0  0  0
  8  7  1  0  0  0  0
  2  8  2  0  0  0  0
M  END
> <ChemID>
100193

> <CAS>
106-47-8

> <Original_SMILES>
Nc1ccc(Cl)cc1

> <preferred_name>
4-Chloroaniline

> <dsstox_substance_id>
DTXSID9020295

> <dsstox_compound_id>
DTXCID50295

> <qc_level>
DSSTox_Low

> <Canonical_QSARr>
NC1=CC=C(Cl)C=C1

> <InChI_Code_QSARr>
InChI=1S/C6H6ClN/c7-5-1-3-6(8)4-2-5/h1-4H,8H2

> <InChI Key_QSARr>
QSNSCYSYFYORTR-UHFFFAOYSA-N

> <Salt_Solvent>


> <Salt_Solvent_ID>
0

> <MPID>
99470

> <KocRef>
Schuurmann-Main

> <LogKOC>
1.96

> <Tr_1_Tst_0>
1

$$$$
100194
  Mrv171c012251911022D          

  8  8  0  0  0  0            999 V2000
    1.6500   -2.3653    0.0000 N   0  0  0  0  0  0  0  0  0  0  0  0
    1.6500   -1.5403    0.0000 C   0  0  0  0  0  0  0  0  0  0  0  0
    2.3645   -1.1278    0.0000 C   0  0  0  0  0  0  0  0  0  0  0  0
    2.3645   -0.3028    0.0000 C   0  0  0  0  0  0  0  0  0  0  0  0
    1.6500    0.1097    0.0000 C   0  0  0  0  0  0  0  0  0  0  0  0
    1.6500    0.9347    0.0000 C   0  0  0  0  0  0  0  0  0  0  0  0
    0.9355   -0.3028    0.0000 C   0  0  0  0  0  0  0  0  0  0  0  0
    0.9355   -1.1278    0.0000 C   0  0  0  0  0  0  0  0  0  0  0  0
  1  2  1  0  0  0  0
  3  2  1  0  0  0  0
  4  3  2  0  0  0  0
  5  4  1  0  0  0  0
  5  6  1  0  0  0  0
  7  5  2  0  0  0  0
  8  7  1  0  0  0  0
  2  8  2  0  0  0  0
M  END
> <ChemID>
100194

> <CAS>
106-49-0

> <Original_SMILES>
Cc1ccc(N)cc1

> <preferred_name>
4-Methylaniline

> <dsstox_substance_id>
DTXSID6021872

> <dsstox_compound_id>
DTXCID601872

> <qc_level>
DSSTox_Low

> <Canonical_QSARr>
CC1=CC=C(N)C=C1

> <InChI_Code_QSARr>
InChI=1S/C7H9N/c1-6-2-4-7(8)5-3-6/h2-5H,8H2,1H3

> <InChI Key_QSARr>
RZXMPPFPUUCRFN-UHFFFAOYSA-N

> <Salt_Solvent>


> <Salt_Solvent_ID>
0

> <MPID>
99471

> <KocRef>
Schuurmann-Main

> <LogKOC>
1.9

> <Tr_1_Tst_0>
0

$$$$
100195
  Mrv171c012251911022D          

  5  5  0  0  0  0            999 V2000
    1.8193    0.4567    0.0000 Cl  0  0  0  0  0  0  0  0  0  0  0  0
    1.1049    0.0442    0.0000 C   0  0  0  0  0  0  0  0  0  0  0  0
    1.1049   -0.7808    0.0000 C   0  0  0  0  0  0  0  0  0  0  0  0
    0.6924   -1.4953    0.0000 O   0  0  0  0  0  0  0  0  0  0  0  0
    1.5174   -1.4953    0.0000 C   0  0  0  0  0  0  0  0  0  0  0  0
  1  2  1  0  0  0  0
  2  3  1  0  0  0  0
  4  3  1  0  0  0  0
  5  4  1  0  0  0  0
  3  5  1  0  0  0  0
M  END
> <ChemID>
100195

> <CAS>
106-89-8

> <Original_SMILES>
ClCC1CO1

> <preferred_name>
Epichlorohydrin

> <dsstox_substance_id>
DTXSID1020566

> <dsstox_compound_id>
DTXCID50566

> <qc_level>
DSSTox_High

> <Canonical_QSARr>
ClCC1CO1

> <InChI_Code_QSARr>
InChI=1S/C3H5ClO/c4-1-3-2-5-3/h3H,1-2H2

> <InChI Key_QSARr>
BRLQWZUYTZBJKN-UHFFFAOYSA-N

> <Salt_Solvent>


> <Salt_Solvent_ID>
0

> <MPID>
99472

> <KocRef>
Schuurmann-Main

> <LogKOC>
1.0

> <Tr_1_Tst_0>
1

$$$$
100196
  Mrv171c012251911022D          

  4  3  0  0  0  0            999 V2000
    2.1020   -0.5628    0.0000 Br  0  0  0  0  0  0  0  0  0  0  0  0
    1.2770   -0.5628    0.0000 C   0  0  0  0  0  0  0  0  0  0  0  0
    0.8645    0.1517    0.0000 C   0  0  0  0  0  0  0  0  0  0  0  0
    0.0395    0.1517    0.0000 Br  0  0  0  0  0  0  0  0  0  0  0  0
  1  2  1  0  0  0  0
  2  3  1  0  0  0  0
  3  4  1  0  0  0  0
M  END
> <ChemID>
100196

> <CAS>
106-93-4

> <Original_SMILES>
BrCCBr

> <preferred_name>
1,2-Dibromoethane

> <dsstox_substance_id>
DTXSID3020415

> <dsstox_compound_id>
DTXCID10415

> <qc_level>
DSSTox_Low

> <Canonical_QSARr>
BrCCBr

> <InChI_Code_QSARr>
InChI=1S/C2H4Br2/c3-1-2-4/h1-2H2

> <InChI Key_QSARr>
PAAZPARNPHGIKF-UHFFFAOYSA-N

> <Salt_Solvent>


> <Salt_Solvent_ID>
0

> <MPID>
99473

> <KocRef>
SRC 1992 Non-Polar

> <LogKOC>
1.71

> <Tr_1_Tst_0>
1

$$$$
100197
  Mrv171c012251911022D          

  4  3  0  0  0  0            999 V2000
    2.1020   -0.5628    0.0000 Cl  0  0  0  0  0  0  0  0  0  0  0  0
    1.2770   -0.5628    0.0000 C   0  0  0  0  0  0  0  0  0  0  0  0
    0.8645    0.1517    0.0000 C   0  0  0  0  0  0  0  0  0  0  0  0
    0.0395    0.1517    0.0000 Cl  0  0  0  0  0  0  0  0  0  0  0  0
  1  2  1  0  0  0  0
  2  3  1  0  0  0  0
  3  4  1  0  0  0  0
M  END
> <ChemID>
100197

> <CAS>
107-06-2

> <Original_SMILES>
ClCCCl

> <preferred_name>
1,2-Dichloroethane

> <dsstox_substance_id>
DTXSID6020438

> <dsstox_compound_id>
DTXCID40438

> <qc_level>
DSSTox_High

> <Canonical_QSARr>
ClCCCl

> <InChI_Code_QSARr>
InChI=1S/C2H4Cl2/c3-1-2-4/h1-2H2

> <InChI Key_QSARr>
WSLDOOZREJYCGB-UHFFFAOYSA-N

> <Salt_Solvent>


> <Salt_Solvent_ID>
0

> <MPID>
99474

> <KocRef>
SRC 1992 Non-Polar

> <LogKOC>
1.52

> <Tr_1_Tst_0>
1

$$$$
100198
  Mrv171c012251911022D          

  8  8  0  0  0  0            999 V2000
    1.7055   -3.2018    0.0000 C   0  0  0  0  0  0  0  0  0  0  0  0
    2.4199   -2.7893    0.0000 C   0  0  0  0  0  0  0  0  0  0  0  0
    2.4199   -1.9643    0.0000 C   0  0  0  0  0  0  0  0  0  0  0  0
    1.7055   -1.5518    0.0000 C   0  0  0  0  0  0  0  0  0  0  0  0
    1.7055   -0.7268    0.0000 C   0  0  0  0  0  0  0  0  0  0  0  0
    0.9910   -1.9643    0.0000 C   0  0  0  0  0  0  0  0  0  0  0  0
    0.9910   -2.7893    0.0000 C   0  0  0  0  0  0  0  0  0  0  0  0
    0.2765   -3.2018    0.0000 C   0  0  0  0  0  0  0  0  0  0  0  0
  2  1  2  0  0  0  0
  3  2  1  0  0  0  0
  4  3  2  0  0  0  0
  4  5  1  0  0  0  0
  6  4  1  0  0  0  0
  7  6  2  0  0  0  0
  1  7  1  0  0  0  0
  7  8  1  0  0  0  0
M  END
> <ChemID>
100198

> <CAS>
108-38-3

> <Original_SMILES>
Cc1cc(C)ccc1

> <preferred_name>
m-Xylene

> <dsstox_substance_id>
DTXSID6026298

> <dsstox_compound_id>
DTXCID501446

> <qc_level>
DSSTox_Low

> <Canonical_QSARr>
CC1=CC(C)=CC=C1

> <InChI_Code_QSARr>
InChI=1S/C8H10/c1-7-4-3-5-8(2)6-7/h3-6H,1-2H3

> <InChI Key_QSARr>
IVSZLXZYQVIEFR-UHFFFAOYSA-N

> <Salt_Solvent>


> <Salt_Solvent_ID>
0

> <MPID>
99475

> <KocRef>
SRC 1992 Non-Polar

> <LogKOC>
2.25

> <Tr_1_Tst_0>
0

$$$$
100199
  Mrv171c012251911022D          

  8  8  0  0  0  0            999 V2000
    2.6801   -1.9594    0.0000 Cl  0  0  0  0  0  0  0  0  0  0  0  0
    1.9657   -1.5469    0.0000 C   0  0  0  0  0  0  0  0  0  0  0  0
    1.9657   -0.7219    0.0000 C   0  0  0  0  0  0  0  0  0  0  0  0
    1.2512   -0.3094    0.0000 C   0  0  0  0  0  0  0  0  0  0  0  0
    1.2512    0.5156    0.0000 O   0  0  0  0  0  0  0  0  0  0  0  0
    0.5367   -0.7219    0.0000 C   0  0  0  0  0  0  0  0  0  0  0  0
    0.5367   -1.5469    0.0000 C   0  0  0  0  0  0  0  0  0  0  0  0
    1.2512   -1.9594    0.0000 C   0  0  0  0  0  0  0  0  0  0  0  0
  1  2  1  0  0  0  0
  3  2  1  0  0  0  0
  4  3  2  0  0  0  0
  4  5  1  0  0  0  0
  6  4  1  0  0  0  0
  7  6  2  0  0  0  0
  8  7  1  0  0  0  0
  2  8  2  0  0  0  0
M  END
> <ChemID>
100199

> <CAS>
108-43-0

> <Original_SMILES>
Oc1cc(Cl)ccc1

> <preferred_name>
3-Chlorophenol

> <dsstox_substance_id>
DTXSID4024800

> <dsstox_compound_id>
DTXCID004800

> <qc_level>
DSSTox_Low

> <Canonical_QSARr>
OC1=CC(Cl)=CC=C1

> <InChI_Code_QSARr>
InChI=1S/C6H5ClO/c7-5-2-1-3-6(8)4-5/h1-4,8H

> <InChI Key_QSARr>
HORNXRXVQWOLPJ-UHFFFAOYSA-N

> <Salt_Solvent>


> <Salt_Solvent_ID>
0

> <MPID>
99476

> <KocRef>
Schuurmann-Main

> <LogKOC>
2.54

> <Tr_1_Tst_0>
1

$$$$
100200
  Mrv171c012251911022D          

  8  8  0  0  0  0            999 V2000
    1.7888   -2.0612    0.0000 C   0  0  0  0  0  0  0  0  0  0  0  0
    2.5033   -2.4737    0.0000 N   0  0  0  0  0  0  0  0  0  0  0  0
    1.7888   -1.2362    0.0000 C   0  0  0  0  0  0  0  0  0  0  0  0
    1.0743   -0.8237    0.0000 C   0  0  0  0  0  0  0  0  0  0  0  0
    1.0743    0.0013    0.0000 C   0  0  0  0  0  0  0  0  0  0  0  0
    0.3599   -1.2362    0.0000 C   0  0  0  0  0  0  0  0  0  0  0  0
    0.3599   -2.0612    0.0000 C   0  0  0  0  0  0  0  0  0  0  0  0
    1.0743   -2.4737    0.0000 C   0  0  0  0  0  0  0  0  0  0  0  0
  1  2  1  0  0  0  0
  3  1  1  0  0  0  0
  4  3  2  0  0  0  0
  4  5  1  0  0  0  0
  6  4  1  0  0  0  0
  7  6  2  0  0  0  0
  8  7  1  0  0  0  0
  1  8  2  0  0  0  0
M  END
> <ChemID>
100200

> <CAS>
108-44-1

> <Original_SMILES>
Cc1cc(N)ccc1

> <preferred_name>
3-Methylaniline

> <dsstox_substance_id>
DTXSID1026792

> <dsstox_compound_id>
DTXCID506792

> <qc_level>
DSSTox_Low

> <Canonical_QSARr>
CC1=CC(N)=CC=C1

> <InChI_Code_QSARr>
InChI=1S/C7H9N/c1-6-3-2-4-7(8)5-6/h2-5H,8H2,1H3

> <InChI Key_QSARr>
JJYPMNFTHPTTDI-UHFFFAOYSA-N

> <Salt_Solvent>


> <Salt_Solvent_ID>
0

> <MPID>
99477

> <KocRef>
Schuur-SRC avg

> <LogKOC>
1.53

> <Tr_1_Tst_0>
1

$$$$
100201
  Mrv171c012251911022D          

  8  8  0  0  0  0            999 V2000
    0.1795   -1.9594    0.0000 O   0  0  0  0  0  0  0  0  0  0  0  0
    0.8940   -1.5469    0.0000 C   0  0  0  0  0  0  0  0  0  0  0  0
    1.6084   -1.9594    0.0000 C   0  0  0  0  0  0  0  0  0  0  0  0
    2.3229   -1.5469    0.0000 C   0  0  0  0  0  0  0  0  0  0  0  0
    2.3229   -0.7219    0.0000 C   0  0  0  0  0  0  0  0  0  0  0  0
    1.6084   -0.3094    0.0000 C   0  0  0  0  0  0  0  0  0  0  0  0
    1.6084    0.5156    0.0000 O   0  0  0  0  0  0  0  0  0  0  0  0
    0.8940   -0.7219    0.0000 C   0  0  0  0  0  0  0  0  0  0  0  0
  1  2  1  0  0  0  0
  3  2  1  0  0  0  0
  4  3  2  0  0  0  0
  5  4  1  0  0  0  0
  6  5  2  0  0  0  0
  6  7  1  0  0  0  0
  8  6  1  0  0  0  0
  2  8  2  0  0  0  0
M  END
> <ChemID>
100201

> <CAS>
108-46-3

> <Original_SMILES>
Oc1cc(O)ccc1

> <preferred_name>
Resorcinol

> <dsstox_substance_id>
DTXSID2021238

> <dsstox_compound_id>
DTXCID601238

> <qc_level>
DSSTox_Low

> <Canonical_QSARr>
OC1=CC(O)=CC=C1

> <InChI_Code_QSARr>
InChI=1S/C6H6O2/c7-5-2-1-3-6(8)4-5/h1-4,7-8H

> <InChI Key_QSARr>
GHMLBKRAJCXXBS-UHFFFAOYSA-N

> <Salt_Solvent>


> <Salt_Solvent_ID>
0

> <MPID>
99478

> <KocRef>
Schuurmann-Main

> <LogKOC>
0.98

> <Tr_1_Tst_0>
1

$$$$
100202
  Mrv171c012251911022D          

  9  8  0  0  0  0            999 V2000
    0.7124   -1.2383    0.0000 C   0  0  0  0  0  0  0  0  0  0  0  0
   -0.0020   -0.8258    0.0000 Cl  0  0  0  0  0  0  0  0  0  0  0  0
    1.4269   -0.8258    0.0000 C   0  0  0  0  0  0  0  0  0  0  0  0
    2.1414   -1.2383    0.0000 O   0  0  0  0  0  0  0  0  0  0  0  0
    2.8558   -0.8258    0.0000 C   0  0  0  0  0  0  0  0  0  0  0  0
    2.8558   -0.0008    0.0000 C   0  0  0  0  0  0  0  0  0  0  0  0
    3.5703   -1.2383    0.0000 C   0  0  0  0  0  0  0  0  0  0  0  0
    4.2848   -0.8258    0.0000 Cl  0  0  0  0  0  0  0  0  0  0  0  0
    1.4269   -0.0008    0.0000 C   0  0  0  0  0  0  0  0  0  0  0  0
  1  2  1  0  0  0  0
  1  3  1  0  0  0  0
  3  4  1  0  0  0  0
  4  5  1  0  0  0  0
  5  6  1  0  0  0  0
  5  7  1  0  0  0  0
  7  8  1  0  0  0  0
  3  9  1  0  0  0  0
M  END
> <ChemID>
100202

> <CAS>
108-60-1

> <Original_SMILES>
CC(CCl)OC(C)CCl

> <preferred_name>
bis(2-Chloro-1-methylethyl) ether

> <dsstox_substance_id>
DTXSID4020167

> <dsstox_compound_id>
DTXCID40167

> <qc_level>
DSSTox_High

> <Canonical_QSARr>
CC(CCl)OC(C)CCl

> <InChI_Code_QSARr>
InChI=1S/C6H12Cl2O/c1-5(3-7)9-6(2)4-8/h5-6H,3-4H2,1-2H3

> <InChI Key_QSARr>
QCFYJCYNJLBDRT-UHFFFAOYSA-N

> <Salt_Solvent>


> <Salt_Solvent_ID>
0

> <MPID>
99479

> <KocRef>
Schuurmann-Main

> <LogKOC>
1.67

> <Tr_1_Tst_0>
0

$$$$
100203
  Mrv171c012251911022D          

 12 12  0  0  0  0            999 V2000
    2.5298   -1.0010    0.0000 O   0  0  0  0  0  0  0  0  0  0  0  0
    1.7676   -0.6852    0.0000 C   0  0  0  0  0  0  0  0  0  0  0  0
    1.7676    0.1398    0.0000 C   0  0  0  0  0  0  0  0  0  0  0  0
    1.0054   -1.0010    0.0000 O   0  0  0  0  0  0  0  0  0  0  0  0
    0.6897   -1.7632    0.0000 C   0  0  0  0  0  0  0  0  0  0  0  0
   -0.1353   -1.7632    0.0000 C   0  0  0  0  0  0  0  0  0  0  0  0
    1.0054   -2.5254    0.0000 O   0  0  0  0  0  0  0  0  0  0  0  0
    1.7676   -2.8411    0.0000 C   0  0  0  0  0  0  0  0  0  0  0  0
    1.7676   -3.6661    0.0000 C   0  0  0  0  0  0  0  0  0  0  0  0
    2.5298   -2.5254    0.0000 O   0  0  0  0  0  0  0  0  0  0  0  0
    2.8455   -1.7632    0.0000 C   0  0  0  0  0  0  0  0  0  0  0  0
    3.6705   -1.7632    0.0000 C   0  0  0  0  0  0  0  0  0  0  0  0
  2  1  1  0  0  0  0
  2  3  1  0  0  0  0
  4  2  1  0  0  0  0
  5  4  1  0  0  0  0
  5  6  1  0  0  0  0
  7  5  1  0  0  0  0
  8  7  1  0  0  0  0
  8  9  1  0  0  0  0
 10  8  1  0  0  0  0
 11 10  1  0  0  0  0
  1 11  1  0  0  0  0
 11 12  1  0  0  0  0
M  END
> <ChemID>
100203

> <CAS>
108-62-3

> <Original_SMILES>
CC1OC(C)OC(C)OC(C)O1

> <preferred_name>
Metaldehyde acetaldehyde tetramer

> <dsstox_substance_id>
DTXSID1034715

> <dsstox_compound_id>
DTXCID9014715

> <qc_level>
DSSTox_Low

> <Canonical_QSARr>
CC1OC(C)OC(C)OC(C)O1

> <InChI_Code_QSARr>
InChI=1S/C8H16O4/c1-5-9-6(2)11-8(4)12-7(3)10-5/h5-8H,1-4H3

> <InChI Key_QSARr>
GKKDCARASOJPNG-UHFFFAOYSA-N

> <Salt_Solvent>


> <Salt_Solvent_ID>
0

> <MPID>
99480

> <KocRef>
USDA Pest Prop DB

> <LogKOC>
2.38

> <Tr_1_Tst_0>
1

$$$$
100204
  Mrv171c012251911022D          

  9  8  0  0  0  0            999 V2000
    1.4261   -0.4135    0.0000 C   0  0  0  0  0  0  0  0  0  0  0  0
    0.7116   -0.8260    0.0000 O   0  0  0  0  0  0  0  0  0  0  0  0
   -0.0029   -0.4135    0.0000 C   0  0  0  0  0  0  0  0  0  0  0  0
    2.1405   -0.8260    0.0000 C   0  0  0  0  0  0  0  0  0  0  0  0
    2.8550   -0.4135    0.0000 O   0  0  0  0  0  0  0  0  0  0  0  0
    3.5695   -0.8260    0.0000 C   0  0  0  0  0  0  0  0  0  0  0  0
    4.2840   -0.4135    0.0000 C   0  0  0  0  0  0  0  0  0  0  0  0
    3.5695   -1.6510    0.0000 O   0  0  0  0  0  0  0  0  0  0  0  0
    2.1405   -1.6510    0.0000 C   0  0  0  0  0  0  0  0  0  0  0  0
  1  2  1  0  0  0  0
  2  3  1  0  0  0  0
  1  4  1  0  0  0  0
  4  5  1  0  0  0  0
  5  6  1  0  0  0  0
  6  7  1  0  0  0  0
  6  8  2  0  0  0  0
  4  9  1  0  0  0  0
M  END
> <ChemID>
100204

> <CAS>
108-65-6

> <Original_SMILES>
COCC(C)OC(C)=O

> <preferred_name>
1-Methoxy-2-propyl acetate

> <dsstox_substance_id>
DTXSID1026796

> <dsstox_compound_id>
DTXCID106796

> <qc_level>
DSSTox_High

> <Canonical_QSARr>
COCC(C)OC(C)=O

> <InChI_Code_QSARr>
InChI=1S/C6H12O3/c1-5(4-8-3)9-6(2)7/h5H,4H2,1-3H3

> <InChI Key_QSARr>
LLHKCFNBLRBOGN-UHFFFAOYSA-N

> <Salt_Solvent>


> <Salt_Solvent_ID>
0

> <MPID>
99481

> <KocRef>
SRC 1992 Validation

> <LogKOC>
0.36

> <Tr_1_Tst_0>
1

$$$$
100205
  Mrv171c012251911022D          

  9  9  0  0  0  0            999 V2000
    2.1349   -2.0567    0.0000 C   0  0  0  0  0  0  0  0  0  0  0  0
    2.8494   -2.4692    0.0000 C   0  0  0  0  0  0  0  0  0  0  0  0
    2.1349   -1.2317    0.0000 C   0  0  0  0  0  0  0  0  0  0  0  0
    1.4204   -0.8192    0.0000 C   0  0  0  0  0  0  0  0  0  0  0  0
    1.4204    0.0058    0.0000 C   0  0  0  0  0  0  0  0  0  0  0  0
    0.7060   -1.2317    0.0000 C   0  0  0  0  0  0  0  0  0  0  0  0
    0.7060   -2.0567    0.0000 C   0  0  0  0  0  0  0  0  0  0  0  0
   -0.0085   -2.4692    0.0000 C   0  0  0  0  0  0  0  0  0  0  0  0
    1.4204   -2.4692    0.0000 C   0  0  0  0  0  0  0  0  0  0  0  0
  1  2  1  0  0  0  0
  3  1  1  0  0  0  0
  4  3  2  0  0  0  0
  4  5  1  0  0  0  0
  6  4  1  0  0  0  0
  7  6  2  0  0  0  0
  7  8  1  0  0  0  0
  9  7  1  0  0  0  0
  1  9  2  0  0  0  0
M  END
> <ChemID>
100205

> <CAS>
108-67-8

> <Original_SMILES>
Cc1cc(C)cc(C)c1

> <preferred_name>
1,3,5-Trimethylbenzene

> <dsstox_substance_id>
DTXSID6026797

> <dsstox_compound_id>
DTXCID506797

> <qc_level>
DSSTox_Low

> <Canonical_QSARr>
CC1C=C(C)C=C(C)C=1

> <InChI_Code_QSARr>
InChI=1S/C9H12/c1-7-4-8(2)6-9(3)5-7/h4-6H,1-3H3

> <InChI Key_QSARr>
AUHZEENZYGFFBQ-UHFFFAOYSA-N

> <Salt_Solvent>


> <Salt_Solvent_ID>
0

> <MPID>
99482

> <KocRef>
SRC 1992 Non-Polar

> <LogKOC>
2.82

> <Tr_1_Tst_0>
1

$$$$
100206
  Mrv171c012251911022D          

  9  9  0  0  0  0            999 V2000
    3.0801   -2.2547    0.0000 C   0  0  0  0  0  0  0  0  0  0  0  0
    2.3656   -1.8422    0.0000 C   0  0  0  0  0  0  0  0  0  0  0  0
    2.3656   -1.0172    0.0000 C   0  0  0  0  0  0  0  0  0  0  0  0
    1.6512   -0.6047    0.0000 C   0  0  0  0  0  0  0  0  0  0  0  0
    1.6512    0.2203    0.0000 O   0  0  0  0  0  0  0  0  0  0  0  0
    0.9367   -1.0172    0.0000 C   0  0  0  0  0  0  0  0  0  0  0  0
    0.9367   -1.8422    0.0000 C   0  0  0  0  0  0  0  0  0  0  0  0
    0.2222   -2.2547    0.0000 C   0  0  0  0  0  0  0  0  0  0  0  0
    1.6512   -2.2547    0.0000 C   0  0  0  0  0  0  0  0  0  0  0  0
  1  2  1  0  0  0  0
  3  2  1  0  0  0  0
  4  3  2  0  0  0  0
  4  5  1  0  0  0  0
  6  4  1  0  0  0  0
  7  6  2  0  0  0  0
  7  8  1  0  0  0  0
  9  7  1  0  0  0  0
  2  9  2  0  0  0  0
M  END
> <ChemID>
100206

> <CAS>
108-68-9

> <Original_SMILES>
Cc1cc(O)cc(C)c1

> <preferred_name>
3,5-Dimethylphenol

> <dsstox_substance_id>
DTXSID1025148

> <dsstox_compound_id>
DTXCID105148

> <qc_level>
DSSTox_Low

> <Canonical_QSARr>
CC1=CC(O)=CC(C)=C1

> <InChI_Code_QSARr>
InChI=1S/C8H10O/c1-6-3-7(2)5-8(9)4-6/h3-5,9H,1-2H3

> <InChI Key_QSARr>
TUAMRELNJMMDMT-UHFFFAOYSA-N

> <Salt_Solvent>


> <Salt_Solvent_ID>
0

> <MPID>
99483

> <KocRef>
SRC 1992 NonPolar Val

> <LogKOC>
2.83

> <Tr_1_Tst_0>
0

$$$$
100207
  Mrv171c012251911022D          

  9  9  0  0  0  0            999 V2000
    2.3656   -1.8422    0.0000 C   0  0  0  0  0  0  0  0  0  0  0  0
    3.0801   -2.2547    0.0000 Cl  0  0  0  0  0  0  0  0  0  0  0  0
    2.3656   -1.0172    0.0000 C   0  0  0  0  0  0  0  0  0  0  0  0
    1.6512   -0.6047    0.0000 C   0  0  0  0  0  0  0  0  0  0  0  0
    1.6512    0.2203    0.0000 Cl  0  0  0  0  0  0  0  0  0  0  0  0
    0.9367   -1.0172    0.0000 C   0  0  0  0  0  0  0  0  0  0  0  0
    0.9367   -1.8422    0.0000 C   0  0  0  0  0  0  0  0  0  0  0  0
    0.2222   -2.2547    0.0000 Cl  0  0  0  0  0  0  0  0  0  0  0  0
    1.6512   -2.2547    0.0000 C   0  0  0  0  0  0  0  0  0  0  0  0
  1  2  1  0  0  0  0
  3  1  1  0  0  0  0
  4  3  2  0  0  0  0
  4  5  1  0  0  0  0
  6  4  1  0  0  0  0
  7  6  2  0  0  0  0
  7  8  1  0  0  0  0
  9  7  1  0  0  0  0
  1  9  2  0  0  0  0
M  END
> <ChemID>
100207

> <CAS>
108-70-3

> <Original_SMILES>
Clc1cc(Cl)cc(Cl)c1

> <preferred_name>
1,3,5-Trichlorobenzene

> <dsstox_substance_id>
DTXSID8026195

> <dsstox_compound_id>
DTXCID506195

> <qc_level>
DSSTox_High

> <Canonical_QSARr>
ClC1C=C(Cl)C=C(Cl)C=1

> <InChI_Code_QSARr>
InChI=1S/C6H3Cl3/c7-4-1-5(8)3-6(9)2-4/h1-3H

> <InChI Key_QSARr>
XKEFYDZQGKAQCN-UHFFFAOYSA-N

> <Salt_Solvent>


> <Salt_Solvent_ID>
0

> <MPID>
99484

> <KocRef>
SRC 1992 Non-Polar

> <LogKOC>
2.85

> <Tr_1_Tst_0>
1

$$$$
100208
  Mrv171c012251911022D          

  7  7  0  0  0  0            999 V2000
    1.4153   -0.1250    0.0000 C   0  0  0  0  0  0  0  0  0  0  0  0
    1.4153    0.7000    0.0000 Br  0  0  0  0  0  0  0  0  0  0  0  0
    0.7009   -0.5375    0.0000 C   0  0  0  0  0  0  0  0  0  0  0  0
    0.7009   -1.3625    0.0000 C   0  0  0  0  0  0  0  0  0  0  0  0
    1.4153   -1.7750    0.0000 C   0  0  0  0  0  0  0  0  0  0  0  0
    2.1298   -1.3625    0.0000 C   0  0  0  0  0  0  0  0  0  0  0  0
    2.1298   -0.5375    0.0000 C   0  0  0  0  0  0  0  0  0  0  0  0
  1  2  1  0  0  0  0
  3  1  1  0  0  0  0
  4  3  2  0  0  0  0
  5  4  1  0  0  0  0
  6  5  2  0  0  0  0
  7  6  1  0  0  0  0
  1  7  2  0  0  0  0
M  END
> <ChemID>
100208

> <CAS>
108-86-1

> <Original_SMILES>
Brc1ccccc1

> <preferred_name>
Bromobenzene

> <dsstox_substance_id>
DTXSID5024637

> <dsstox_compound_id>
DTXCID304637

> <qc_level>
DSSTox_Low

> <Canonical_QSARr>
BrC1C=CC=CC=1

> <InChI_Code_QSARr>
InChI=1S/C6H5Br/c7-6-4-2-1-3-5-6/h1-5H

> <InChI Key_QSARr>
QARVLSVVCXYDNA-UHFFFAOYSA-N

> <Salt_Solvent>


> <Salt_Solvent_ID>
0

> <MPID>
99485

> <KocRef>
SRC 1992 Non-Polar

> <LogKOC>
2.49

> <Tr_1_Tst_0>
1

$$$$
100209
  Mrv171c012251911022D          

  7  7  0  0  0  0            999 V2000
    1.4153    0.7000    0.0000 C   0  0  0  0  0  0  0  0  0  0  0  0
    1.4153   -0.1250    0.0000 C   0  0  0  0  0  0  0  0  0  0  0  0
    0.7009   -0.5375    0.0000 C   0  0  0  0  0  0  0  0  0  0  0  0
    0.7009   -1.3625    0.0000 C   0  0  0  0  0  0  0  0  0  0  0  0
    1.4153   -1.7750    0.0000 C   0  0  0  0  0  0  0  0  0  0  0  0
    2.1298   -1.3625    0.0000 C   0  0  0  0  0  0  0  0  0  0  0  0
    2.1298   -0.5375    0.0000 C   0  0  0  0  0  0  0  0  0  0  0  0
  1  2  1  0  0  0  0
  3  2  1  0  0  0  0
  4  3  2  0  0  0  0
  5  4  1  0  0  0  0
  6  5  2  0  0  0  0
  7  6  1  0  0  0  0
  2  7  2  0  0  0  0
M  END
> <ChemID>
100209

> <CAS>
108-88-3

> <Original_SMILES>
Cc1ccccc1

> <preferred_name>
Toluene

> <dsstox_substance_id>
DTXSID7021360

> <dsstox_compound_id>
DTXCID501360

> <qc_level>
DSSTox_Low

> <Canonical_QSARr>
CC1C=CC=CC=1

> <InChI_Code_QSARr>
InChI=1S/C7H8/c1-7-5-3-2-4-6-7/h2-6H,1H3

> <InChI Key_QSARr>
YXFVVABEGXRONW-UHFFFAOYSA-N

> <Salt_Solvent>


> <Salt_Solvent_ID>
0

> <MPID>
99486

> <KocRef>
SRC 1992 Non-Polar

> <LogKOC>
2.07

> <Tr_1_Tst_0>
1

$$$$
100210
  Mrv171c012251911022D          

  7  7  0  0  0  0            999 V2000
    1.4153    0.7000    0.0000 Cl  0  0  0  0  0  0  0  0  0  0  0  0
    1.4153   -0.1250    0.0000 C   0  0  0  0  0  0  0  0  0  0  0  0
    0.7009   -0.5375    0.0000 C   0  0  0  0  0  0  0  0  0  0  0  0
    0.7009   -1.3625    0.0000 C   0  0  0  0  0  0  0  0  0  0  0  0
    1.4153   -1.7750    0.0000 C   0  0  0  0  0  0  0  0  0  0  0  0
    2.1298   -1.3625    0.0000 C   0  0  0  0  0  0  0  0  0  0  0  0
    2.1298   -0.5375    0.0000 C   0  0  0  0  0  0  0  0  0  0  0  0
  1  2  1  0  0  0  0
  3  2  1  0  0  0  0
  4  3  2  0  0  0  0
  5  4  1  0  0  0  0
  6  5  2  0  0  0  0
  7  6  1  0  0  0  0
  2  7  2  0  0  0  0
M  END
> <ChemID>
100210

> <CAS>
108-90-7

> <Original_SMILES>
Clc1ccccc1

> <preferred_name>
Chlorobenzene

> <dsstox_substance_id>
DTXSID4020298

> <dsstox_compound_id>
DTXCID40298

> <qc_level>
DSSTox_Low

> <Canonical_QSARr>
ClC1C=CC=CC=1

> <InChI_Code_QSARr>
InChI=1S/C6H5Cl/c7-6-4-2-1-3-5-6/h1-5H

> <InChI Key_QSARr>
MVPPADPHJFYWMZ-UHFFFAOYSA-N

> <Salt_Solvent>


> <Salt_Solvent_ID>
0

> <MPID>
99487

> <KocRef>
SRC 1992 Non-Polar

> <LogKOC>
2.15

> <Tr_1_Tst_0>
0

$$$$
100211
  Mrv171c012251911022D          

  7  7  0  0  0  0            999 V2000
    1.4153    0.7000    0.0000 O   0  0  0  0  0  0  0  0  0  0  0  0
    1.4153   -0.1250    0.0000 C   0  0  0  0  0  0  0  0  0  0  0  0
    0.7009   -0.5375    0.0000 C   0  0  0  0  0  0  0  0  0  0  0  0
    0.7009   -1.3625    0.0000 C   0  0  0  0  0  0  0  0  0  0  0  0
    1.4153   -1.7750    0.0000 C   0  0  0  0  0  0  0  0  0  0  0  0
    2.1298   -1.3625    0.0000 C   0  0  0  0  0  0  0  0  0  0  0  0
    2.1298   -0.5375    0.0000 C   0  0  0  0  0  0  0  0  0  0  0  0
  1  2  1  0  0  0  0
  3  2  1  0  0  0  0
  4  3  2  0  0  0  0
  5  4  1  0  0  0  0
  6  5  2  0  0  0  0
  7  6  1  0  0  0  0
  2  7  2  0  0  0  0
M  END
> <ChemID>
100211

> <CAS>
108-95-2

> <Original_SMILES>
Oc1ccccc1

> <preferred_name>
Phenol

> <dsstox_substance_id>
DTXSID5021124

> <dsstox_compound_id>
DTXCID501124

> <qc_level>
DSSTox_Low

> <Canonical_QSARr>
OC1C=CC=CC=1

> <InChI_Code_QSARr>
InChI=1S/C6H6O/c7-6-4-2-1-3-5-6/h1-5,7H

> <InChI Key_QSARr>
ISWSIDIOOBJBQZ-UHFFFAOYSA-N

> <Salt_Solvent>


> <Salt_Solvent_ID>
0

> <MPID>
99488

> <KocRef>
Schuurmann-Main

> <LogKOC>
1.43

> <Tr_1_Tst_0>
1

$$$$
100212
  Mrv171c012251911022D          

  5  4  0  0  0  0            999 V2000
    2.5848   -1.1044    0.0000 C   0  0  0  0  0  0  0  0  0  0  0  0
    2.1723   -0.3899    0.0000 C   0  0  0  0  0  0  0  0  0  0  0  0
    1.3473   -0.3899    0.0000 C   0  0  0  0  0  0  0  0  0  0  0  0
    0.9348    0.3245    0.0000 C   0  0  0  0  0  0  0  0  0  0  0  0
    0.1098    0.3245    0.0000 N   0  0  0  0  0  0  0  0  0  0  0  0
  1  2  1  0  0  0  0
  2  3  1  0  0  0  0
  3  4  1  0  0  0  0
  4  5  1  0  0  0  0
M  END
> <ChemID>
100212

> <CAS>
109-73-9

> <Original_SMILES>
CCCCN

> <preferred_name>
Butylamine

> <dsstox_substance_id>
DTXSID1021904

> <dsstox_compound_id>
DTXCID501904

> <qc_level>
DSSTox_High

> <Canonical_QSARr>
CCCCN

> <InChI_Code_QSARr>
InChI=1S/C4H11N/c1-2-3-4-5/h2-5H2,1H3

> <InChI Key_QSARr>
HQABUPZFAYXKJW-UHFFFAOYSA-N

> <Salt_Solvent>


> <Salt_Solvent_ID>
0

> <MPID>
99489

> <KocRef>
SRC 1992 Validation

> <LogKOC>
1.88

> <Tr_1_Tst_0>
1

$$$$
100213
  Mrv171c012251911022D          

  6  6  0  0  0  0            999 V2000
    1.4289   -0.4125    0.0000 N   0  0  0  0  0  0  0  0  0  0  0  0
    0.7145    0.0000    0.0000 C   0  0  0  0  0  0  0  0  0  0  0  0
    0.0000   -0.4125    0.0000 C   0  0  0  0  0  0  0  0  0  0  0  0
    0.0000   -1.2375    0.0000 C   0  0  0  0  0  0  0  0  0  0  0  0
    0.7145   -1.6500    0.0000 C   0  0  0  0  0  0  0  0  0  0  0  0
    1.4289   -1.2375    0.0000 C   0  0  0  0  0  0  0  0  0  0  0  0
  2  1  1  0  0  0  0
  3  2  2  0  0  0  0
  4  3  1  0  0  0  0
  5  4  2  0  0  0  0
  6  5  1  0  0  0  0
  1  6  2  0  0  0  0
M  END
> <ChemID>
100213

> <CAS>
110-86-1

> <Original_SMILES>
c1cccc[n]1

> <preferred_name>
Pyridine

> <dsstox_substance_id>
DTXSID9021924

> <dsstox_compound_id>
DTXCID101924

> <qc_level>
DSSTox_Low

> <Canonical_QSARr>
C1=CC=CC=N1

> <InChI_Code_QSARr>
InChI=1S/C5H5N/c1-2-4-6-5-3-1/h1-5H

> <InChI Key_QSARr>
JUJWROOIHBZHMG-UHFFFAOYSA-N

> <Salt_Solvent>


> <Salt_Solvent_ID>
0

> <MPID>
99490

> <KocRef>
SRC 1992 Polar

> <LogKOC>
1.6

> <Tr_1_Tst_0>
1

$$$$
100214
  Mrv171c012251911022D          

  7  6  0  0  0  0            999 V2000
   -0.0018   -0.0582    0.0000 C   0  0  0  0  0  0  0  0  0  0  0  0
    0.7127   -0.4707    0.0000 C   0  0  0  0  0  0  0  0  0  0  0  0
    1.4272   -0.0582    0.0000 C   0  0  0  0  0  0  0  0  0  0  0  0
    2.1416   -0.4707    0.0000 C   0  0  0  0  0  0  0  0  0  0  0  0
    2.8561   -0.0582    0.0000 C   0  0  0  0  0  0  0  0  0  0  0  0
    3.5706   -0.4707    0.0000 C   0  0  0  0  0  0  0  0  0  0  0  0
    4.2850   -0.0582    0.0000 O   0  0  0  0  0  0  0  0  0  0  0  0
  1  2  1  0  0  0  0
  2  3  1  0  0  0  0
  3  4  1  0  0  0  0
  4  5  1  0  0  0  0
  5  6  1  0  0  0  0
  6  7  1  0  0  0  0
M  END
> <ChemID>
100214

> <CAS>
111-27-3

> <Original_SMILES>
CCCCCCO

> <preferred_name>
1-Hexanol

> <dsstox_substance_id>
DTXSID8021931

> <dsstox_compound_id>
DTXCID201931

> <qc_level>
DSSTox_Low

> <Canonical_QSARr>
CCCCCCO

> <InChI_Code_QSARr>
InChI=1S/C6H14O/c1-2-3-4-5-6-7/h7H,2-6H2,1H3

> <InChI Key_QSARr>
ZSIAUFGUXNUGDI-UHFFFAOYSA-N

> <Salt_Solvent>


> <Salt_Solvent_ID>
0

> <MPID>
99491

> <KocRef>
Schuurmann-Main

> <LogKOC>
1.01

> <Tr_1_Tst_0>
0

$$$$
100215
  Mrv171c012251911022D          

  7  6  0  0  0  0            999 V2000
    0.0075   -0.0592    0.0000 O   0  0  0  0  0  0  0  0  0  0  0  0
    0.7220   -0.4717    0.0000 C   0  0  0  0  0  0  0  0  0  0  0  0
    1.4365   -0.0592    0.0000 C   0  0  0  0  0  0  0  0  0  0  0  0
    2.1510   -0.4717    0.0000 N   0  0  0  0  0  0  0  0  0  0  0  0
    2.8654   -0.0592    0.0000 C   0  0  0  0  0  0  0  0  0  0  0  0
    3.5799   -0.4717    0.0000 C   0  0  0  0  0  0  0  0  0  0  0  0
    4.2944   -0.0592    0.0000 O   0  0  0  0  0  0  0  0  0  0  0  0
  1  2  1  0  0  0  0
  2  3  1  0  0  0  0
  3  4  1  0  0  0  0
  4  5  1  0  0  0  0
  5  6  1  0  0  0  0
  6  7  1  0  0  0  0
M  END
> <ChemID>
100215

> <CAS>
111-42-2

> <Original_SMILES>
OCCNCCO

> <preferred_name>
Diethanolamine

> <dsstox_substance_id>
DTXSID3021932

> <dsstox_compound_id>
DTXCID601932

> <qc_level>
DSSTox_High

> <Canonical_QSARr>
OCCNCCO

> <InChI_Code_QSARr>
InChI=1S/C4H11NO2/c6-3-1-5-2-4-7/h5-7H,1-4H2

> <InChI Key_QSARr>
ZBCBWPMODOFKDW-UHFFFAOYSA-N

> <Salt_Solvent>


> <Salt_Solvent_ID>
0

> <MPID>
99492

> <KocRef>
Schuurmann-Main

> <LogKOC>
0.6

> <Tr_1_Tst_0>
1

$$$$
100216
  Mrv171c012251911022D          

  7  6  0  0  0  0            999 V2000
    0.0075   -0.0592    0.0000 Cl  0  0  0  0  0  0  0  0  0  0  0  0
    0.7220   -0.4717    0.0000 C   0  0  0  0  0  0  0  0  0  0  0  0
    1.4365   -0.0592    0.0000 C   0  0  0  0  0  0  0  0  0  0  0  0
    2.1510   -0.4717    0.0000 O   0  0  0  0  0  0  0  0  0  0  0  0
    2.8654   -0.0592    0.0000 C   0  0  0  0  0  0  0  0  0  0  0  0
    3.5799   -0.4717    0.0000 C   0  0  0  0  0  0  0  0  0  0  0  0
    4.2944   -0.0592    0.0000 Cl  0  0  0  0  0  0  0  0  0  0  0  0
  1  2  1  0  0  0  0
  2  3  1  0  0  0  0
  3  4  1  0  0  0  0
  4  5  1  0  0  0  0
  5  6  1  0  0  0  0
  6  7  1  0  0  0  0
M  END
> <ChemID>
100216

> <CAS>
111-44-4

> <Original_SMILES>
ClCCOCCCl

> <preferred_name>
Bis(2-chloroethyl) ether

> <dsstox_substance_id>
DTXSID9020168

> <dsstox_compound_id>
DTXCID70168

> <qc_level>
DSSTox_Low

> <Canonical_QSARr>
ClCCOCCCl

> <InChI_Code_QSARr>
InChI=1S/C4H8Cl2O/c5-1-3-7-4-2-6/h1-4H2

> <InChI Key_QSARr>
ZNSMNVMLTJELDZ-UHFFFAOYSA-N

> <Salt_Solvent>


> <Salt_Solvent_ID>
0

> <MPID>
99493

> <KocRef>
Schuurmann-Main

> <LogKOC>
1.88

> <Tr_1_Tst_0>
1

$$$$
100217
  Mrv171c012251911022D          

 10  9  0  0  0  0            999 V2000
    0.0017   -1.2372    0.0000 S   0  0  0  0  0  0  0  0  0  0  0  0
    0.7162   -0.8247    0.0000 C   0  0  0  0  0  0  0  0  0  0  0  0
    0.7162    0.0003    0.0000 S   0  0  0  0  0  0  0  0  0  0  0  0
    1.4307   -1.2372    0.0000 N   0  0  0  0  0  0  0  0  0  0  0  0
    2.1452   -0.8247    0.0000 C   0  0  0  0  0  0  0  0  0  0  0  0
    2.8596   -1.2372    0.0000 C   0  0  0  0  0  0  0  0  0  0  0  0
    3.5741   -0.8247    0.0000 N   0  0  0  0  0  0  0  0  0  0  0  0
    4.2886   -1.2372    0.0000 C   0  0  0  0  0  0  0  0  0  0  0  0
    5.0030   -0.8247    0.0000 S   0  0  0  0  0  0  0  0  0  0  0  0
    4.2886   -2.0622    0.0000 S   0  0  0  0  0  0  0  0  0  0  0  0
  1  2  2  0  0  0  0
  2  3  1  0  0  0  0
  2  4  1  0  0  0  0
  4  5  1  0  0  0  0
  5  6  1  0  0  0  0
  6  7  1  0  0  0  0
  7  8  1  0  0  0  0
  8  9  1  0  0  0  0
  8 10  2  0  0  0  0
M  END
> <ChemID>
100217

> <CAS>
111-54-6

> <Original_SMILES>
SC(=S)NCCNC(S)=S

> <preferred_name>
Ethylenebis[dithiocarbamic acid]

> <dsstox_substance_id>
DTXSID5043972

> <dsstox_compound_id>
DTXCID3023972

> <qc_level>
DSSTox_High

> <Canonical_QSARr>
SC(=S)NCCNC(S)=S

> <InChI_Code_QSARr>
InChI=1S/C4H8N2S4/c7-3(8)5-1-2-6-4(9)10/h1-2H2,(H2,5,7,8)(H2,6,9,10)

> <InChI Key_QSARr>
AWYFNIZYMPNGAI-UHFFFAOYSA-N

> <Salt_Solvent>


> <Salt_Solvent_ID>
0

> <MPID>
99494

> <KocRef>
Schuurmann-Main

> <LogKOC>
2.74

> <Tr_1_Tst_0>
1

$$$$
100218
  Mrv171c012251911022D          

  8  7  0  0  0  0            999 V2000
    0.0018   -0.4115    0.0000 C   0  0  0  0  0  0  0  0  0  0  0  0
    0.7163    0.0010    0.0000 C   0  0  0  0  0  0  0  0  0  0  0  0
    1.4308   -0.4115    0.0000 C   0  0  0  0  0  0  0  0  0  0  0  0
    2.1452    0.0010    0.0000 C   0  0  0  0  0  0  0  0  0  0  0  0
    2.8597   -0.4115    0.0000 C   0  0  0  0  0  0  0  0  0  0  0  0
    3.5742    0.0010    0.0000 C   0  0  0  0  0  0  0  0  0  0  0  0
    4.2887   -0.4115    0.0000 C   0  0  0  0  0  0  0  0  0  0  0  0
    5.0031    0.0010    0.0000 O   0  0  0  0  0  0  0  0  0  0  0  0
  1  2  1  0  0  0  0
  2  3  1  0  0  0  0
  3  4  1  0  0  0  0
  4  5  1  0  0  0  0
  5  6  1  0  0  0  0
  6  7  1  0  0  0  0
  7  8  1  0  0  0  0
M  END
> <ChemID>
100218

> <CAS>
111-70-6

> <Original_SMILES>
CCCCCCCO

> <preferred_name>
1-Heptanol

> <dsstox_substance_id>
DTXSID8021937

> <dsstox_compound_id>
DTXCID601937

> <qc_level>
DSSTox_Low

> <Canonical_QSARr>
CCCCCCCO

> <InChI_Code_QSARr>
InChI=1S/C7H16O/c1-2-3-4-5-6-7-8/h8H,2-7H2,1H3

> <InChI Key_QSARr>
BBMCTIGTTCKYKF-UHFFFAOYSA-N

> <Salt_Solvent>


> <Salt_Solvent_ID>
0

> <MPID>
99495

> <KocRef>
Schuurmann-Main

> <LogKOC>
1.14

> <Tr_1_Tst_0>
0

$$$$
100219
  Mrv171c012251911022D          

  8  7  0  0  0  0            999 V2000
   -0.0008   -0.4114    0.0000 O   0  0  0  0  0  0  0  0  0  0  0  0
    0.7136    0.0011    0.0000 C   0  0  0  0  0  0  0  0  0  0  0  0
    1.4281   -0.4114    0.0000 C   0  0  0  0  0  0  0  0  0  0  0  0
    2.1426    0.0011    0.0000 O   0  0  0  0  0  0  0  0  0  0  0  0
    2.8570   -0.4114    0.0000 C   0  0  0  0  0  0  0  0  0  0  0  0
    3.5715    0.0011    0.0000 C   0  0  0  0  0  0  0  0  0  0  0  0
    4.2860   -0.4114    0.0000 C   0  0  0  0  0  0  0  0  0  0  0  0
    5.0005    0.0011    0.0000 C   0  0  0  0  0  0  0  0  0  0  0  0
  1  2  1  0  0  0  0
  2  3  1  0  0  0  0
  3  4  1  0  0  0  0
  4  5  1  0  0  0  0
  5  6  1  0  0  0  0
  6  7  1  0  0  0  0
  7  8  1  0  0  0  0
M  END
> <ChemID>
100219

> <CAS>
111-76-2

> <Original_SMILES>
CCCCOCCO

> <preferred_name>
2-Butoxyethanol

> <dsstox_substance_id>
DTXSID1024097

> <dsstox_compound_id>
DTXCID904097

> <qc_level>
DSSTox_Low

> <Canonical_QSARr>
CCCCOCCO

> <InChI_Code_QSARr>
InChI=1S/C6H14O2/c1-2-3-5-8-6-4-7/h7H,2-6H2,1H3

> <InChI Key_QSARr>
POAOYUHQDCAZBD-UHFFFAOYSA-N

> <Salt_Solvent>


> <Salt_Solvent_ID>
0

> <MPID>
99496

> <KocRef>
Schuurmann-Main

> <LogKOC>
1.83

> <Tr_1_Tst_0>
1

$$$$
100220
  Mrv171c012251911022D          

  9  8  0  0  0  0            999 V2000
    0.0017   -0.0454    0.0000 C   0  0  0  0  0  0  0  0  0  0  0  0
    0.7161   -0.4579    0.0000 C   0  0  0  0  0  0  0  0  0  0  0  0
    1.4306   -0.0454    0.0000 C   0  0  0  0  0  0  0  0  0  0  0  0
    2.1451   -0.4579    0.0000 C   0  0  0  0  0  0  0  0  0  0  0  0
    2.8595   -0.0454    0.0000 C   0  0  0  0  0  0  0  0  0  0  0  0
    3.5740   -0.4579    0.0000 C   0  0  0  0  0  0  0  0  0  0  0  0
    4.2885   -0.0454    0.0000 C   0  0  0  0  0  0  0  0  0  0  0  0
    5.0030   -0.4579    0.0000 C   0  0  0  0  0  0  0  0  0  0  0  0
    5.7174   -0.0454    0.0000 O   0  0  0  0  0  0  0  0  0  0  0  0
  1  2  1  0  0  0  0
  2  3  1  0  0  0  0
  3  4  1  0  0  0  0
  4  5  1  0  0  0  0
  5  6  1  0  0  0  0
  6  7  1  0  0  0  0
  7  8  1  0  0  0  0
  8  9  1  0  0  0  0
M  END
> <ChemID>
100220

> <CAS>
111-87-5

> <Original_SMILES>
CCCCCCCCO

> <preferred_name>
1-Octanol

> <dsstox_substance_id>
DTXSID7021940

> <dsstox_compound_id>
DTXCID101940

> <qc_level>
DSSTox_Low

> <Canonical_QSARr>
CCCCCCCCO

> <InChI_Code_QSARr>
InChI=1S/C8H18O/c1-2-3-4-5-6-7-8-9/h9H,2-8H2,1H3

> <InChI Key_QSARr>
KBPLFHHGFOOTCA-UHFFFAOYSA-N

> <Salt_Solvent>


> <Salt_Solvent_ID>
0

> <MPID>
99497

> <KocRef>
Schuurmann-Main

> <LogKOC>
1.56

> <Tr_1_Tst_0>
1

$$$$
100221
  Mrv171c012251911022D          

  9  8  0  0  0  0            999 V2000
    2.1966   -0.4621    0.0000 O   0  0  0  0  0  0  0  0  0  0  0  0
    1.4821   -0.0496    0.0000 C   0  0  0  0  0  0  0  0  0  0  0  0
    0.7677   -0.4621    0.0000 C   0  0  0  0  0  0  0  0  0  0  0  0
    0.0532   -0.0496    0.0000 Cl  0  0  0  0  0  0  0  0  0  0  0  0
    2.9111   -0.0496    0.0000 C   0  0  0  0  0  0  0  0  0  0  0  0
    3.6255   -0.4621    0.0000 O   0  0  0  0  0  0  0  0  0  0  0  0
    4.3400   -0.0496    0.0000 C   0  0  0  0  0  0  0  0  0  0  0  0
    5.0545   -0.4621    0.0000 C   0  0  0  0  0  0  0  0  0  0  0  0
    5.7690   -0.0496    0.0000 Cl  0  0  0  0  0  0  0  0  0  0  0  0
  1  2  1  0  0  0  0
  2  3  1  0  0  0  0
  3  4  1  0  0  0  0
  1  5  1  0  0  0  0
  5  6  1  0  0  0  0
  6  7  1  0  0  0  0
  7  8  1  0  0  0  0
  8  9  1  0  0  0  0
M  END
> <ChemID>
100221

> <CAS>
111-91-1

> <Original_SMILES>
ClCCOCOCCCl

> <preferred_name>
Bis(2-chloroethoxy)methane

> <dsstox_substance_id>
DTXSID4023917

> <dsstox_compound_id>
DTXCID203917

> <qc_level>
DSSTox_Low

> <Canonical_QSARr>
ClCCOCOCCCl

> <InChI_Code_QSARr>
InChI=1S/C5H10Cl2O2/c6-1-3-8-5-9-4-2-7/h1-5H2

> <InChI Key_QSARr>
NLXGURFLBLRZRO-UHFFFAOYSA-N

> <Salt_Solvent>


> <Salt_Solvent_ID>
0

> <MPID>
99498

> <KocRef>
Schuurmann-Main

> <LogKOC>
1.79

> <Tr_1_Tst_0>
1

$$$$
100222
  Mrv171c012251911022D          

 11 10  0  0  0  0            999 V2000
   -0.0043   -0.0383    0.0000 C   0  0  0  0  0  0  0  0  0  0  0  0
    0.7102   -0.4508    0.0000 C   0  0  0  0  0  0  0  0  0  0  0  0
    1.4246   -0.0383    0.0000 C   0  0  0  0  0  0  0  0  0  0  0  0
    2.1391   -0.4508    0.0000 C   0  0  0  0  0  0  0  0  0  0  0  0
    2.8536   -0.0383    0.0000 C   0  0  0  0  0  0  0  0  0  0  0  0
    3.5680   -0.4508    0.0000 C   0  0  0  0  0  0  0  0  0  0  0  0
    4.2825   -0.0383    0.0000 C   0  0  0  0  0  0  0  0  0  0  0  0
    4.9970   -0.4508    0.0000 C   0  0  0  0  0  0  0  0  0  0  0  0
    5.7115   -0.0383    0.0000 C   0  0  0  0  0  0  0  0  0  0  0  0
    6.4259   -0.4508    0.0000 C   0  0  0  0  0  0  0  0  0  0  0  0
    7.1404   -0.0383    0.0000 O   0  0  0  0  0  0  0  0  0  0  0  0
  1  2  1  0  0  0  0
  2  3  1  0  0  0  0
  3  4  1  0  0  0  0
  4  5  1  0  0  0  0
  5  6  1  0  0  0  0
  6  7  1  0  0  0  0
  7  8  1  0  0  0  0
  8  9  1  0  0  0  0
  9 10  1  0  0  0  0
 10 11  1  0  0  0  0
M  END
> <ChemID>
100222

> <CAS>
112-30-1

> <Original_SMILES>
CCCCCCCCCCO

> <preferred_name>
1-Decanol

> <dsstox_substance_id>
DTXSID7021946

> <dsstox_compound_id>
DTXCID501946

> <qc_level>
DSSTox_Low

> <Canonical_QSARr>
CCCCCCCCCCO

> <InChI_Code_QSARr>
InChI=1S/C10H22O/c1-2-3-4-5-6-7-8-9-10-11/h11H,2-10H2,1H3

> <InChI Key_QSARr>
MWKFXSUHUHTGQN-UHFFFAOYSA-N

> <Salt_Solvent>


> <Salt_Solvent_ID>
0

> <MPID>
99499

> <KocRef>
Schuurmann-Main

> <LogKOC>
2.59

> <Tr_1_Tst_0>
0

$$$$
100223
  Mrv171c012251911022D          

 13 12  0  0  0  0            999 V2000
    0.7075   -0.4480    0.0000 C   0  0  0  0  0  0  0  0  0  0  0  0
   -0.0070   -0.0355    0.0000 O   0  0  0  0  0  0  0  0  0  0  0  0
    1.4220   -0.0355    0.0000 C   0  0  0  0  0  0  0  0  0  0  0  0
    2.1364   -0.4480    0.0000 C   0  0  0  0  0  0  0  0  0  0  0  0
    2.8509   -0.0355    0.0000 C   0  0  0  0  0  0  0  0  0  0  0  0
    3.5654   -0.4480    0.0000 C   0  0  0  0  0  0  0  0  0  0  0  0
    4.2799   -0.0355    0.0000 C   0  0  0  0  0  0  0  0  0  0  0  0
    4.9943   -0.4480    0.0000 C   0  0  0  0  0  0  0  0  0  0  0  0
    5.7088   -0.0355    0.0000 C   0  0  0  0  0  0  0  0  0  0  0  0
    6.4233   -0.4480    0.0000 C   0  0  0  0  0  0  0  0  0  0  0  0
    7.1377   -0.0355    0.0000 C   0  0  0  0  0  0  0  0  0  0  0  0
    7.8522   -0.4480    0.0000 C   0  0  0  0  0  0  0  0  0  0  0  0
    8.5667   -0.0355    0.0000 C   0  0  0  0  0  0  0  0  0  0  0  0
  1  2  1  0  0  0  0
  1  3  1  0  0  0  0
  3  4  1  0  0  0  0
  4  5  1  0  0  0  0
  5  6  1  0  0  0  0
  6  7  1  0  0  0  0
  7  8  1  0  0  0  0
  8  9  1  0  0  0  0
  9 10  1  0  0  0  0
 10 11  1  0  0  0  0
 11 12  1  0  0  0  0
 12 13  1  0  0  0  0
M  END
> <ChemID>
100223

> <CAS>
112-53-8

> <Original_SMILES>
CCCCCCCCCCCCO

> <preferred_name>
1-Dodecanol

> <dsstox_substance_id>
DTXSID5026918

> <dsstox_compound_id>
DTXCID906918

> <qc_level>
DSSTox_Low

> <Canonical_QSARr>
CCCCCCCCCCCCO

> <InChI_Code_QSARr>
InChI=1S/C12H26O/c1-2-3-4-5-6-7-8-9-10-11-12-13/h13H,2-12H2,1H3

> <InChI Key_QSARr>
LQZZUXJYWNFBMV-UHFFFAOYSA-N

> <Salt_Solvent>


> <Salt_Solvent_ID>
0

> <MPID>
99500

> <KocRef>
SRC 1992 Supplement

> <LogKOC>
3.52

> <Tr_1_Tst_0>
1

$$$$
100224
  Mrv171c012251911022D          

 15 15  0  0  0  0            999 V2000
    4.7422   -2.6245    0.0000 C   0  0  0  0  0  0  0  0  0  0  0  0
    4.0277   -3.0370    0.0000 C   0  0  0  0  0  0  0  0  0  0  0  0
    3.3132   -2.6245    0.0000 O   0  0  0  0  0  0  0  0  0  0  0  0
    2.5988   -3.0370    0.0000 C   0  0  0  0  0  0  0  0  0  0  0  0
    1.8843   -2.6245    0.0000 C   0  0  0  0  0  0  0  0  0  0  0  0
    1.8843   -1.7995    0.0000 O   0  0  0  0  0  0  0  0  0  0  0  0
    1.1698   -1.3870    0.0000 C   0  0  0  0  0  0  0  0  0  0  0  0
    1.1698   -0.5620    0.0000 N   0  0  0  0  0  0  0  0  0  0  0  0
    0.4554   -0.1495    0.0000 C   0  0  0  0  0  0  0  0  0  0  0  0
    0.4554   -1.7995    0.0000 O   0  0  0  0  0  0  0  0  0  0  0  0
    1.1698   -3.0370    0.0000 C   0  0  0  0  0  0  0  0  0  0  0  0
    1.1698   -3.8620    0.0000 C   0  0  0  0  0  0  0  0  0  0  0  0
    1.8843   -4.2745    0.0000 C   0  0  0  0  0  0  0  0  0  0  0  0
    2.5988   -3.8620    0.0000 C   0  0  0  0  0  0  0  0  0  0  0  0
    4.0277   -3.8620    0.0000 C   0  0  0  0  0  0  0  0  0  0  0  0
  1  2  1  0  0  0  0
  2  3  1  0  0  0  0
  3  4  1  0  0  0  0
  5  4  1  0  0  0  0
  5  6  1  0  0  0  0
  6  7  1  0  0  0  0
  7  8  1  0  0  0  0
  8  9  1  0  0  0  0
  7 10  2  0  0  0  0
 11  5  2  0  0  0  0
 12 11  1  0  0  0  0
 13 12  2  0  0  0  0
 14 13  1  0  0  0  0
  4 14  2  0  0  0  0
  2 15  1  0  0  0  0
M  END
> <ChemID>
100224

> <CAS>
114-26-1

> <Original_SMILES>
CNC(=O)Oc1ccccc1OC(C)C

> <preferred_name>
Propoxur

> <dsstox_substance_id>
DTXSID7021948

> <dsstox_compound_id>
DTXCID301948

> <qc_level>
DSSTox_Low

> <Canonical_QSARr>
CNC(=O)OC1=CC=CC=C1OC(C)C

> <InChI_Code_QSARr>
InChI=1S/C11H15NO3/c1-8(2)14-9-6-4-5-7-10(9)15-11(13)12-3/h4-8H,1-3H3,(H,12,13)

> <InChI Key_QSARr>
ISRUGXGCCGIOQO-UHFFFAOYSA-N

> <Salt_Solvent>


> <Salt_Solvent_ID>
0

> <MPID>
99501

> <KocRef>
Schuurmann-Main

> <LogKOC>
1.67

> <Tr_1_Tst_0>
1

$$$$
100225
  Mrv171c012251911022D          

 11 11  0  0  0  0            999 V2000
    0.9093    0.9000    0.0000 C   0  0  0  0  0  0  0  0  0  0  0  0
    0.1948    1.3125    0.0000 N   0  0  0  0  0  0  0  0  0  0  0  0
    0.1948    2.1375    0.0000 C   0  0  0  0  0  0  0  0  0  0  0  0
   -0.5196    2.5500    0.0000 O   0  0  0  0  0  0  0  0  0  0  0  0
    0.9093    2.5500    0.0000 N   0  0  0  0  0  0  0  0  0  0  0  0
    0.9093    0.0750    0.0000 C   0  0  0  0  0  0  0  0  0  0  0  0
    1.6238   -0.3375    0.0000 C   0  0  0  0  0  0  0  0  0  0  0  0
    2.3383    0.0750    0.0000 C   0  0  0  0  0  0  0  0  0  0  0  0
    2.3383    0.9000    0.0000 C   0  0  0  0  0  0  0  0  0  0  0  0
    1.6238    1.3125    0.0000 C   0  0  0  0  0  0  0  0  0  0  0  0
    1.6238    2.1375    0.0000 Cl  0  0  0  0  0  0  0  0  0  0  0  0
  1  2  1  0  0  0  0
  2  3  1  0  0  0  0
  3  4  2  0  0  0  0
  3  5  1  0  0  0  0
  6  1  1  0  0  0  0
  7  6  2  0  0  0  0
  8  7  1  0  0  0  0
  9  8  2  0  0  0  0
 10  9  1  0  0  0  0
  1 10  2  0  0  0  0
 10 11  1  0  0  0  0
M  END
> <ChemID>
100225

> <CAS>
114-38-5

> <Original_SMILES>
NC(=O)Nc1ccccc1Cl

> <preferred_name>
(2-Chlorophenyl)urea

> <dsstox_substance_id>
DTXSID1074460

> <dsstox_compound_id>
DTXCID5033335

> <qc_level>
Public_High

> <Canonical_QSARr>
NC(=O)NC1C=CC=CC=1Cl

> <InChI_Code_QSARr>
InChI=1S/C7H7ClN2O/c8-5-3-1-2-4-6(5)10-7(9)11/h1-4H,(H3,9,10,11)

> <InChI Key_QSARr>
ASPIQYFYSMQBHA-UHFFFAOYSA-N

> <Salt_Solvent>


> <Salt_Solvent_ID>
0

> <MPID>
99502

> <KocRef>
Schuurmann-Main

> <LogKOC>
1.61

> <Tr_1_Tst_0>
1

$$$$
100226
  Mrv171c012251911022D          

 19 20  0  0  0  0            999 V2000
    0.6241   -1.4154    0.0000 C   0  0  0  0  0  0  0  0  0  0  0  0
    0.0269   -0.9666    0.0000 Cl  0  0  0  0  0  0  0  0  0  0  0  0
    1.4558   -0.9811    0.0000 C   0  0  0  0  0  0  0  0  0  0  0  0
    1.4642   -0.1562    0.0000 Cl  0  0  0  0  0  0  0  0  0  0  0  0
    1.6536   -1.8082    0.0000 C   0  0  0  0  0  0  0  0  0  0  0  0
    0.9115   -1.4478    0.0000 Cl  0  0  0  0  0  0  0  0  0  0  0  0
    1.0173   -2.1244    0.0000 Cl  0  0  0  0  0  0  0  0  0  0  0  0
    1.4390   -2.6311    0.0000 C   0  0  0  0  0  0  0  0  0  0  0  0
    1.4306   -3.4560    0.0000 Cl  0  0  0  0  0  0  0  0  0  0  0  0
    2.1576   -2.2258    0.0000 C   0  0  0  0  0  0  0  0  0  0  0  0
    2.8679   -2.6456    0.0000 C   0  0  0  0  0  0  0  0  0  0  0  0
    3.5865   -2.2404    0.0000 O   0  0  0  0  0  0  0  0  0  0  0  0
    2.8595   -3.4705    0.0000 O   0  0  0  0  0  0  0  0  0  0  0  0
    2.1660   -1.4009    0.0000 C   0  0  0  0  0  0  0  0  0  0  0  0
    2.8846   -0.9957    0.0000 C   0  0  0  0  0  0  0  0  0  0  0  0
    2.8930   -0.1707    0.0000 O   0  0  0  0  0  0  0  0  0  0  0  0
    3.5949   -1.4154    0.0000 O   0  0  0  0  0  0  0  0  0  0  0  0
    0.7288   -2.2113    0.0000 C   0  0  0  0  0  0  0  0  0  0  0  0
    0.0101   -2.6165    0.0000 Cl  0  0  0  0  0  0  0  0  0  0  0  0
  1  2  1  0  0  0  0
  3  1  1  0  0  0  0
  3  4  1  0  0  0  0
  3  5  1  0  0  0  0
  5  6  1  0  0  0  0
  5  7  1  0  0  0  0
  5  8  1  0  0  0  0
  8  9  1  0  0  0  0
  8 10  1  0  0  0  0
 10 11  1  0  0  0  0
 11 12  1  0  0  0  0
 11 13  2  0  0  0  0
 10 14  1  0  0  0  0
 14  3  1  0  0  0  0
 14 15  1  0  0  0  0
 15 16  1  0  0  0  0
 15 17  2  0  0  0  0
 18  8  1  0  0  0  0
  1 18  2  0  0  0  0
 18 19  1  0  0  0  0
M  END
> <ChemID>
100226

> <CAS>
115-28-6

> <Original_SMILES>
OC(=O)C1C(C(O)=O)C2(Cl)C(Cl)=C(Cl)C1(Cl)C2(Cl)Cl

> <preferred_name>
Chlorendic acid

> <dsstox_substance_id>
DTXSID2020268

> <dsstox_compound_id>
DTXCID80268

> <qc_level>
DSSTox_High

> <Canonical_QSARr>
OC(=O)C1C(C(O)=O)C2(Cl)C(Cl)=C(Cl)C1(Cl)C2(Cl)Cl

> <InChI_Code_QSARr>
InChI=1S/C9H4Cl6O4/c10-3-4(11)8(13)2(6(18)19)1(5(16)17)7(3,12)9(8,14)15/h1-2H,(H,16,17)(H,18,19)

> <InChI Key_QSARr>
DJKGDNKYTKCJKD-UHFFFAOYSA-N

> <Salt_Solvent>


> <Salt_Solvent_ID>
0

> <MPID>
99503

> <KocRef>
Schuurmann-Main

> <LogKOC>
2.79

> <Tr_1_Tst_0>
0

$$$$
100227
  Mrv171c012251911022D          

 19 21  0  0  0  0            999 V2000
    1.1239   -2.4399    0.0000 O   0  0  0  0  0  0  0  0  0  0  0  0
    1.9271   -2.6284    0.0000 C   0  0  0  0  0  0  0  0  0  0  0  0
    2.4923   -2.2000    0.0000 C   0  0  0  0  0  0  0  0  0  0  0  0
    3.2872   -2.5349    0.0000 C   0  0  0  0  0  0  0  0  0  0  0  0
    3.4299   -3.3877    0.0000 Cl  0  0  0  0  0  0  0  0  0  0  0  0
    3.4985   -1.7112    0.0000 C   0  0  0  0  0  0  0  0  0  0  0  0
    2.7815   -1.8182    0.0000 Cl  0  0  0  0  0  0  0  0  0  0  0  0
    2.8346   -0.9234    0.0000 Cl  0  0  0  0  0  0  0  0  0  0  0  0
    3.2974   -0.8850    0.0000 C   0  0  0  0  0  0  0  0  0  0  0  0
    3.4744   -0.0236    0.0000 Cl  0  0  0  0  0  0  0  0  0  0  0  0
    2.5804   -1.2931    0.0000 C   0  0  0  0  0  0  0  0  0  0  0  0
    1.9385   -0.7747    0.0000 C   0  0  0  0  0  0  0  0  0  0  0  0
    1.1331   -0.9533    0.0000 O   0  0  0  0  0  0  0  0  0  0  0  0
    0.7706   -1.6944    0.0000 S   0  0  0  0  0  0  0  0  0  0  0  0
   -0.0887   -1.6896    0.0000 O   0  0  0  0  0  0  0  0  0  0  0  0
    4.0093   -1.3019    0.0000 C   0  0  0  0  0  0  0  0  0  0  0  0
    4.7684   -0.8868    0.0000 Cl  0  0  0  0  0  0  0  0  0  0  0  0
    4.0042   -2.1269    0.0000 C   0  0  0  0  0  0  0  0  0  0  0  0
    4.7538   -2.5541    0.0000 Cl  0  0  0  0  0  0  0  0  0  0  0  0
  2  1  1  0  0  0  0
  3  2  1  0  0  0  0
  3  4  1  0  0  0  0
  4  5  1  0  0  0  0
  6  4  1  0  0  0  0
  6  7  1  0  0  0  0
  6  8  1  0  0  0  0
  9  6  1  0  0  0  0
  9 10  1  0  0  0  0
  9 11  1  0  0  0  0
 11  3  1  0  0  0  0
 12 11  1  0  0  0  0
 13 12  1  0  0  0  0
 14 13  1  0  0  0  0
  1 14  1  0  0  0  0
 14 15  2  0  0  0  0
 16  9  1  0  0  0  0
 16 17  1  0  0  0  0
 18 16  2  0  0  0  0
  4 18  1  0  0  0  0
 18 19  1  0  0  0  0
M  END
> <ChemID>
100227

> <CAS>
115-29-7|959-98-8

> <Original_SMILES>
O=S1OCC2C(CO1)C1(Cl)C(Cl)=C(Cl)C2(Cl)C1(Cl)Cl

> <preferred_name>
Endosulfan|Endosulfan I

> <dsstox_substance_id>
DTXSID1020560|DTXSID9037539

> <dsstox_compound_id>
DTXCID70560|DTXCID7017539

> <qc_level>
DSSTox_High

> <Canonical_QSARr>
O=S1OCC2C(CO1)C1(Cl)C(Cl)=C(Cl)C2(Cl)C1(Cl)Cl

> <InChI_Code_QSARr>
InChI=1S/C9H6Cl6O3S/c10-5-6(11)8(13)4-2-18-19(16)17-1-3(4)7(5,12)9(8,14)15/h3-4H,1-2H2

> <InChI Key_QSARr>
RDYMFSUJUZBWLH-UHFFFAOYSA-N

> <Salt_Solvent>


> <Salt_Solvent_ID>
0

> <MPID>
99504|99670

> <KocRef>
USDA Pest Prop DB|Schuurmann-Main

> <LogKOC>
4.11

> <Tr_1_Tst_0>
1

$$$$
100228
  Mrv171c012251911022D          

 20 21  0  0  0  0            999 V2000
    0.5375   -2.8409    0.0000 O   0  0  0  0  0  0  0  0  0  0  0  0
    1.3625   -2.8409    0.0000 C   0  0  0  0  0  0  0  0  0  0  0  0
    2.1875   -2.8409    0.0000 C   0  0  0  0  0  0  0  0  0  0  0  0
    3.0125   -2.8409    0.0000 Cl  0  0  0  0  0  0  0  0  0  0  0  0
    2.1875   -3.6659    0.0000 Cl  0  0  0  0  0  0  0  0  0  0  0  0
    2.1875   -2.0159    0.0000 Cl  0  0  0  0  0  0  0  0  0  0  0  0
    1.3625   -2.0159    0.0000 C   0  0  0  0  0  0  0  0  0  0  0  0
    2.0770   -1.6034    0.0000 C   0  0  0  0  0  0  0  0  0  0  0  0
    2.0770   -0.7784    0.0000 C   0  0  0  0  0  0  0  0  0  0  0  0
    1.3625   -0.3659    0.0000 C   0  0  0  0  0  0  0  0  0  0  0  0
    1.3625    0.4591    0.0000 Cl  0  0  0  0  0  0  0  0  0  0  0  0
    0.6481   -0.7784    0.0000 C   0  0  0  0  0  0  0  0  0  0  0  0
    0.6481   -1.6034    0.0000 C   0  0  0  0  0  0  0  0  0  0  0  0
    1.3625   -3.6659    0.0000 C   0  0  0  0  0  0  0  0  0  0  0  0
    0.6481   -4.0784    0.0000 C   0  0  0  0  0  0  0  0  0  0  0  0
    0.6481   -4.9034    0.0000 C   0  0  0  0  0  0  0  0  0  0  0  0
    1.3625   -5.3159    0.0000 C   0  0  0  0  0  0  0  0  0  0  0  0
    1.3625   -6.1409    0.0000 Cl  0  0  0  0  0  0  0  0  0  0  0  0
    2.0770   -4.9034    0.0000 C   0  0  0  0  0  0  0  0  0  0  0  0
    2.0770   -4.0784    0.0000 C   0  0  0  0  0  0  0  0  0  0  0  0
  1  2  1  0  0  0  0
  2  3  1  0  0  0  0
  3  4  1  0  0  0  0
  3  5  1  0  0  0  0
  3  6  1  0  0  0  0
  2  7  1  0  0  0  0
  8  7  1  0  0  0  0
  9  8  2  0  0  0  0
 10  9  1  0  0  0  0
 10 11  1  0  0  0  0
 12 10  2  0  0  0  0
 13 12  1  0  0  0  0
  7 13  2  0  0  0  0
  2 14  1  0  0  0  0
 15 14  1  0  0  0  0
 16 15  2  0  0  0  0
 17 16  1  0  0  0  0
 17 18  1  0  0  0  0
 19 17  2  0  0  0  0
 20 19  1  0  0  0  0
 14 20  2  0  0  0  0
M  END
> <ChemID>
100228

> <CAS>
115-32-2

> <Original_SMILES>
OC(c1ccc(Cl)cc1)(c1ccc(Cl)cc1)C(Cl)(Cl)Cl

> <preferred_name>
Dicofol

> <dsstox_substance_id>
DTXSID4020450

> <dsstox_compound_id>
DTXCID40450

> <qc_level>
DSSTox_Low

> <Canonical_QSARr>
OC(C1C=CC(Cl)=CC=1)(C1C=CC(Cl)=CC=1)C(Cl)(Cl)Cl

> <InChI_Code_QSARr>
InChI=1S/C14H9Cl5O/c15-11-5-1-9(2-6-11)13(20,14(17,18)19)10-3-7-12(16)8-4-10/h1-8,20H

> <InChI Key_QSARr>
UOAMTSKGCBMZTC-UHFFFAOYSA-N

> <Salt_Solvent>


> <Salt_Solvent_ID>
0

> <MPID>
99505

> <KocRef>
Schuurmann-Main

> <LogKOC>
3.7

> <Tr_1_Tst_0>
1

$$$$
100229
  Mrv171c012251911022D          

 18 18  0  0  0  0            999 V2000
    3.6889   -3.6509    0.0000 S   0  0  0  0  0  0  0  0  0  0  0  0
    3.6889   -2.8259    0.0000 C   0  0  0  0  0  0  0  0  0  0  0  0
    4.4033   -2.4134    0.0000 C   0  0  0  0  0  0  0  0  0  0  0  0
    4.4033   -1.5884    0.0000 C   0  0  0  0  0  0  0  0  0  0  0  0
    3.6889   -1.1759    0.0000 C   0  0  0  0  0  0  0  0  0  0  0  0
    3.6889   -0.3509    0.0000 O   0  0  0  0  0  0  0  0  0  0  0  0
    2.9744    0.0616    0.0000 P   0  0  0  0  0  0  0  0  0  0  0  0
    2.2599    0.4741    0.0000 O   0  0  0  0  0  0  0  0  0  0  0  0
    2.2599    1.2991    0.0000 C   0  0  0  0  0  0  0  0  0  0  0  0
    1.5455    1.7116    0.0000 C   0  0  0  0  0  0  0  0  0  0  0  0
    2.5619   -0.6528    0.0000 O   0  0  0  0  0  0  0  0  0  0  0  0
    1.7369   -0.6528    0.0000 C   0  0  0  0  0  0  0  0  0  0  0  0
    1.3244    0.0616    0.0000 C   0  0  0  0  0  0  0  0  0  0  0  0
    3.3869    0.7761    0.0000 S   0  0  0  0  0  0  0  0  0  0  0  0
    2.9744   -1.5884    0.0000 C   0  0  0  0  0  0  0  0  0  0  0  0
    2.9744   -2.4134    0.0000 C   0  0  0  0  0  0  0  0  0  0  0  0
    4.4033   -4.0634    0.0000 C   0  0  0  0  0  0  0  0  0  0  0  0
    2.9744   -4.0634    0.0000 O   0  0  0  0  0  0  0  0  0  0  0  0
  1  2  1  0  0  0  0
  3  2  1  0  0  0  0
  4  3  2  0  0  0  0
  5  4  1  0  0  0  0
  5  6  1  0  0  0  0
  6  7  1  0  0  0  0
  7  8  1  0  0  0  0
  8  9  1  0  0  0  0
  9 10  1  0  0  0  0
  7 11  1  0  0  0  0
 11 12  1  0  0  0  0
 12 13  1  0  0  0  0
  7 14  2  0  0  0  0
 15  5  2  0  0  0  0
 16 15  1  0  0  0  0
  2 16  2  0  0  0  0
  1 17  1  0  0  0  0
  1 18  2  0  0  0  0
M  END
> <ChemID>
100229

> <CAS>
115-90-2

> <Original_SMILES>
CS(=O)c1ccc(cc1)OP(=S)(OCC)OCC

> <preferred_name>
Fensulfothion

> <dsstox_substance_id>
DTXSID6021953

> <dsstox_compound_id>
DTXCID601953

> <qc_level>
DSSTox_Low

> <Canonical_QSARr>
CS(=O)C1C=CC(=CC=1)OP(=S)(OCC)OCC

> <InChI_Code_QSARr>
InChI=1S/C11H17O4PS2/c1-4-13-16(17,14-5-2)15-10-6-8-11(9-7-10)18(3)12/h6-9H,4-5H2,1-3H3

> <InChI Key_QSARr>
XDNBJTQLKCIJBV-UHFFFAOYSA-N

> <Salt_Solvent>


> <Salt_Solvent_ID>
0

> <MPID>
99506

> <KocRef>
Schuurmann-Main

> <LogKOC>
2.52

> <Tr_1_Tst_0>
1

$$$$
100230
  Mrv171c012251911022D          

 12 11  0  0  0  0            999 V2000
    2.3629    0.6232    0.0000 C   0  0  0  0  0  0  0  0  0  0  0  0
    3.0774    0.2107    0.0000 C   0  0  0  0  0  0  0  0  0  0  0  0
    3.7919   -0.2018    0.0000 C   0  0  0  0  0  0  0  0  0  0  0  0
    3.4899    0.9251    0.0000 S   0  0  0  0  0  0  0  0  0  0  0  0
    4.3149    0.9251    0.0000 C   0  0  0  0  0  0  0  0  0  0  0  0
    2.6649   -0.5038    0.0000 C   0  0  0  0  0  0  0  0  0  0  0  0
    1.8399   -0.5038    0.0000 N   0  0  0  0  0  0  0  0  0  0  0  0
    1.4274   -1.2183    0.0000 O   0  0  0  0  0  0  0  0  0  0  0  0
    1.8399   -1.9327    0.0000 C   0  0  0  0  0  0  0  0  0  0  0  0
    1.4274   -2.6472    0.0000 N   0  0  0  0  0  0  0  0  0  0  0  0
    1.8399   -3.3617    0.0000 C   0  0  0  0  0  0  0  0  0  0  0  0
    2.6649   -1.9327    0.0000 O   0  0  0  0  0  0  0  0  0  0  0  0
  1  2  1  0  0  0  0
  2  3  1  0  0  0  0
  2  4  1  0  0  0  0
  4  5  1  0  0  0  0
  6  2  1  4  0  0  0
  6  7  2  0  0  0  0
  7  8  1  0  0  0  0
  8  9  1  0  0  0  0
  9 10  1  0  0  0  0
 10 11  1  0  0  0  0
  9 12  2  0  0  0  0
M  END
> <ChemID>
100230

> <CAS>
116-06-3

> <Original_SMILES>
CNC(=O)ON=CC(C)(C)SC

> <preferred_name>
Aldicarb

> <dsstox_substance_id>
DTXSID0039223

> <dsstox_compound_id>
DTXCID1039

> <qc_level>
DSSTox_Low

> <Canonical_QSARr>
CNC(=O)ON=CC(C)(C)SC

> <InChI_Code_QSARr>
InChI=1S/C7H14N2O2S/c1-7(2,12-4)5-9-11-6(10)8-3/h5H,1-4H3,(H,8,10)

> <InChI Key_QSARr>
QGLZXHRNAYXIBU-UHFFFAOYSA-N

> <Salt_Solvent>


> <Salt_Solvent_ID>
0

> <MPID>
99507

> <KocRef>
Schuurmann-Main

> <LogKOC>
1.5

> <Tr_1_Tst_0>
0

$$$$
100231
  Mrv171c012251911022D          

 13 13  0  0  0  0            999 V2000
    2.6622   -0.8268    0.0000 N   0  3  0  0  0  0  0  0  0  0  0  0
    1.9478   -1.2393    0.0000 C   0  0  0  0  0  0  0  0  0  0  0  0
    1.2333   -0.8268    0.0000 C   0  0  0  0  0  0  0  0  0  0  0  0
    1.2333   -0.0018    0.0000 Cl  0  0  0  0  0  0  0  0  0  0  0  0
    0.5188   -1.2393    0.0000 C   0  0  0  0  0  0  0  0  0  0  0  0
   -0.1956   -0.8268    0.0000 Cl  0  0  0  0  0  0  0  0  0  0  0  0
    0.5188   -2.0643    0.0000 C   0  0  0  0  0  0  0  0  0  0  0  0
    1.2333   -2.4768    0.0000 C   0  0  0  0  0  0  0  0  0  0  0  0
    1.2333   -3.3018    0.0000 Cl  0  0  0  0  0  0  0  0  0  0  0  0
    1.9478   -2.0643    0.0000 C   0  0  0  0  0  0  0  0  0  0  0  0
    2.6622   -2.4768    0.0000 Cl  0  0  0  0  0  0  0  0  0  0  0  0
    3.3767   -1.2393    0.0000 O   0  5  0  0  0  0  0  0  0  0  0  0
    2.6622   -0.0018    0.0000 O   0  0  0  0  0  0  0  0  0  0  0  0
  1  2  1  0  0  0  0
  3  2  1  0  0  0  0
  3  4  1  0  0  0  0
  5  3  2  0  0  0  0
  5  6  1  0  0  0  0
  7  5  1  0  0  0  0
  8  7  2  0  0  0  0
  8  9  1  0  0  0  0
 10  8  1  0  0  0  0
  2 10  2  0  0  0  0
 10 11  1  0  0  0  0
  1 12  1  0  0  0  0
  1 13  2  0  0  0  0
M  CHG  2   1   1  12  -1
M  END
> <ChemID>
100231

> <CAS>
117-18-0

> <Original_SMILES>
[O-][N+](=O)c1c(Cl)c(Cl)cc(Cl)c1Cl

> <preferred_name>
2,3,5,6-Tetrachloronitrobenzene

> <dsstox_substance_id>
DTXSID0026098

> <dsstox_compound_id>
DTXCID506098

> <qc_level>
DSSTox_Low

> <Canonical_QSARr>
[O-][N+](=O)C1=C(Cl)C(Cl)=CC(Cl)=C1Cl

> <InChI_Code_QSARr>
InChI=1S/C6HCl4NO2/c7-2-1-3(8)5(10)6(4(2)9)11(12)13/h1H

> <InChI Key_QSARr>
XQTLDIFVVHJORV-UHFFFAOYSA-N

> <Salt_Solvent>


> <Salt_Solvent_ID>
0

> <MPID>
99508

> <KocRef>
Schuurmann-Main

> <LogKOC>
4.05

> <Tr_1_Tst_0>
1

$$$$
100232
  Mrv171c012251911022D          

 14 15  0  0  0  0            999 V2000
    1.2727   -3.5619    0.0000 O   0  0  0  0  0  0  0  0  0  0  0  0
    1.2727   -2.7369    0.0000 C   0  0  0  0  0  0  0  0  0  0  0  0
    0.5582   -2.3244    0.0000 C   0  0  0  0  0  0  0  0  0  0  0  0
   -0.1562   -2.7369    0.0000 Cl  0  0  0  0  0  0  0  0  0  0  0  0
    0.5582   -1.4994    0.0000 C   0  0  0  0  0  0  0  0  0  0  0  0
   -0.1562   -1.0869    0.0000 Cl  0  0  0  0  0  0  0  0  0  0  0  0
    1.2727   -1.0869    0.0000 C   0  0  0  0  0  0  0  0  0  0  0  0
    1.2727   -0.2619    0.0000 O   0  0  0  0  0  0  0  0  0  0  0  0
    1.9872   -1.4994    0.0000 C   0  0  0  0  0  0  0  0  0  0  0  0
    2.7016   -1.0869    0.0000 C   0  0  0  0  0  0  0  0  0  0  0  0
    3.4161   -1.4994    0.0000 C   0  0  0  0  0  0  0  0  0  0  0  0
    3.4161   -2.3244    0.0000 C   0  0  0  0  0  0  0  0  0  0  0  0
    2.7016   -2.7369    0.0000 C   0  0  0  0  0  0  0  0  0  0  0  0
    1.9872   -2.3244    0.0000 C   0  0  0  0  0  0  0  0  0  0  0  0
  1  2  2  0  0  0  0
  3  2  1  0  0  0  0
  3  4  1  0  0  0  0
  5  3  2  0  0  0  0
  5  6  1  0  0  0  0
  7  5  1  0  0  0  0
  7  8  2  0  0  0  0
  9  7  1  0  0  0  0
  9 10  1  0  0  0  0
 10 11  2  0  0  0  0
 11 12  1  0  0  0  0
 12 13  2  0  0  0  0
 13 14  1  0  0  0  0
  2 14  1  0  0  0  0
 14  9  2  0  0  0  0
M  END
> <ChemID>
100232

> <CAS>
117-80-6

> <Original_SMILES>
O=C1c2ccccc2C(=O)C(Cl)=C1Cl

> <preferred_name>
Dichlone

> <dsstox_substance_id>
DTXSID7020425

> <dsstox_compound_id>
DTXCID30425

> <qc_level>
DSSTox_Low

> <Canonical_QSARr>
O=C1C2C=CC=CC=2C(=O)C(Cl)=C1Cl

> <InChI_Code_QSARr>
InChI=1S/C10H4Cl2O2/c11-7-8(12)10(14)6-4-2-1-3-5(6)9(7)13/h1-4H

> <InChI Key_QSARr>
SVPKNMBRVBMTLB-UHFFFAOYSA-N

> <Salt_Solvent>


> <Salt_Solvent_ID>
0

> <MPID>
99509

> <KocRef>
USDA Pest Prop DB

> <LogKOC>
3.98

> <Tr_1_Tst_0>
1

$$$$
100233
  Mrv171c012251911022D          

 28 28  0  0  0  0            999 V2000
    4.1649   -1.8641    0.0000 O   0  0  0  0  0  0  0  0  0  0  0  0
    4.1649   -2.6891    0.0000 C   0  0  0  0  0  0  0  0  0  0  0  0
    3.4505   -3.1016    0.0000 O   0  0  0  0  0  0  0  0  0  0  0  0
    2.7360   -2.6891    0.0000 C   0  0  0  0  0  0  0  0  0  0  0  0
    2.0215   -3.1016    0.0000 C   0  0  0  0  0  0  0  0  0  0  0  0
    2.0215   -3.9266    0.0000 C   0  0  0  0  0  0  0  0  0  0  0  0
    1.3070   -4.3391    0.0000 C   0  0  0  0  0  0  0  0  0  0  0  0
    1.3070   -2.6891    0.0000 C   0  0  0  0  0  0  0  0  0  0  0  0
    0.5926   -3.1016    0.0000 C   0  0  0  0  0  0  0  0  0  0  0  0
   -0.1219   -2.6891    0.0000 C   0  0  0  0  0  0  0  0  0  0  0  0
   -0.8364   -3.1016    0.0000 C   0  0  0  0  0  0  0  0  0  0  0  0
    4.8794   -3.1016    0.0000 C   0  0  0  0  0  0  0  0  0  0  0  0
    4.8794   -3.9266    0.0000 C   0  0  0  0  0  0  0  0  0  0  0  0
    5.5939   -4.3391    0.0000 C   0  0  0  0  0  0  0  0  0  0  0  0
    6.3083   -3.9266    0.0000 C   0  0  0  0  0  0  0  0  0  0  0  0
    6.3083   -3.1016    0.0000 C   0  0  0  0  0  0  0  0  0  0  0  0
    5.5939   -2.6891    0.0000 C   0  0  0  0  0  0  0  0  0  0  0  0
    5.5939   -1.8641    0.0000 C   0  0  0  0  0  0  0  0  0  0  0  0
    6.3083   -1.4516    0.0000 O   0  0  0  0  0  0  0  0  0  0  0  0
    7.0228   -1.8641    0.0000 C   0  0  0  0  0  0  0  0  0  0  0  0
    7.7373   -1.4516    0.0000 C   0  0  0  0  0  0  0  0  0  0  0  0
    7.7373   -0.6266    0.0000 C   0  0  0  0  0  0  0  0  0  0  0  0
    8.4518   -0.2141    0.0000 C   0  0  0  0  0  0  0  0  0  0  0  0
    8.4518   -1.8641    0.0000 C   0  0  0  0  0  0  0  0  0  0  0  0
    9.1662   -1.4516    0.0000 C   0  0  0  0  0  0  0  0  0  0  0  0
    9.8807   -1.8641    0.0000 C   0  0  0  0  0  0  0  0  0  0  0  0
   10.5952   -1.4516    0.0000 C   0  0  0  0  0  0  0  0  0  0  0  0
    4.8794   -1.4516    0.0000 O   0  0  0  0  0  0  0  0  0  0  0  0
  1  2  2  0  0  0  0
  2  3  1  0  0  0  0
  3  4  1  0  0  0  0
  4  5  1  0  0  0  0
  5  6  1  0  0  0  0
  6  7  1  0  0  0  0
  5  8  1  0  0  0  0
  8  9  1  0  0  0  0
  9 10  1  0  0  0  0
 10 11  1  0  0  0  0
  2 12  1  0  0  0  0
 13 12  1  0  0  0  0
 14 13  2  0  0  0  0
 15 14  1  0  0  0  0
 16 15  2  0  0  0  0
 17 16  1  0  0  0  0
 12 17  2  0  0  0  0
 17 18  1  0  0  0  0
 18 19  1  0  0  0  0
 19 20  1  0  0  0  0
 20 21  1  0  0  0  0
 21 22  1  0  0  0  0
 22 23  1  0  0  0  0
 21 24  1  0  0  0  0
 24 25  1  0  0  0  0
 25 26  1  0  0  0  0
 26 27  1  0  0  0  0
 18 28  2  0  0  0  0
M  END
> <ChemID>
100233

> <CAS>
117-81-7

> <Original_SMILES>
CCCCC(COC(=O)c1ccccc1C(=O)OCC(CCCC)CC)CC

> <preferred_name>
Di(2-ethylhexyl) phthalate

> <dsstox_substance_id>
DTXSID5020607

> <dsstox_compound_id>
DTXCID70607

> <qc_level>
DSSTox_Low

> <Canonical_QSARr>
CCCCC(COC(=O)C1C=CC=CC=1C(=O)OCC(CCCC)CC)CC

> <InChI_Code_QSARr>
InChI=1S/C24H38O4/c1-5-9-13-19(7-3)17-27-23(25)21-15-11-12-16-22(21)24(26)28-18-20(8-4)14-10-6-2/h11-12,15-16,19-20H,5-10,13-14,17-18H2,1-4H3

> <InChI Key_QSARr>
BJQHLKABXJIVAM-UHFFFAOYSA-N

> <Salt_Solvent>


> <Salt_Solvent_ID>
0

> <MPID>
99510

> <KocRef>
Schuurmann-Main

> <LogKOC>
4.94

> <Tr_1_Tst_0>
1

$$$$
100234
  Mrv171c012251911022D          

 28 28  0  0  0  0            999 V2000
    3.1301   -1.2221    0.0000 C   0  0  0  0  0  0  0  0  0  0  0  0
    3.1301   -0.3971    0.0000 C   0  0  0  0  0  0  0  0  0  0  0  0
    2.4157    0.0154    0.0000 C   0  0  0  0  0  0  0  0  0  0  0  0
    1.7012   -0.3971    0.0000 C   0  0  0  0  0  0  0  0  0  0  0  0
    1.7012   -1.2221    0.0000 C   0  0  0  0  0  0  0  0  0  0  0  0
    2.4157   -1.6346    0.0000 C   0  0  0  0  0  0  0  0  0  0  0  0
    2.4157   -2.4596    0.0000 C   0  0  0  0  0  0  0  0  0  0  0  0
    1.7012   -2.8721    0.0000 O   0  0  0  0  0  0  0  0  0  0  0  0
    1.7012   -3.6971    0.0000 C   0  0  0  0  0  0  0  0  0  0  0  0
    0.9867   -4.1096    0.0000 C   0  0  0  0  0  0  0  0  0  0  0  0
    0.9867   -4.9346    0.0000 C   0  0  0  0  0  0  0  0  0  0  0  0
    0.2722   -5.3471    0.0000 C   0  0  0  0  0  0  0  0  0  0  0  0
    0.2722   -6.1721    0.0000 C   0  0  0  0  0  0  0  0  0  0  0  0
   -0.4422   -6.5846    0.0000 C   0  0  0  0  0  0  0  0  0  0  0  0
   -0.4422   -7.4096    0.0000 C   0  0  0  0  0  0  0  0  0  0  0  0
   -1.1567   -7.8221    0.0000 C   0  0  0  0  0  0  0  0  0  0  0  0
    3.1301   -2.8721    0.0000 O   0  0  0  0  0  0  0  0  0  0  0  0
    3.8446   -1.6346    0.0000 C   0  0  0  0  0  0  0  0  0  0  0  0
    4.5591   -1.2221    0.0000 O   0  0  0  0  0  0  0  0  0  0  0  0
    5.2735   -1.6346    0.0000 C   0  0  0  0  0  0  0  0  0  0  0  0
    5.9880   -1.2221    0.0000 C   0  0  0  0  0  0  0  0  0  0  0  0
    6.7025   -1.6346    0.0000 C   0  0  0  0  0  0  0  0  0  0  0  0
    7.4169   -1.2221    0.0000 C   0  0  0  0  0  0  0  0  0  0  0  0
    8.1314   -1.6346    0.0000 C   0  0  0  0  0  0  0  0  0  0  0  0
    8.8459   -1.2221    0.0000 C   0  0  0  0  0  0  0  0  0  0  0  0
    9.5604   -1.6346    0.0000 C   0  0  0  0  0  0  0  0  0  0  0  0
   10.2748   -1.2221    0.0000 C   0  0  0  0  0  0  0  0  0  0  0  0
    3.8446   -2.4596    0.0000 O   0  0  0  0  0  0  0  0  0  0  0  0
  2  1  1  0  0  0  0
  3  2  2  0  0  0  0
  4  3  1  0  0  0  0
  5  4  2  0  0  0  0
  6  5  1  0  0  0  0
  1  6  2  0  0  0  0
  6  7  1  0  0  0  0
  7  8  1  0  0  0  0
  8  9  1  0  0  0  0
  9 10  1  0  0  0  0
 10 11  1  0  0  0  0
 11 12  1  0  0  0  0
 12 13  1  0  0  0  0
 13 14  1  0  0  0  0
 14 15  1  0  0  0  0
 15 16  1  0  0  0  0
  7 17  2  0  0  0  0
  1 18  1  0  0  0  0
 18 19  1  0  0  0  0
 19 20  1  0  0  0  0
 20 21  1  0  0  0  0
 21 22  1  0  0  0  0
 22 23  1  0  0  0  0
 23 24  1  0  0  0  0
 24 25  1  0  0  0  0
 25 26  1  0  0  0  0
 26 27  1  0  0  0  0
 18 28  2  0  0  0  0
M  END
> <ChemID>
100234

> <CAS>
117-84-0

> <Original_SMILES>
CCCCCCCCOC(=O)c1ccccc1C(=O)OCCCCCCCC

> <preferred_name>
Dioctyl phthalate

> <dsstox_substance_id>
DTXSID1021956

> <dsstox_compound_id>
DTXCID801956

> <qc_level>
DSSTox_Low

> <Canonical_QSARr>
CCCCCCCCOC(=O)C1C=CC=CC=1C(=O)OCCCCCCCC

> <InChI_Code_QSARr>
InChI=1S/C24H38O4/c1-3-5-7-9-11-15-19-27-23(25)21-17-13-14-18-22(21)24(26)28-20-16-12-10-8-6-4-2/h13-14,17-18H,3-12,15-16,19-20H2,1-2H3

> <InChI Key_QSARr>
MQIUGAXCHLFZKX-UHFFFAOYSA-N

> <Salt_Solvent>


> <Salt_Solvent_ID>
0

> <MPID>
99511

> <KocRef>
Schuurmann-Main

> <LogKOC>
4.38

> <Tr_1_Tst_0>
0

$$$$
100235
  Mrv171c012251911022D          

 12 12  0  0  0  0            999 V2000
    3.0761   -0.6015    0.0000 Cl  0  0  0  0  0  0  0  0  0  0  0  0
    2.3616   -1.0140    0.0000 C   0  0  0  0  0  0  0  0  0  0  0  0
    1.6472   -0.6015    0.0000 C   0  0  0  0  0  0  0  0  0  0  0  0
    1.6472    0.2235    0.0000 Cl  0  0  0  0  0  0  0  0  0  0  0  0
    0.9327   -1.0140    0.0000 C   0  0  0  0  0  0  0  0  0  0  0  0
    0.2182   -0.6015    0.0000 Cl  0  0  0  0  0  0  0  0  0  0  0  0
    0.9327   -1.8390    0.0000 C   0  0  0  0  0  0  0  0  0  0  0  0
    0.2182   -2.2515    0.0000 Cl  0  0  0  0  0  0  0  0  0  0  0  0
    1.6472   -2.2515    0.0000 C   0  0  0  0  0  0  0  0  0  0  0  0
    1.6472   -3.0765    0.0000 Cl  0  0  0  0  0  0  0  0  0  0  0  0
    2.3616   -1.8390    0.0000 C   0  0  0  0  0  0  0  0  0  0  0  0
    3.0761   -2.2515    0.0000 Cl  0  0  0  0  0  0  0  0  0  0  0  0
  1  2  1  0  0  0  0
  3  2  1  0  0  0  0
  3  4  1  0  0  0  0
  5  3  2  0  0  0  0
  5  6  1  0  0  0  0
  7  5  1  0  0  0  0
  7  8  1  0  0  0  0
  9  7  2  0  0  0  0
  9 10  1  0  0  0  0
 11  9  1  0  0  0  0
  2 11  2  0  0  0  0
 11 12  1  0  0  0  0
M  END
> <ChemID>
100235

> <CAS>
118-74-1

> <Original_SMILES>
Clc1c(Cl)c(Cl)c(Cl)c(Cl)c1Cl

> <preferred_name>
Hexachlorobenzene

> <dsstox_substance_id>
DTXSID2020682

> <dsstox_compound_id>
DTXCID80682

> <qc_level>
DSSTox_Low

> <Canonical_QSARr>
ClC1C(Cl)=C(Cl)C(Cl)=C(Cl)C=1Cl

> <InChI_Code_QSARr>
InChI=1S/C6Cl6/c7-1-2(8)4(10)6(12)5(11)3(1)9

> <InChI Key_QSARr>
CKAPSXZOOQJIBF-UHFFFAOYSA-N

> <Salt_Solvent>


> <Salt_Solvent_ID>
0

> <MPID>
99512

> <KocRef>
SRC 1992 Non-Polar

> <LogKOC>
3.74

> <Tr_1_Tst_0>
1

$$$$
100236
  Mrv171c012251911022D          

 12 12  0  0  0  0            999 V2000
    3.0761   -0.6015    0.0000 O   0  0  0  0  0  0  0  0  0  0  0  0
    2.3616   -1.0140    0.0000 C   0  0  0  0  0  0  0  0  0  0  0  0
    1.6472   -0.6015    0.0000 C   0  0  0  0  0  0  0  0  0  0  0  0
    1.6472    0.2235    0.0000 Cl  0  0  0  0  0  0  0  0  0  0  0  0
    0.9327   -1.0140    0.0000 C   0  0  0  0  0  0  0  0  0  0  0  0
    0.2182   -0.6015    0.0000 Cl  0  0  0  0  0  0  0  0  0  0  0  0
    0.9327   -1.8390    0.0000 C   0  0  0  0  0  0  0  0  0  0  0  0
    0.2182   -2.2515    0.0000 O   0  0  0  0  0  0  0  0  0  0  0  0
    1.6472   -2.2515    0.0000 C   0  0  0  0  0  0  0  0  0  0  0  0
    1.6472   -3.0765    0.0000 Cl  0  0  0  0  0  0  0  0  0  0  0  0
    2.3616   -1.8390    0.0000 C   0  0  0  0  0  0  0  0  0  0  0  0
    3.0761   -2.2515    0.0000 Cl  0  0  0  0  0  0  0  0  0  0  0  0
  1  2  2  0  0  0  0
  3  2  1  0  0  0  0
  3  4  1  0  0  0  0
  5  3  2  0  0  0  0
  5  6  1  0  0  0  0
  7  5  1  0  0  0  0
  7  8  2  0  0  0  0
  9  7  1  0  0  0  0
  9 10  1  0  0  0  0
 11  9  2  0  0  0  0
  2 11  1  0  0  0  0
 11 12  1  0  0  0  0
M  END
> <ChemID>
100236

> <CAS>
118-75-2

> <Original_SMILES>
O=C1C(Cl)=C(Cl)C(=O)C(Cl)=C1Cl

> <preferred_name>
Chloranil

> <dsstox_substance_id>
DTXSID2020266

> <dsstox_compound_id>
DTXCID20266

> <qc_level>
DSSTox_Low

> <Canonical_QSARr>
O=C1C(Cl)=C(Cl)C(=O)C(Cl)=C1Cl

> <InChI_Code_QSARr>
InChI=1S/C6Cl4O2/c7-1-2(8)6(12)4(10)3(9)5(1)11

> <InChI Key_QSARr>
UGNWTBMOAKPKBL-UHFFFAOYSA-N

> <Salt_Solvent>


> <Salt_Solvent_ID>
0

> <MPID>
99513

> <KocRef>
Schuurmann-Main

> <LogKOC>
2.32

> <Tr_1_Tst_0>
1

$$$$
100237
  Mrv171c012251911022D          

 14 15  0  0  0  0            999 V2000
    3.4173   -2.3837    0.0000 C   0  0  0  0  0  0  0  0  0  0  0  0
    2.7029   -1.9712    0.0000 C   0  0  0  0  0  0  0  0  0  0  0  0
    2.7029   -1.1462    0.0000 C   0  0  0  0  0  0  0  0  0  0  0  0
    1.9884   -0.7337    0.0000 C   0  0  0  0  0  0  0  0  0  0  0  0
    1.9884    0.0913    0.0000 C   0  0  0  0  0  0  0  0  0  0  0  0
    1.2739    0.5038    0.0000 C   0  0  0  0  0  0  0  0  0  0  0  0
    0.5595    0.0913    0.0000 C   0  0  0  0  0  0  0  0  0  0  0  0
    0.5595   -0.7337    0.0000 C   0  0  0  0  0  0  0  0  0  0  0  0
    1.2739   -1.1462    0.0000 C   0  0  0  0  0  0  0  0  0  0  0  0
    3.4173   -0.7337    0.0000 O   0  0  0  0  0  0  0  0  0  0  0  0
    1.9884   -2.3837    0.0000 C   0  0  0  0  0  0  0  0  0  0  0  0
    1.9884   -3.2087    0.0000 C   0  0  0  0  0  0  0  0  0  0  0  0
    2.7029   -3.6212    0.0000 C   0  0  0  0  0  0  0  0  0  0  0  0
    3.4173   -3.2087    0.0000 C   0  0  0  0  0  0  0  0  0  0  0  0
  2  1  1  0  0  0  0
  2  3  1  0  0  0  0
  3  4  1  0  0  0  0
  5  4  1  0  0  0  0
  6  5  2  0  0  0  0
  7  6  1  0  0  0  0
  8  7  2  0  0  0  0
  9  8  1  0  0  0  0
  4  9  2  0  0  0  0
  3 10  2  0  0  0  0
 11  2  2  0  0  0  0
 12 11  1  0  0  0  0
 13 12  2  0  0  0  0
 14 13  1  0  0  0  0
  1 14  2  0  0  0  0
M  END
> <ChemID>
100237

> <CAS>
119-61-9

> <Original_SMILES>
O=C(c1ccccc1)c1ccccc1

> <preferred_name>
Benzophenone

> <dsstox_substance_id>
DTXSID0021961

> <dsstox_compound_id>
DTXCID101961

> <qc_level>
DSSTox_Low

> <Canonical_QSARr>
O=C(C1C=CC=CC=1)C1C=CC=CC=1

> <InChI_Code_QSARr>
InChI=1S/C13H10O/c14-13(11-7-3-1-4-8-11)12-9-5-2-6-10-12/h1-10H

> <InChI Key_QSARr>
RWCCWEUUXYIKHB-UHFFFAOYSA-N

> <Salt_Solvent>


> <Salt_Solvent_ID>
0

> <MPID>
99514

> <KocRef>
Schuurmann-Main

> <LogKOC>
2.63

> <Tr_1_Tst_0>
1

$$$$
100238
  Mrv171c012251911022D          

 20 23  0  0  0  0            999 V2000
   -1.4289   -4.1250    0.0000 C   0  0  0  0  0  0  0  0  0  0  0  0
   -1.4289   -4.9500    0.0000 C   0  0  0  0  0  0  0  0  0  0  0  0
   -2.1434   -5.3625    0.0000 C   0  0  0  0  0  0  0  0  0  0  0  0
   -2.8579   -4.9500    0.0000 C   0  0  0  0  0  0  0  0  0  0  0  0
   -3.5724   -5.3625    0.0000 C   0  0  0  0  0  0  0  0  0  0  0  0
   -4.2868   -4.9500    0.0000 C   0  0  0  0  0  0  0  0  0  0  0  0
   -4.2868   -4.1250    0.0000 C   0  0  0  0  0  0  0  0  0  0  0  0
   -3.5724   -3.7125    0.0000 C   0  0  0  0  0  0  0  0  0  0  0  0
   -2.8579   -4.1250    0.0000 C   0  0  0  0  0  0  0  0  0  0  0  0
   -2.1434   -3.7125    0.0000 N   0  0  0  0  0  0  0  0  0  0  0  0
   -0.7145   -3.7125    0.0000 C   0  0  0  0  0  0  0  0  0  0  0  0
   -0.7145   -2.8875    0.0000 C   0  0  0  0  0  0  0  0  0  0  0  0
   -0.0000   -2.4750    0.0000 C   0  0  0  0  0  0  0  0  0  0  0  0
    0.7145   -2.8875    0.0000 C   0  0  0  0  0  0  0  0  0  0  0  0
    1.4289   -2.4750    0.0000 C   0  0  0  0  0  0  0  0  0  0  0  0
    2.1434   -2.8875    0.0000 C   0  0  0  0  0  0  0  0  0  0  0  0
    2.1434   -3.7125    0.0000 C   0  0  0  0  0  0  0  0  0  0  0  0
    1.4289   -4.1250    0.0000 C   0  0  0  0  0  0  0  0  0  0  0  0
    0.7145   -3.7125    0.0000 C   0  0  0  0  0  0  0  0  0  0  0  0
   -0.0000   -4.1250    0.0000 N   0  0  0  0  0  0  0  0  0  0  0  0
  2  1  2  0  0  0  0
  3  2  1  0  0  0  0
  4  3  2  0  0  0  0
  4  5  1  0  0  0  0
  5  6  2  0  0  0  0
  6  7  1  0  0  0  0
  7  8  2  0  0  0  0
  8  9  1  0  0  0  0
  9  4  1  0  0  0  0
 10  9  2  0  0  0  0
  1 10  1  0  0  0  0
  1 11  1  0  0  0  0
 12 11  2  0  0  0  0
 13 12  1  0  0  0  0
 14 13  2  0  0  0  0
 14 15  1  0  0  0  0
 15 16  2  0  0  0  0
 16 17  1  0  0  0  0
 17 18  2  0  0  0  0
 18 19  1  0  0  0  0
 19 14  1  0  0  0  0
 20 19  2  0  0  0  0
 11 20  1  0  0  0  0
M  END
> <ChemID>
100238

> <CAS>
119-91-5

> <Original_SMILES>
c1cc([n]c2ccccc21)-c1ccc2ccccc2[n]1

> <preferred_name>
2,2'-Biquinoline

> <dsstox_substance_id>
DTXSID8059500

> <dsstox_compound_id>
DTXCID9033478

> <qc_level>
Public_High

> <Canonical_QSARr>
C1=CC=CC2=NC(=CC=C21)C1=CC=C2C=CC=CC2=N1

> <InChI_Code_QSARr>
InChI=1S/C18H12N2/c1-3-7-15-13(5-1)9-11-17(19-15)18-12-10-14-6-2-4-8-16(14)20-18/h1-12H

> <InChI Key_QSARr>
WPTCSQBWLUUYDV-UHFFFAOYSA-N

> <Salt_Solvent>


> <Salt_Solvent_ID>
0

> <MPID>
99515

> <KocRef>
Schuurmann-Main

> <LogKOC>
4.02

> <Tr_1_Tst_0>
0

$$$$
100239
  Mrv171c012251911022D          

 14 16  0  0  0  0            999 V2000
    2.1385   -0.0041    0.0000 C   0  0  0  0  0  0  0  0  0  0  0  0
    2.8530   -0.4166    0.0000 C   0  0  0  0  0  0  0  0  0  0  0  0
    3.5675   -0.0041    0.0000 C   0  0  0  0  0  0  0  0  0  0  0  0
    4.2819   -0.4166    0.0000 C   0  0  0  0  0  0  0  0  0  0  0  0
    4.2819   -1.2416    0.0000 C   0  0  0  0  0  0  0  0  0  0  0  0
    3.5675   -1.6541    0.0000 C   0  0  0  0  0  0  0  0  0  0  0  0
    2.8530   -1.2416    0.0000 C   0  0  0  0  0  0  0  0  0  0  0  0
    2.1385   -1.6541    0.0000 C   0  0  0  0  0  0  0  0  0  0  0  0
    1.4240   -1.2416    0.0000 C   0  0  0  0  0  0  0  0  0  0  0  0
    0.7096   -1.6541    0.0000 C   0  0  0  0  0  0  0  0  0  0  0  0
   -0.0049   -1.2416    0.0000 C   0  0  0  0  0  0  0  0  0  0  0  0
   -0.0049   -0.4166    0.0000 C   0  0  0  0  0  0  0  0  0  0  0  0
    0.7096   -0.0041    0.0000 C   0  0  0  0  0  0  0  0  0  0  0  0
    1.4240   -0.4166    0.0000 C   0  0  0  0  0  0  0  0  0  0  0  0
  2  1  2  0  0  0  0
  2  3  1  0  0  0  0
  3  4  2  0  0  0  0
  4  5  1  0  0  0  0
  5  6  2  0  0  0  0
  6  7  1  0  0  0  0
  7  2  1  0  0  0  0
  8  7  2  0  0  0  0
  9  8  1  0  0  0  0
  9 10  1  0  0  0  0
 10 11  2  0  0  0  0
 11 12  1  0  0  0  0
 12 13  2  0  0  0  0
 13 14  1  0  0  0  0
  1 14  1  0  0  0  0
 14  9  2  0  0  0  0
M  END
> <ChemID>
100239

> <CAS>
120-12-7

> <Original_SMILES>
c1c2ccccc2cc2ccccc21

> <preferred_name>
Anthracene

> <dsstox_substance_id>
DTXSID0023878

> <dsstox_compound_id>
DTXCID203878

> <qc_level>
DSSTox_Low

> <Canonical_QSARr>
C1=C2C=CC=CC2=CC2C=CC=CC=21

> <InChI_Code_QSARr>
InChI=1S/C14H10/c1-2-6-12-10-14-8-4-3-7-13(14)9-11(12)5-1/h1-10H

> <InChI Key_QSARr>
MWPLVEDNUUSJAV-UHFFFAOYSA-N

> <Salt_Solvent>


> <Salt_Solvent_ID>
0

> <MPID>
99516

> <KocRef>
Schuurmann-Main

> <LogKOC>
4.31

> <Tr_1_Tst_0>
1

$$$$
100240
  Mrv171c012251911022D          

 14 14  0  0  0  0            999 V2000
    3.4189   -1.1503    0.0000 Cl  0  0  0  0  0  0  0  0  0  0  0  0
    2.7044   -0.7378    0.0000 C   0  0  0  0  0  0  0  0  0  0  0  0
    2.7044    0.0872    0.0000 C   0  0  0  0  0  0  0  0  0  0  0  0
    1.9899    0.4997    0.0000 C   0  0  0  0  0  0  0  0  0  0  0  0
    1.9899    1.3247    0.0000 Cl  0  0  0  0  0  0  0  0  0  0  0  0
    1.2754    0.0872    0.0000 C   0  0  0  0  0  0  0  0  0  0  0  0
    1.2754   -0.7378    0.0000 C   0  0  0  0  0  0  0  0  0  0  0  0
    1.9899   -1.1503    0.0000 C   0  0  0  0  0  0  0  0  0  0  0  0
    1.9899   -1.9753    0.0000 O   0  0  0  0  0  0  0  0  0  0  0  0
    2.7044   -2.3878    0.0000 C   0  0  0  0  0  0  0  0  0  0  0  0
    3.4189   -1.9753    0.0000 C   0  0  0  0  0  0  0  0  0  0  0  0
    2.7044   -3.2128    0.0000 C   0  0  0  0  0  0  0  0  0  0  0  0
    3.4189   -3.6253    0.0000 O   0  0  0  0  0  0  0  0  0  0  0  0
    1.9899   -3.6253    0.0000 O   0  0  0  0  0  0  0  0  0  0  0  0
  1  2  1  0  0  0  0
  3  2  1  0  0  0  0
  4  3  2  0  0  0  0
  4  5  1  0  0  0  0
  6  4  1  0  0  0  0
  7  6  2  0  0  0  0
  8  7  1  0  0  0  0
  2  8  2  0  0  0  0
  8  9  1  0  0  0  0
  9 10  1  0  0  0  0
 10 11  1  0  0  0  0
 10 12  1  0  0  0  0
 12 13  1  0  0  0  0
 12 14  2  0  0  0  0
M  END
> <ChemID>
100240

> <CAS>
120-36-5

> <Original_SMILES>
CC(Oc1ccc(Cl)cc1Cl)C(O)=O

> <preferred_name>
Dichlorprop

> <dsstox_substance_id>
DTXSID0020440

> <dsstox_compound_id>
DTXCID20440

> <qc_level>
DSSTox_High

> <Canonical_QSARr>
CC(OC1C=CC(Cl)=CC=1Cl)C(O)=O

> <InChI_Code_QSARr>
InChI=1S/C9H8Cl2O3/c1-5(9(12)13)14-8-3-2-6(10)4-7(8)11/h2-5H,1H3,(H,12,13)

> <InChI Key_QSARr>
MZHCENGPTKEIGP-UHFFFAOYSA-N

> <Salt_Solvent>


> <Salt_Solvent_ID>
0

> <MPID>
99517

> <KocRef>
USDA Pest Prop DB

> <LogKOC>
2.23

> <Tr_1_Tst_0>
1

$$$$
100241
  Mrv171c012251911022D          

 12 12  0  0  0  0            999 V2000
    2.6838   -2.0384    0.0000 C   0  0  0  0  0  0  0  0  0  0  0  0
    1.9693   -2.4509    0.0000 O   0  0  0  0  0  0  0  0  0  0  0  0
    1.9693   -3.2759    0.0000 C   0  0  0  0  0  0  0  0  0  0  0  0
    1.2548   -3.6884    0.0000 C   0  0  0  0  0  0  0  0  0  0  0  0
    3.3982   -2.4509    0.0000 O   0  0  0  0  0  0  0  0  0  0  0  0
    2.6838   -1.2134    0.0000 C   0  0  0  0  0  0  0  0  0  0  0  0
    3.3982   -0.8009    0.0000 C   0  0  0  0  0  0  0  0  0  0  0  0
    3.3982    0.0241    0.0000 C   0  0  0  0  0  0  0  0  0  0  0  0
    2.6838    0.4366    0.0000 C   0  0  0  0  0  0  0  0  0  0  0  0
    2.6838    1.2616    0.0000 O   0  0  0  0  0  0  0  0  0  0  0  0
    1.9693    0.0241    0.0000 C   0  0  0  0  0  0  0  0  0  0  0  0
    1.9693   -0.8009    0.0000 C   0  0  0  0  0  0  0  0  0  0  0  0
  1  2  1  0  0  0  0
  2  3  1  0  0  0  0
  3  4  1  0  0  0  0
  1  5  2  0  0  0  0
  1  6  1  0  0  0  0
  7  6  1  0  0  0  0
  8  7  2  0  0  0  0
  9  8  1  0  0  0  0
  9 10  1  0  0  0  0
 11  9  2  0  0  0  0
 12 11  1  0  0  0  0
  6 12  2  0  0  0  0
M  END
> <ChemID>
100241

> <CAS>
120-47-8

> <Original_SMILES>
CCOC(=O)c1ccc(O)cc1

> <preferred_name>
Ethylparaben

> <dsstox_substance_id>
DTXSID9022528

> <dsstox_compound_id>
DTXCID002528

> <qc_level>
DSSTox_Low

> <Canonical_QSARr>
CCOC(=O)C1C=CC(O)=CC=1

> <InChI_Code_QSARr>
InChI=1S/C9H10O3/c1-2-12-9(11)7-3-5-8(10)6-4-7/h3-6,10H,2H2,1H3

> <InChI Key_QSARr>
NUVBSKCKDOMJSU-UHFFFAOYSA-N

> <Salt_Solvent>


> <Salt_Solvent_ID>
0

> <MPID>
99518

> <KocRef>
Schuurmann-Main

> <LogKOC>
2.21

> <Tr_1_Tst_0>
1

$$$$
100242
  Mrv171c012251911022D          

  9  9  0  0  0  0            999 V2000
    1.7473   -2.4749    0.0000 Cl  0  0  0  0  0  0  0  0  0  0  0  0
    1.7473   -1.6499    0.0000 C   0  0  0  0  0  0  0  0  0  0  0  0
    2.4618   -1.2374    0.0000 C   0  0  0  0  0  0  0  0  0  0  0  0
    2.4618   -0.4124    0.0000 C   0  0  0  0  0  0  0  0  0  0  0  0
    1.7473    0.0001    0.0000 C   0  0  0  0  0  0  0  0  0  0  0  0
    1.7473    0.8251    0.0000 Cl  0  0  0  0  0  0  0  0  0  0  0  0
    1.0328   -0.4124    0.0000 C   0  0  0  0  0  0  0  0  0  0  0  0
    1.0328   -1.2374    0.0000 C   0  0  0  0  0  0  0  0  0  0  0  0
    0.3184   -1.6499    0.0000 Cl  0  0  0  0  0  0  0  0  0  0  0  0
  1  2  1  0  0  0  0
  3  2  1  0  0  0  0
  4  3  2  0  0  0  0
  5  4  1  0  0  0  0
  5  6  1  0  0  0  0
  7  5  2  0  0  0  0
  8  7  1  0  0  0  0
  2  8  2  0  0  0  0
  8  9  1  0  0  0  0
M  END
> <ChemID>
100242

> <CAS>
120-82-1

> <Original_SMILES>
Clc1cc(Cl)c(Cl)cc1

> <preferred_name>
1,2,4-Trichlorobenzene

> <dsstox_substance_id>
DTXSID0021965

> <dsstox_compound_id>
DTXCID701965

> <qc_level>
DSSTox_High

> <Canonical_QSARr>
ClC1=CC(Cl)=C(Cl)C=C1

> <InChI_Code_QSARr>
InChI=1S/C6H3Cl3/c7-4-1-2-5(8)6(9)3-4/h1-3H

> <InChI Key_QSARr>
PBKONEOXTCPAFI-UHFFFAOYSA-N

> <Salt_Solvent>


> <Salt_Solvent_ID>
0

> <MPID>
99519

> <KocRef>
SRC 1992 Non-Polar

> <LogKOC>
3.1

> <Tr_1_Tst_0>
0

$$$$
100243
  Mrv171c012251911022D          

  9  9  0  0  0  0            999 V2000
    2.5410   -1.6499    0.0000 Cl  0  0  0  0  0  0  0  0  0  0  0  0
    1.8265   -1.2374    0.0000 C   0  0  0  0  0  0  0  0  0  0  0  0
    1.8265   -0.4124    0.0000 C   0  0  0  0  0  0  0  0  0  0  0  0
    1.1121    0.0001    0.0000 C   0  0  0  0  0  0  0  0  0  0  0  0
    1.1121    0.8251    0.0000 Cl  0  0  0  0  0  0  0  0  0  0  0  0
    0.3976   -0.4124    0.0000 C   0  0  0  0  0  0  0  0  0  0  0  0
    0.3976   -1.2374    0.0000 C   0  0  0  0  0  0  0  0  0  0  0  0
    1.1121   -1.6499    0.0000 C   0  0  0  0  0  0  0  0  0  0  0  0
    1.1121   -2.4749    0.0000 O   0  0  0  0  0  0  0  0  0  0  0  0
  1  2  1  0  0  0  0
  3  2  1  0  0  0  0
  4  3  2  0  0  0  0
  4  5  1  0  0  0  0
  6  4  1  0  0  0  0
  7  6  2  0  0  0  0
  8  7  1  0  0  0  0
  2  8  2  0  0  0  0
  8  9  1  0  0  0  0
M  END
> <ChemID>
100243

> <CAS>
120-83-2

> <Original_SMILES>
Oc1ccc(Cl)cc1Cl

> <preferred_name>
2,4-Dichlorophenol

> <dsstox_substance_id>
DTXSID1020439

> <dsstox_compound_id>
DTXCID70439

> <qc_level>
DSSTox_Low

> <Canonical_QSARr>
OC1C=CC(Cl)=CC=1Cl

> <InChI_Code_QSARr>
InChI=1S/C6H4Cl2O/c7-4-1-2-6(9)5(8)3-4/h1-3,9H

> <InChI Key_QSARr>
HFZWRUODUSTPEG-UHFFFAOYSA-N

> <Salt_Solvent>


> <Salt_Solvent_ID>
0

> <MPID>
99520

> <KocRef>
Schuurmann-Main

> <LogKOC>
2.81

> <Tr_1_Tst_0>
1

$$$$
100244
  Mrv171c012251911022D          

  9  9  0  0  0  0            999 V2000
    2.1337    0.7064    0.0000 C   0  0  0  0  0  0  0  0  0  0  0  0
    1.4193    0.2939    0.0000 N   0  0  0  0  0  0  0  0  0  0  0  0
    0.7048    0.7064    0.0000 C   0  0  0  0  0  0  0  0  0  0  0  0
    1.4193   -0.5311    0.0000 C   0  0  0  0  0  0  0  0  0  0  0  0
    0.7048   -0.9436    0.0000 C   0  0  0  0  0  0  0  0  0  0  0  0
    0.7048   -1.7686    0.0000 C   0  0  0  0  0  0  0  0  0  0  0  0
    1.4193   -2.1811    0.0000 C   0  0  0  0  0  0  0  0  0  0  0  0
    2.1337   -1.7686    0.0000 C   0  0  0  0  0  0  0  0  0  0  0  0
    2.1337   -0.9436    0.0000 C   0  0  0  0  0  0  0  0  0  0  0  0
  1  2  1  0  0  0  0
  2  3  1  0  0  0  0
  2  4  1  0  0  0  0
  5  4  1  0  0  0  0
  6  5  2  0  0  0  0
  7  6  1  0  0  0  0
  8  7  2  0  0  0  0
  9  8  1  0  0  0  0
  4  9  2  0  0  0  0
M  END
> <ChemID>
100244

> <CAS>
121-69-7

> <Original_SMILES>
CN(C)c1ccccc1

> <preferred_name>
N,N-Dimethylaniline

> <dsstox_substance_id>
DTXSID2020507

> <dsstox_compound_id>
DTXCID60507

> <qc_level>
DSSTox_Low

> <Canonical_QSARr>
CN(C)C1C=CC=CC=1

> <InChI_Code_QSARr>
InChI=1S/C8H11N/c1-9(2)8-6-4-3-5-7-8/h3-7H,1-2H3

> <InChI Key_QSARr>
JLTDJTHDQAWBAV-UHFFFAOYSA-N

> <Salt_Solvent>


> <Salt_Solvent_ID>
0

> <MPID>
99521

> <KocRef>
SRC 1992 Validation

> <LogKOC>
2.26

> <Tr_1_Tst_0>
1

$$$$
100245
  Mrv171c012251911022D          

 19 18  0  0  0  0            999 V2000
    1.8978   -0.9530    0.0000 O   0  0  0  0  0  0  0  0  0  0  0  0
    1.8978   -1.7780    0.0000 C   0  0  0  0  0  0  0  0  0  0  0  0
    1.1833   -2.1905    0.0000 O   0  0  0  0  0  0  0  0  0  0  0  0
    0.4688   -1.7780    0.0000 C   0  0  0  0  0  0  0  0  0  0  0  0
   -0.2456   -2.1905    0.0000 C   0  0  0  0  0  0  0  0  0  0  0  0
    2.6122   -2.1905    0.0000 C   0  0  0  0  0  0  0  0  0  0  0  0
    3.3267   -1.7780    0.0000 C   0  0  0  0  0  0  0  0  0  0  0  0
    4.0412   -2.1905    0.0000 C   0  0  0  0  0  0  0  0  0  0  0  0
    4.7557   -1.7780    0.0000 O   0  0  0  0  0  0  0  0  0  0  0  0
    5.4701   -2.1905    0.0000 C   0  0  0  0  0  0  0  0  0  0  0  0
    6.1846   -1.7780    0.0000 C   0  0  0  0  0  0  0  0  0  0  0  0
    4.0412   -3.0155    0.0000 O   0  0  0  0  0  0  0  0  0  0  0  0
    2.6122   -3.0155    0.0000 S   0  0  0  0  0  0  0  0  0  0  0  0
    1.8978   -3.4280    0.0000 P   0  0  0  0  0  0  0  0  0  0  0  0
    1.4853   -2.7136    0.0000 O   0  0  0  0  0  0  0  0  0  0  0  0
    0.6603   -2.7136    0.0000 C   0  0  0  0  0  0  0  0  0  0  0  0
    1.1833   -3.8405    0.0000 O   0  0  0  0  0  0  0  0  0  0  0  0
    0.4688   -3.4280    0.0000 C   0  0  0  0  0  0  0  0  0  0  0  0
    2.3103   -4.1425    0.0000 S   0  0  0  0  0  0  0  0  0  0  0  0
  1  2  2  0  0  0  0
  2  3  1  0  0  0  0
  3  4  1  0  0  0  0
  4  5  1  0  0  0  0
  2  6  1  0  0  0  0
  6  7  1  0  0  0  0
  7  8  1  0  0  0  0
  8  9  1  0  0  0  0
  9 10  1  0  0  0  0
 10 11  1  0  0  0  0
  8 12  2  0  0  0  0
  6 13  1  0  0  0  0
 13 14  1  0  0  0  0
 14 15  1  0  0  0  0
 15 16  1  0  0  0  0
 14 17  1  0  0  0  0
 17 18  1  0  0  0  0
 14 19  2  0  0  0  0
M  END
> <ChemID>
100245

> <CAS>
121-75-5

> <Original_SMILES>
CCOC(=O)C(CC(=O)OCC)SP(=S)(OC)OC

> <preferred_name>
Malathion

> <dsstox_substance_id>
DTXSID4020791

> <dsstox_compound_id>
DTXCID80791

> <qc_level>
DSSTox_Low

> <Canonical_QSARr>
CCOC(=O)C(CC(=O)OCC)SP(=S)(OC)OC

> <InChI_Code_QSARr>
InChI=1S/C10H19O6PS2/c1-5-15-9(11)7-8(10(12)16-6-2)19-17(18,13-3)14-4/h8H,5-7H2,1-4H3

> <InChI Key_QSARr>
JXSJBGJIGXNWCI-UHFFFAOYSA-N

> <Salt_Solvent>


> <Salt_Solvent_ID>
0

> <MPID>
99522

> <KocRef>
Schuurmann-Main

> <LogKOC>
2.36

> <Tr_1_Tst_0>
1

$$$$
100246
  Mrv171c012251911022D          

 15 15  0  0  0  0            999 V2000
    3.5704   -3.7072    0.0000 N   0  0  0  0  0  0  0  0  0  0  0  0
    3.5704   -2.8822    0.0000 C   0  0  0  0  0  0  0  0  0  0  0  0
    2.8559   -2.4697    0.0000 C   0  0  0  0  0  0  0  0  0  0  0  0
    2.8559   -1.6447    0.0000 C   0  0  0  0  0  0  0  0  0  0  0  0
    2.1414   -1.2322    0.0000 C   0  0  0  0  0  0  0  0  0  0  0  0
    2.1414   -0.4072    0.0000 N   0  3  0  0  0  0  0  0  0  0  0  0
    1.4270    0.0053    0.0000 O   0  0  0  0  0  0  0  0  0  0  0  0
    2.8559    0.0053    0.0000 O   0  5  0  0  0  0  0  0  0  0  0  0
    1.4270   -1.6447    0.0000 C   0  0  0  0  0  0  0  0  0  0  0  0
    1.4270   -2.4697    0.0000 C   0  0  0  0  0  0  0  0  0  0  0  0
    0.7125   -2.8822    0.0000 N   0  3  0  0  0  0  0  0  0  0  0  0
    0.7125   -3.7072    0.0000 O   0  0  0  0  0  0  0  0  0  0  0  0
   -0.0020   -2.4697    0.0000 O   0  5  0  0  0  0  0  0  0  0  0  0
    2.1414   -2.8822    0.0000 C   0  0  0  0  0  0  0  0  0  0  0  0
    4.2848   -2.4697    0.0000 O   0  0  0  0  0  0  0  0  0  0  0  0
  1  2  1  0  0  0  0
  2  3  1  0  0  0  0
  4  3  1  0  0  0  0
  5  4  2  0  0  0  0
  5  6  1  0  0  0  0
  6  7  2  0  0  0  0
  6  8  1  0  0  0  0
  9  5  1  0  0  0  0
 10  9  2  0  0  0  0
 10 11  1  0  0  0  0
 11 12  2  0  0  0  0
 11 13  1  0  0  0  0
 14 10  1  0  0  0  0
  3 14  2  0  0  0  0
  2 15  2  0  0  0  0
M  CHG  4   6   1   8  -1  11   1  13  -1
M  END
> <ChemID>
100246

> <CAS>
121-81-3

> <Original_SMILES>
NC(=O)c1cc(cc(c1)[N+]([O-])=O)[N+]([O-])=O

> <preferred_name>
Nitromide

> <dsstox_substance_id>
DTXSID0045836

> <dsstox_compound_id>
DTXCID8025836

> <qc_level>
DSSTox_Low

> <Canonical_QSARr>
NC(=O)C1C=C(C=C(C=1)[N+]([O-])=O)[N+]([O-])=O

> <InChI_Code_QSARr>
InChI=1S/C7H5N3O5/c8-7(11)4-1-5(9(12)13)3-6(2-4)10(14)15/h1-3H,(H2,8,11)

> <InChI Key_QSARr>
UUKWKUSGGZNXGA-UHFFFAOYSA-N

> <Salt_Solvent>


> <Salt_Solvent_ID>
0

> <MPID>
99523

> <KocRef>
Schuurmann-Main

> <LogKOC>
2.31

> <Tr_1_Tst_0>
0

$$$$
100247
  Mrv171c012251911022D          

 17 17  0  0  0  0            999 V2000
    2.0185   -2.3363    0.0000 S   0  0  0  0  0  0  0  0  0  0  0  0
    2.4310   -3.0508    0.0000 P   0  0  0  0  0  0  0  0  0  0  0  0
    1.7166   -3.4633    0.0000 O   0  0  0  0  0  0  0  0  0  0  0  0
    1.7166   -4.2883    0.0000 C   0  0  0  0  0  0  0  0  0  0  0  0
    2.8435   -3.7653    0.0000 O   0  0  0  0  0  0  0  0  0  0  0  0
    2.4310   -4.4797    0.0000 C   0  0  0  0  0  0  0  0  0  0  0  0
    3.1455   -2.6383    0.0000 O   0  0  0  0  0  0  0  0  0  0  0  0
    3.1455   -1.8133    0.0000 C   0  0  0  0  0  0  0  0  0  0  0  0
    3.8600   -1.4008    0.0000 C   0  0  0  0  0  0  0  0  0  0  0  0
    3.8600   -0.5758    0.0000 C   0  0  0  0  0  0  0  0  0  0  0  0
    3.1455   -0.1633    0.0000 C   0  0  0  0  0  0  0  0  0  0  0  0
    3.1455    0.6617    0.0000 N   0  3  0  0  0  0  0  0  0  0  0  0
    2.4310    1.0742    0.0000 O   0  5  0  0  0  0  0  0  0  0  0  0
    3.8600    1.0742    0.0000 O   0  0  0  0  0  0  0  0  0  0  0  0
    2.4310   -0.5758    0.0000 C   0  0  0  0  0  0  0  0  0  0  0  0
    1.7166   -0.1633    0.0000 C   0  0  0  0  0  0  0  0  0  0  0  0
    2.4310   -1.4008    0.0000 C   0  0  0  0  0  0  0  0  0  0  0  0
  1  2  2  0  0  0  0
  2  3  1  0  0  0  0
  3  4  1  0  0  0  0
  2  5  1  0  0  0  0
  5  6  1  0  0  0  0
  2  7  1  0  0  0  0
  7  8  1  0  0  0  0
  9  8  2  0  0  0  0
 10  9  1  0  0  0  0
 11 10  2  0  0  0  0
 11 12  1  0  0  0  0
 12 13  1  0  0  0  0
 12 14  2  0  0  0  0
 15 11  1  0  0  0  0
 15 16  1  0  0  0  0
 17 15  2  0  0  0  0
  8 17  1  0  0  0  0
M  CHG  2  12   1  13  -1
M  END
> <ChemID>
100247

> <CAS>
122-14-5

> <Original_SMILES>
Cc1cc(ccc1[N+]([O-])=O)OP(=S)(OC)OC

> <preferred_name>
Fenitrothion

> <dsstox_substance_id>
DTXSID4032613

> <dsstox_compound_id>
DTXCID2012613

> <qc_level>
DSSTox_Low

> <Canonical_QSARr>
CC1=CC(=CC=C1[N+]([O-])=O)OP(=S)(OC)OC

> <InChI_Code_QSARr>
InChI=1S/C9H12NO5PS/c1-7-6-8(4-5-9(7)10(11)12)15-16(17,13-2)14-3/h4-6H,1-3H3

> <InChI Key_QSARr>
ZNOLGFHPUIJIMJ-UHFFFAOYSA-N

> <Salt_Solvent>


> <Salt_Solvent_ID>
0

> <MPID>
99524

> <KocRef>
Schuurmann-Main

> <LogKOC>
2.63

> <Tr_1_Tst_0>
1

$$$$
100248
  Mrv171c012251911022D          

 13 13  0  0  0  0            999 V2000
    1.0442    0.4760    0.0000 C   0  0  0  0  0  0  0  0  0  0  0  0
    0.3297    0.0635    0.0000 N   0  0  0  0  0  0  0  0  0  0  0  0
    0.3297   -0.7615    0.0000 C   0  0  0  0  0  0  0  0  0  0  0  0
   -0.3847   -1.1740    0.0000 O   0  0  0  0  0  0  0  0  0  0  0  0
    1.0442   -1.1740    0.0000 C   0  0  0  0  0  0  0  0  0  0  0  0
    1.7587    0.0635    0.0000 C   0  0  0  0  0  0  0  0  0  0  0  0
    2.4732    0.4760    0.0000 C   0  0  0  0  0  0  0  0  0  0  0  0
    2.4732    1.3010    0.0000 C   0  0  0  0  0  0  0  0  0  0  0  0
    1.7587    1.7135    0.0000 C   0  0  0  0  0  0  0  0  0  0  0  0
    1.7587    2.5385    0.0000 N   0  3  0  0  0  0  0  0  0  0  0  0
    1.0442    2.9510    0.0000 O   0  5  0  0  0  0  0  0  0  0  0  0
    2.4732    2.9510    0.0000 O   0  0  0  0  0  0  0  0  0  0  0  0
    1.0442    1.3010    0.0000 C   0  0  0  0  0  0  0  0  0  0  0  0
  1  2  1  0  0  0  0
  2  3  1  0  0  0  0
  3  4  2  0  0  0  0
  3  5  1  0  0  0  0
  6  1  1  0  0  0  0
  7  6  2  0  0  0  0
  8  7  1  0  0  0  0
  9  8  2  0  0  0  0
  9 10  1  0  0  0  0
 10 11  1  0  0  0  0
 10 12  2  0  0  0  0
 13  9  1  0  0  0  0
  1 13  2  0  0  0  0
M  CHG  2  10   1  11  -1
M  END
> <ChemID>
100248

> <CAS>
122-28-1

> <Original_SMILES>
CC(=O)Nc1cc(ccc1)[N+]([O-])=O

> <preferred_name>
Acetamide, N-(3-nitrophenyl)-

> <dsstox_substance_id>
DTXSID5059539

> <dsstox_compound_id>
DTXCID8033726

> <qc_level>
Public_High

> <Canonical_QSARr>
CC(=O)NC1=CC(=CC=C1)[N+]([O-])=O

> <InChI_Code_QSARr>
InChI=1S/C8H8N2O3/c1-6(11)9-7-3-2-4-8(5-7)10(12)13/h2-5H,1H3,(H,9,11)

> <InChI Key_QSARr>
KFTYNYHJHKCRKU-UHFFFAOYSA-N

> <Salt_Solvent>


> <Salt_Solvent_ID>
0

> <MPID>
99525

> <KocRef>
Schuurmann-Main

> <LogKOC>
1.94

> <Tr_1_Tst_0>
1

$$$$
100249
  Mrv171c012251911022D          

 13 13  0  0  0  0            999 V2000
    3.8567   -2.9222    0.0000 Cl  0  0  0  0  0  0  0  0  0  0  0  0
    3.1422   -2.5097    0.0000 C   0  0  0  0  0  0  0  0  0  0  0  0
    3.1422   -1.6847    0.0000 N   0  0  0  0  0  0  0  0  0  0  0  0
    2.4277   -1.2722    0.0000 C   0  0  0  0  0  0  0  0  0  0  0  0
    2.4277   -0.4472    0.0000 N   0  0  0  0  0  0  0  0  0  0  0  0
    3.1422   -0.0347    0.0000 C   0  0  0  0  0  0  0  0  0  0  0  0
    3.1422    0.7903    0.0000 C   0  0  0  0  0  0  0  0  0  0  0  0
    1.7133   -1.6847    0.0000 N   0  0  0  0  0  0  0  0  0  0  0  0
    1.7133   -2.5097    0.0000 C   0  0  0  0  0  0  0  0  0  0  0  0
    0.9988   -2.9222    0.0000 N   0  0  0  0  0  0  0  0  0  0  0  0
    0.2843   -2.5097    0.0000 C   0  0  0  0  0  0  0  0  0  0  0  0
   -0.4301   -2.9222    0.0000 C   0  0  0  0  0  0  0  0  0  0  0  0
    2.4277   -2.9222    0.0000 N   0  0  0  0  0  0  0  0  0  0  0  0
  1  2  1  0  0  0  0
  3  2  1  0  0  0  0
  4  3  2  0  0  0  0
  4  5  1  0  0  0  0
  5  6  1  0  0  0  0
  6  7  1  0  0  0  0
  8  4  1  0  0  0  0
  9  8  2  0  0  0  0
  9 10  1  0  0  0  0
 10 11  1  0  0  0  0
 11 12  1  0  0  0  0
 13  9  1  0  0  0  0
  2 13  2  0  0  0  0
M  END
> <ChemID>
100249

> <CAS>
122-34-9

> <Original_SMILES>
CCNc1[n]c(Cl)[n]c(NCC)[n]1

> <preferred_name>
Simazine

> <dsstox_substance_id>
DTXSID4021268

> <dsstox_compound_id>
DTXCID501268

> <qc_level>
DSSTox_Low

> <Canonical_QSARr>
CCNC1=NC(Cl)=NC(NCC)=N1

> <InChI_Code_QSARr>
InChI=1S/C7H12ClN5/c1-3-9-6-11-5(8)12-7(13-6)10-4-2/h3-4H2,1-2H3,(H2,9,10,11,12,13)

> <InChI Key_QSARr>
ODCWYMIRDDJXKW-UHFFFAOYSA-N

> <Salt_Solvent>


> <Salt_Solvent_ID>
0

> <MPID>
99526

> <KocRef>
Schuurmann-Main

> <LogKOC>
2.1

> <Tr_1_Tst_0>
1

$$$$
100250
  Mrv171c012251911022D          

 13 14  0  0  0  0            999 V2000
    3.5155   -1.7446    0.0000 C   0  0  0  0  0  0  0  0  0  0  0  0
    2.8010   -1.3321    0.0000 C   0  0  0  0  0  0  0  0  0  0  0  0
    2.8010   -0.5071    0.0000 N   0  0  0  0  0  0  0  0  0  0  0  0
    2.0865   -0.0946    0.0000 C   0  0  0  0  0  0  0  0  0  0  0  0
    2.0865    0.7304    0.0000 C   0  0  0  0  0  0  0  0  0  0  0  0
    1.3721    1.1429    0.0000 C   0  0  0  0  0  0  0  0  0  0  0  0
    0.6576    0.7304    0.0000 C   0  0  0  0  0  0  0  0  0  0  0  0
    0.6576   -0.0946    0.0000 C   0  0  0  0  0  0  0  0  0  0  0  0
    1.3721   -0.5071    0.0000 C   0  0  0  0  0  0  0  0  0  0  0  0
    2.0865   -1.7446    0.0000 C   0  0  0  0  0  0  0  0  0  0  0  0
    2.0865   -2.5696    0.0000 C   0  0  0  0  0  0  0  0  0  0  0  0
    2.8010   -2.9821    0.0000 C   0  0  0  0  0  0  0  0  0  0  0  0
    3.5155   -2.5696    0.0000 C   0  0  0  0  0  0  0  0  0  0  0  0
  2  1  1  0  0  0  0
  2  3  1  0  0  0  0
  3  4  1  0  0  0  0
  5  4  1  0  0  0  0
  6  5  2  0  0  0  0
  7  6  1  0  0  0  0
  8  7  2  0  0  0  0
  9  8  1  0  0  0  0
  4  9  2  0  0  0  0
 10  2  2  0  0  0  0
 11 10  1  0  0  0  0
 12 11  2  0  0  0  0
 13 12  1  0  0  0  0
  1 13  2  0  0  0  0
M  END
> <ChemID>
100250

> <CAS>
122-39-4

> <Original_SMILES>
c1ccccc1Nc1ccccc1

> <preferred_name>
Diphenylamine

> <dsstox_substance_id>
DTXSID4021975

> <dsstox_compound_id>
DTXCID001975

> <qc_level>
DSSTox_Low

> <Canonical_QSARr>
C1=CC=CC=C1NC1C=CC=CC=1

> <InChI_Code_QSARr>
InChI=1S/C12H11N/c1-3-7-11(8-4-1)13-12-9-5-2-6-10-12/h1-10,13H

> <InChI Key_QSARr>
DMBHHRLKUKUOEG-UHFFFAOYSA-N

> <Salt_Solvent>


> <Salt_Solvent_ID>
0

> <MPID>
99527

> <KocRef>
Schuurmann-Main

> <LogKOC>
2.78

> <Tr_1_Tst_0>
0

$$$$
100251
  Mrv171c012251911022D          

 13 13  0  0  0  0            999 V2000
    2.1428   -0.4140    0.0000 O   0  0  0  0  0  0  0  0  0  0  0  0
    2.1428   -1.2390    0.0000 C   0  0  0  0  0  0  0  0  0  0  0  0
    1.4283   -1.6515    0.0000 O   0  0  0  0  0  0  0  0  0  0  0  0
    0.7138   -1.2390    0.0000 C   0  0  0  0  0  0  0  0  0  0  0  0
   -0.0006   -1.6515    0.0000 C   0  0  0  0  0  0  0  0  0  0  0  0
    0.7138   -0.4140    0.0000 C   0  0  0  0  0  0  0  0  0  0  0  0
    2.8572   -1.6515    0.0000 N   0  0  0  0  0  0  0  0  0  0  0  0
    3.5717   -1.2390    0.0000 C   0  0  0  0  0  0  0  0  0  0  0  0
    4.2862   -1.6515    0.0000 C   0  0  0  0  0  0  0  0  0  0  0  0
    5.0007   -1.2390    0.0000 C   0  0  0  0  0  0  0  0  0  0  0  0
    5.0007   -0.4140    0.0000 C   0  0  0  0  0  0  0  0  0  0  0  0
    4.2862   -0.0015    0.0000 C   0  0  0  0  0  0  0  0  0  0  0  0
    3.5717   -0.4140    0.0000 C   0  0  0  0  0  0  0  0  0  0  0  0
  1  2  2  0  0  0  0
  2  3  1  0  0  0  0
  3  4  1  0  0  0  0
  4  5  1  0  0  0  0
  4  6  1  0  0  0  0
  2  7  1  0  0  0  0
  7  8  1  0  0  0  0
  9  8  1  0  0  0  0
 10  9  2  0  0  0  0
 11 10  1  0  0  0  0
 12 11  2  0  0  0  0
 13 12  1  0  0  0  0
  8 13  2  0  0  0  0
M  END
> <ChemID>
100251

> <CAS>
122-42-9

> <Original_SMILES>
CC(C)OC(=O)Nc1ccccc1

> <preferred_name>
Propham

> <dsstox_substance_id>
DTXSID7020766

> <dsstox_compound_id>
DTXCID70766

> <qc_level>
DSSTox_Low

> <Canonical_QSARr>
CC(C)OC(=O)NC1C=CC=CC=1

> <InChI_Code_QSARr>
InChI=1S/C10H13NO2/c1-8(2)13-10(12)11-9-6-4-3-5-7-9/h3-8H,1-2H3,(H,11,12)

> <InChI Key_QSARr>
VXPLXMJHHKHSOA-UHFFFAOYSA-N

> <Salt_Solvent>


> <Salt_Solvent_ID>
0

> <MPID>
99528

> <KocRef>
Schuurmann-Main

> <LogKOC>
1.83

> <Tr_1_Tst_0>
1

$$$$
100252
  Mrv171c012251911022D          

 14 15  0  0  0  0            999 V2000
    3.0359   -0.8671    0.0000 N   0  0  0  0  0  0  0  0  0  0  0  0
    2.3214   -1.2796    0.0000 N   0  0  0  0  0  0  0  0  0  0  0  0
    2.3214   -2.1046    0.0000 C   0  0  0  0  0  0  0  0  0  0  0  0
    1.6070   -2.5171    0.0000 C   0  0  0  0  0  0  0  0  0  0  0  0
    1.6070   -3.3421    0.0000 C   0  0  0  0  0  0  0  0  0  0  0  0
    2.3214   -3.7546    0.0000 C   0  0  0  0  0  0  0  0  0  0  0  0
    3.0359   -3.3421    0.0000 C   0  0  0  0  0  0  0  0  0  0  0  0
    3.0359   -2.5171    0.0000 C   0  0  0  0  0  0  0  0  0  0  0  0
    3.0359   -0.0421    0.0000 C   0  0  0  0  0  0  0  0  0  0  0  0
    3.7504    0.3704    0.0000 C   0  0  0  0  0  0  0  0  0  0  0  0
    3.7504    1.1954    0.0000 C   0  0  0  0  0  0  0  0  0  0  0  0
    3.0359    1.6079    0.0000 C   0  0  0  0  0  0  0  0  0  0  0  0
    2.3214    1.1954    0.0000 C   0  0  0  0  0  0  0  0  0  0  0  0
    2.3214    0.3704    0.0000 C   0  0  0  0  0  0  0  0  0  0  0  0
  1  2  1  0  0  0  0
  2  3  1  0  0  0  0
  4  3  1  0  0  0  0
  5  4  2  0  0  0  0
  6  5  1  0  0  0  0
  7  6  2  0  0  0  0
  8  7  1  0  0  0  0
  3  8  2  0  0  0  0
  1  9  1  0  0  0  0
 10  9  1  0  0  0  0
 11 10  2  0  0  0  0
 12 11  1  0  0  0  0
 13 12  2  0  0  0  0
 14 13  1  0  0  0  0
  9 14  2  0  0  0  0
M  END
> <ChemID>
100252

> <CAS>
122-66-7

> <Original_SMILES>
c1ccccc1NNc1ccccc1

> <preferred_name>
1,2-Diphenylhydrazine

> <dsstox_substance_id>
DTXSID7020710

> <dsstox_compound_id>
DTXCID90710

> <qc_level>
DSSTox_Low

> <Canonical_QSARr>
C1=CC=CC=C1NNC1C=CC=CC=1

> <InChI_Code_QSARr>
InChI=1S/C12H12N2/c1-3-7-11(8-4-1)13-14-12-9-5-2-6-10-12/h1-10,13-14H

> <InChI Key_QSARr>
YBQZXXMEJHZYMB-UHFFFAOYSA-N

> <Salt_Solvent>


> <Salt_Solvent_ID>
0

> <MPID>
99529

> <KocRef>
Schuurmann-Main

> <LogKOC>
2.98

> <Tr_1_Tst_0>
1

$$$$
100253
  Mrv171c012251911022D          

  8  8  0  0  0  0            999 V2000
    1.6499   -2.3652    0.0000 O   0  0  0  0  0  0  0  0  0  0  0  0
    1.6499   -1.5402    0.0000 C   0  0  0  0  0  0  0  0  0  0  0  0
    2.3644   -1.1277    0.0000 N   0  0  0  0  0  0  0  0  0  0  0  0
    2.3644   -0.3027    0.0000 N   0  0  0  0  0  0  0  0  0  0  0  0
    1.6499    0.1098    0.0000 C   0  0  0  0  0  0  0  0  0  0  0  0
    1.6499    0.9348    0.0000 O   0  0  0  0  0  0  0  0  0  0  0  0
    0.9354   -0.3027    0.0000 C   0  0  0  0  0  0  0  0  0  0  0  0
    0.9354   -1.1277    0.0000 C   0  0  0  0  0  0  0  0  0  0  0  0
  1  2  2  0  0  0  0
  3  2  1  0  0  0  0
  4  3  1  0  0  0  0
  5  4  1  0  0  0  0
  5  6  2  0  0  0  0
  7  5  1  0  0  0  0
  8  7  2  0  0  0  0
  2  8  1  0  0  0  0
M  END
> <ChemID>
100253

> <CAS>
123-33-1

> <Original_SMILES>
O=C1C=CC(=O)NN1

> <preferred_name>
Maleic hydrazide

> <dsstox_substance_id>
DTXSID9020792

> <dsstox_compound_id>
DTXCID10792

> <qc_level>
DSSTox_Low

> <Canonical_QSARr>
O=C1C=CC(=O)NN1

> <InChI_Code_QSARr>
InChI=1S/C4H4N2O2/c7-3-1-2-4(8)6-5-3/h1-2H,(H,5,7)(H,6,8)

> <InChI Key_QSARr>
BGRDGMRNKXEXQD-UHFFFAOYSA-N

> <Salt_Solvent>


> <Salt_Solvent_ID>
0

> <MPID>
99530

> <KocRef>
Schuurmann-Main

> <LogKOC>
0.45

> <Tr_1_Tst_0>
1

$$$$
100254
  Mrv171c012251911022D          

 10  9  0  0  0  0            999 V2000
   -0.5422   -0.5689    0.0000 C   0  0  0  0  0  0  0  0  0  0  0  0
    0.1723   -0.9814    0.0000 C   0  0  0  0  0  0  0  0  0  0  0  0
    0.8868   -0.5689    0.0000 C   0  0  0  0  0  0  0  0  0  0  0  0
    1.6012   -0.9814    0.0000 C   0  0  0  0  0  0  0  0  0  0  0  0
    2.3157   -0.5689    0.0000 C   0  0  0  0  0  0  0  0  0  0  0  0
    3.0302   -0.9814    0.0000 C   0  0  0  0  0  0  0  0  0  0  0  0
    3.7447   -0.5689    0.0000 O   0  0  0  0  0  0  0  0  0  0  0  0
    4.4591   -0.9814    0.0000 C   0  0  0  0  0  0  0  0  0  0  0  0
    5.1736   -0.5689    0.0000 C   0  0  0  0  0  0  0  0  0  0  0  0
    3.0302   -1.8064    0.0000 O   0  0  0  0  0  0  0  0  0  0  0  0
  1  2  1  0  0  0  0
  2  3  1  0  0  0  0
  3  4  1  0  0  0  0
  4  5  1  0  0  0  0
  5  6  1  0  0  0  0
  6  7  1  0  0  0  0
  7  8  1  0  0  0  0
  8  9  1  0  0  0  0
  6 10  2  0  0  0  0
M  END
> <ChemID>
100254

> <CAS>
123-66-0

> <Original_SMILES>
CCCCCC(=O)OCC

> <preferred_name>
Ethyl hexanoate

> <dsstox_substance_id>
DTXSID3021980

> <dsstox_compound_id>
DTXCID301980

> <qc_level>
DSSTox_Low

> <Canonical_QSARr>
CCCCCC(=O)OCC

> <InChI_Code_QSARr>
InChI=1S/C8H16O2/c1-3-5-6-7-8(9)10-4-2/h3-7H2,1-2H3

> <InChI Key_QSARr>
SHZIWNPUGXLXDT-UHFFFAOYSA-N

> <Salt_Solvent>


> <Salt_Solvent_ID>
0

> <MPID>
99531

> <KocRef>
Schuurmann-Main

> <LogKOC>
2.06

> <Tr_1_Tst_0>
0

$$$$
100255
  Mrv171c012251911022D          

  6  6  0  0  0  0            999 V2000
    1.4289   -0.4125    0.0000 C   0  0  0  0  0  0  0  0  0  0  0  0
    0.7145    0.0000    0.0000 O   0  0  0  0  0  0  0  0  0  0  0  0
    0.0000   -0.4125    0.0000 C   0  0  0  0  0  0  0  0  0  0  0  0
    0.0000   -1.2375    0.0000 C   0  0  0  0  0  0  0  0  0  0  0  0
    0.7145   -1.6500    0.0000 O   0  0  0  0  0  0  0  0  0  0  0  0
    1.4289   -1.2375    0.0000 C   0  0  0  0  0  0  0  0  0  0  0  0
  2  1  1  0  0  0  0
  3  2  1  0  0  0  0
  4  3  1  0  0  0  0
  5  4  1  0  0  0  0
  6  5  1  0  0  0  0
  1  6  1  0  0  0  0
M  END
> <ChemID>
100255

> <CAS>
123-91-1

> <Original_SMILES>
C1COCCO1

> <preferred_name>
1,4-Dioxane

> <dsstox_substance_id>
DTXSID4020533

> <dsstox_compound_id>
DTXCID00533

> <qc_level>
DSSTox_Low

> <Canonical_QSARr>
C1COCCO1

> <InChI_Code_QSARr>
InChI=1S/C4H8O2/c1-2-6-4-3-5-1/h1-4H2

> <InChI Key_QSARr>
RYHBNJHYFVUHQT-UHFFFAOYSA-N

> <Salt_Solvent>


> <Salt_Solvent_ID>
0

> <MPID>
99532

> <KocRef>
Schuurmann-Main

> <LogKOC>
1.23

> <Tr_1_Tst_0>
1

$$$$
100256
  Mrv171c012251911022D          

  4  3  0  0  0  0            999 V2000
    1.2371    0.0002    0.0000 Cl  0  0  0  0  0  0  0  0  0  0  0  0
    0.8246   -0.7143    0.0000 C   0  0  0  0  0  0  0  0  0  0  0  0
    1.2371   -1.4287    0.0000 Br  0  0  0  0  0  0  0  0  0  0  0  0
   -0.0004   -0.7143    0.0000 Br  0  0  0  0  0  0  0  0  0  0  0  0
  1  2  1  0  0  0  0
  2  3  1  0  0  0  0
  2  4  1  0  0  0  0
M  END
> <ChemID>
100256

> <CAS>
124-48-1

> <Original_SMILES>
ClC(Br)Br

> <preferred_name>
Chlorodibromomethane

> <dsstox_substance_id>
DTXSID1020300

> <dsstox_compound_id>
DTXCID30300

> <qc_level>
DSSTox_Low

> <Canonical_QSARr>
ClC(Br)Br

> <InChI_Code_QSARr>
InChI=1S/CHBr2Cl/c2-1(3)4/h1H

> <InChI Key_QSARr>
GATVIKZLVQHOMN-UHFFFAOYSA-N

> <Salt_Solvent>


> <Salt_Solvent_ID>
0

> <MPID>
99533

> <KocRef>
Sabljic-Ext

> <LogKOC>
1.92

> <Tr_1_Tst_0>
1

$$$$
100257
  Mrv171c012251911022D          

 14 13  0  0  0  0            999 V2000
    3.1758   -1.7399    0.0000 P   0  0  0  0  0  0  0  0  0  0  0  0
    3.5883   -2.4544    0.0000 O   0  0  0  0  0  0  0  0  0  0  0  0
    4.4133   -2.4544    0.0000 C   0  0  0  0  0  0  0  0  0  0  0  0
    4.8258   -3.1688    0.0000 C   0  0  0  0  0  0  0  0  0  0  0  0
    3.8903   -1.3274    0.0000 O   0  0  0  0  0  0  0  0  0  0  0  0
    3.8903   -0.5024    0.0000 C   0  0  0  0  0  0  0  0  0  0  0  0
    4.6048   -0.0899    0.0000 C   0  0  0  0  0  0  0  0  0  0  0  0
    2.4614   -2.1524    0.0000 O   0  0  0  0  0  0  0  0  0  0  0  0
    2.7633   -1.0254    0.0000 S   0  0  0  0  0  0  0  0  0  0  0  0
    1.9383   -1.0254    0.0000 C   0  0  0  0  0  0  0  0  0  0  0  0
    1.5258   -0.3110    0.0000 C   0  0  0  0  0  0  0  0  0  0  0  0
    0.7008   -0.3110    0.0000 S   0  0  0  0  0  0  0  0  0  0  0  0
    0.2883    0.4035    0.0000 C   0  0  0  0  0  0  0  0  0  0  0  0
   -0.5367    0.4035    0.0000 C   0  0  0  0  0  0  0  0  0  0  0  0
  1  2  1  0  0  0  0
  2  3  1  0  0  0  0
  3  4  1  0  0  0  0
  1  5  1  0  0  0  0
  5  6  1  0  0  0  0
  6  7  1  0  0  0  0
  1  8  2  0  0  0  0
  1  9  1  0  0  0  0
  9 10  1  0  0  0  0
 10 11  1  0  0  0  0
 11 12  1  0  0  0  0
 12 13  1  0  0  0  0
 13 14  1  0  0  0  0
M  END
> <ChemID>
100257

> <CAS>
126-75-0

> <Original_SMILES>
CCSCCSP(=O)(OCC)OCC

> <preferred_name>
Demeton-S

> <dsstox_substance_id>
DTXSID9037535

> <dsstox_compound_id>
DTXCID202306

> <qc_level>
DSSTox_Low

> <Canonical_QSARr>
CCSCCSP(=O)(OCC)OCC

> <InChI_Code_QSARr>
InChI=1S/C8H19O3PS2/c1-4-10-12(9,11-5-2)14-8-7-13-6-3/h4-8H2,1-3H3

> <InChI Key_QSARr>
GRPRVIYRYGLIJU-UHFFFAOYSA-N

> <Salt_Solvent>


> <Salt_Solvent_ID>
0

> <MPID>
99534

> <KocRef>
USDA Pest Prop DB

> <LogKOC>
1.85

> <Tr_1_Tst_0>
1

$$$$
100258
  Mrv171c012251911022D          

  6  5  0  0  0  0            999 V2000
    1.8554   -1.7855    0.0000 Cl  0  0  0  0  0  0  0  0  0  0  0  0
    1.4429   -1.0710    0.0000 C   0  0  0  0  0  0  0  0  0  0  0  0
    1.8554   -0.3566    0.0000 Cl  0  0  0  0  0  0  0  0  0  0  0  0
    0.6179   -1.0710    0.0000 C   0  0  0  0  0  0  0  0  0  0  0  0
    0.2054   -1.7855    0.0000 Cl  0  0  0  0  0  0  0  0  0  0  0  0
    0.2054   -0.3566    0.0000 Cl  0  0  0  0  0  0  0  0  0  0  0  0
  1  2  1  0  0  0  0
  2  3  1  0  0  0  0
  2  4  2  0  0  0  0
  4  5  1  0  0  0  0
  4  6  1  0  0  0  0
M  END
> <ChemID>
100258

> <CAS>
127-18-4

> <Original_SMILES>
ClC(Cl)=C(Cl)Cl

> <preferred_name>
Tetrachloroethylene

> <dsstox_substance_id>
DTXSID2021319

> <dsstox_compound_id>
DTXCID601319

> <qc_level>
DSSTox_Low

> <Canonical_QSARr>
ClC(Cl)=C(Cl)Cl

> <InChI_Code_QSARr>
InChI=1S/C2Cl4/c3-1(4)2(5)6

> <InChI Key_QSARr>
CYTYCFOTNPOANT-UHFFFAOYSA-N

> <Salt_Solvent>


> <Salt_Solvent_ID>
0

> <MPID>
99535

> <KocRef>
SRC 1992 Non-Polar

> <LogKOC>
2.4

> <Tr_1_Tst_0>
0

$$$$
100259
  Mrv171c012251911022D          

  7  6  0  0  0  0            999 V2000
    0.4125    1.1227    0.0000 O   0  0  0  0  0  0  0  0  0  0  0  0
   -0.0000    0.4083    0.0000 C   0  0  0  0  0  0  0  0  0  0  0  0
    0.4125   -0.3062    0.0000 C   0  0  0  0  0  0  0  0  0  0  0  0
    0.8250   -1.0207    0.0000 Cl  0  0  0  0  0  0  0  0  0  0  0  0
   -0.3020   -0.7187    0.0000 Cl  0  0  0  0  0  0  0  0  0  0  0  0
    1.1270    0.1063    0.0000 C   0  0  0  0  0  0  0  0  0  0  0  0
   -0.8250    0.4083    0.0000 O   0  0  0  0  0  0  0  0  0  0  0  0
  1  2  1  0  0  0  0
  2  3  1  0  0  0  0
  3  4  1  0  0  0  0
  3  5  1  0  0  0  0
  3  6  1  0  0  0  0
  2  7  2  0  0  0  0
M  END
> <ChemID>
100259

> <CAS>
127-20-8

> <Original_SMILES>
[Na+].CC(Cl)(Cl)C([O-])=O

> <preferred_name>
Dalapon-sodium

> <dsstox_substance_id>
DTXSID5024001

> <dsstox_compound_id>
DTXCID804001

> <qc_level>
DSSTox_Low

> <Canonical_QSARr>
CC(Cl)(Cl)C(O)=O

> <InChI_Code_QSARr>
InChI=1S/C3H4Cl2O2/c1-3(4,5)2(6)7/h1H3,(H,6,7)

> <InChI Key_QSARr>
NDUPDOJHUQKPAG-UHFFFAOYSA-N

> <Salt_Solvent>
[Na+]

> <Salt_Solvent_ID>
110

> <MPID>
99536

> <KocRef>
USDA Pest Prop DB

> <LogKOC>
0.0

> <Tr_1_Tst_0>
1

$$$$
100260
  Mrv171c012251911022D          

 26 31  0  0  0  0            999 V2000
    6.4706   -2.0001    0.0000 C   0  0  0  0  0  0  0  0  0  0  0  0
    5.6780   -2.2289    0.0000 C   0  0  0  0  0  0  0  0  0  0  0  0
    5.0835   -1.6569    0.0000 C   0  0  0  0  0  0  0  0  0  0  0  0
    4.2909   -1.8857    0.0000 C   0  0  0  0  0  0  0  0  0  0  0  0
    3.6964   -1.3137    0.0000 C   0  0  0  0  0  0  0  0  0  0  0  0
    2.9038   -1.5425    0.0000 C   0  0  0  0  0  0  0  0  0  0  0  0
    2.3093   -0.9704    0.0000 C   0  0  0  0  0  0  0  0  0  0  0  0
    1.5167   -1.1993    0.0000 C   0  0  0  0  0  0  0  0  0  0  0  0
    0.9222   -0.6272    0.0000 C   0  0  0  0  0  0  0  0  0  0  0  0
    0.1296   -0.8560    0.0000 C   0  0  0  0  0  0  0  0  0  0  0  0
   -0.0686   -1.6569    0.0000 C   0  0  0  0  0  0  0  0  0  0  0  0
    0.5259   -2.2289    0.0000 C   0  0  0  0  0  0  0  0  0  0  0  0
    1.3185   -2.0001    0.0000 C   0  0  0  0  0  0  0  0  0  0  0  0
    1.9130   -2.5721    0.0000 C   0  0  0  0  0  0  0  0  0  0  0  0
    1.7148   -3.3730    0.0000 O   0  0  0  0  0  0  0  0  0  0  0  0
    2.7056   -2.3433    0.0000 C   0  0  0  0  0  0  0  0  0  0  0  0
    3.3001   -2.9154    0.0000 C   0  0  0  0  0  0  0  0  0  0  0  0
    4.0927   -2.6865    0.0000 C   0  0  0  0  0  0  0  0  0  0  0  0
    2.5075   -0.1696    0.0000 C   0  0  0  0  0  0  0  0  0  0  0  0
    3.3001    0.0592    0.0000 C   0  0  0  0  0  0  0  0  0  0  0  0
    3.8946   -0.5128    0.0000 C   0  0  0  0  0  0  0  0  0  0  0  0
    4.6872   -0.2840    0.0000 C   0  0  0  0  0  0  0  0  0  0  0  0
    4.8854    0.5169    0.0000 O   0  0  0  0  0  0  0  0  0  0  0  0
    5.2817   -0.8560    0.0000 C   0  0  0  0  0  0  0  0  0  0  0  0
    6.0743   -0.6272    0.0000 C   0  0  0  0  0  0  0  0  0  0  0  0
    6.6688   -1.1993    0.0000 C   0  0  0  0  0  0  0  0  0  0  0  0
  2  1  1  0  0  0  0
  3  2  2  0  0  0  0
  3  4  1  0  0  0  0
  5  4  1  0  0  0  0
  5  6  2  0  0  0  0
  6  7  1  0  0  0  0
  7  8  1  0  0  0  0
  9  8  2  0  0  0  0
 10  9  1  0  0  0  0
 11 10  2  0  0  0  0
 12 11  1  0  0  0  0
 13 12  2  0  0  0  0
  8 13  1  0  0  0  0
 13 14  1  0  0  0  0
 14 15  2  0  0  0  0
 14 16  1  0  0  0  0
 16  6  1  0  0  0  0
 17 16  2  0  0  0  0
 18 17  1  0  0  0  0
  4 18  2  0  0  0  0
  7 19  2  0  0  0  0
 19 20  1  0  0  0  0
 20 21  2  0  0  0  0
 21  5  1  0  0  0  0
 21 22  1  0  0  0  0
 22 23  2  0  0  0  0
 22 24  1  0  0  0  0
 24  3  1  0  0  0  0
 25 24  2  0  0  0  0
 26 25  1  0  0  0  0
  1 26  2  0  0  0  0
M  END
> <ChemID>
100260

> <CAS>
128-66-5

> <Original_SMILES>
O=C1c2ccccc2-c2ccc3c4c2c1ccc4-c1ccccc1C3=O

> <preferred_name>
C.I. Vat Yellow 4

> <dsstox_substance_id>
DTXSID6021454

> <dsstox_compound_id>
DTXCID001454

> <qc_level>
DSSTox_Low

> <Canonical_QSARr>
O=C1C2=CC=CC=C2C2=CC=C3C4=C2C1=CC=C4C1=CC=CC=C1C3=O

> <InChI_Code_QSARr>
InChI=1S/C24H12O2/c25-23-17-7-3-1-5-13(17)15-9-11-20-22-16(10-12-19(23)21(15)22)14-6-2-4-8-18(14)24(20)26/h1-12H

> <InChI Key_QSARr>
ZTWQZJLUUZHJGS-UHFFFAOYSA-N

> <Salt_Solvent>


> <Salt_Solvent_ID>
0

> <MPID>
99537

> <KocRef>
Schuurmann-Main

> <LogKOC>
4.28

> <Tr_1_Tst_0>
1

$$$$
100261
  Mrv171c012251911022D          

 16 19  0  0  0  0            999 V2000
    2.2044   -1.4429    0.0000 C   0  0  0  0  0  0  0  0  0  0  0  0
    2.6169   -0.7285    0.0000 C   0  0  0  0  0  0  0  0  0  0  0  0
    2.2044   -0.0140    0.0000 C   0  0  0  0  0  0  0  0  0  0  0  0
    1.3794   -0.0140    0.0000 C   0  0  0  0  0  0  0  0  0  0  0  0
    0.9669   -0.7285    0.0000 C   0  0  0  0  0  0  0  0  0  0  0  0
    0.1419   -0.7285    0.0000 C   0  0  0  0  0  0  0  0  0  0  0  0
   -0.2706   -1.4429    0.0000 C   0  0  0  0  0  0  0  0  0  0  0  0
    0.1419   -2.1574    0.0000 C   0  0  0  0  0  0  0  0  0  0  0  0
    0.9669   -2.1574    0.0000 C   0  0  0  0  0  0  0  0  0  0  0  0
    1.3794   -2.8719    0.0000 C   0  0  0  0  0  0  0  0  0  0  0  0
    2.2044   -2.8719    0.0000 C   0  0  0  0  0  0  0  0  0  0  0  0
    2.6169   -2.1574    0.0000 C   0  0  0  0  0  0  0  0  0  0  0  0
    3.4419   -2.1574    0.0000 C   0  0  0  0  0  0  0  0  0  0  0  0
    3.8544   -1.4429    0.0000 C   0  0  0  0  0  0  0  0  0  0  0  0
    3.4419   -0.7285    0.0000 C   0  0  0  0  0  0  0  0  0  0  0  0
    1.3794   -1.4429    0.0000 C   0  0  0  0  0  0  0  0  0  0  0  0
  2  1  1  0  0  0  0
  2  3  1  0  0  0  0
  3  4  2  0  0  0  0
  4  5  1  0  0  0  0
  5  6  2  0  0  0  0
  6  7  1  0  0  0  0
  7  8  2  0  0  0  0
  8  9  1  0  0  0  0
  9 10  1  0  0  0  0
 10 11  2  0  0  0  0
 11 12  1  0  0  0  0
 12  1  2  0  0  0  0
 12 13  1  0  0  0  0
 13 14  2  0  0  0  0
 14 15  1  0  0  0  0
 15  2  2  0  0  0  0
  9 16  2  0  0  0  0
  1 16  1  0  0  0  0
 16  5  1  0  0  0  0
M  END
> <ChemID>
100261

> <CAS>
129-00-0

> <Original_SMILES>
c1cc2cccc3ccc4cccc1c4c32

> <preferred_name>
Pyrene

> <dsstox_substance_id>
DTXSID3024289

> <dsstox_compound_id>
DTXCID804289

> <qc_level>
DSSTox_Low

> <Canonical_QSARr>
C1=CC2C=CC=C3C=CC4=CC=CC1=C4C=23

> <InChI_Code_QSARr>
InChI=1S/C16H10/c1-3-11-7-9-13-5-2-6-14-10-8-12(4-1)15(11)16(13)14/h1-10H

> <InChI Key_QSARr>
BBEAQIROQSPTKN-UHFFFAOYSA-N

> <Salt_Solvent>


> <Salt_Solvent_ID>
0

> <MPID>
99538

> <KocRef>
Schuurmann-Main

> <LogKOC>
4.9

> <Tr_1_Tst_0>
1

$$$$
100262
  Mrv171c012251911022D          

 14 14  0  0  0  0            999 V2000
    1.5038   -2.3082    0.0000 C   0  0  0  0  0  0  0  0  0  0  0  0
    0.7893   -1.8957    0.0000 C   0  0  0  0  0  0  0  0  0  0  0  0
    0.0748   -2.3082    0.0000 O   0  0  0  0  0  0  0  0  0  0  0  0
   -0.6397   -1.8957    0.0000 C   0  0  0  0  0  0  0  0  0  0  0  0
    0.7893   -1.0707    0.0000 O   0  0  0  0  0  0  0  0  0  0  0  0
    1.5038   -3.1332    0.0000 C   0  0  0  0  0  0  0  0  0  0  0  0
    2.2182   -3.5457    0.0000 C   0  0  0  0  0  0  0  0  0  0  0  0
    2.9327   -3.1332    0.0000 C   0  0  0  0  0  0  0  0  0  0  0  0
    2.9327   -2.3082    0.0000 C   0  0  0  0  0  0  0  0  0  0  0  0
    2.2182   -1.8957    0.0000 C   0  0  0  0  0  0  0  0  0  0  0  0
    2.2182   -1.0707    0.0000 C   0  0  0  0  0  0  0  0  0  0  0  0
    2.9327   -0.6582    0.0000 O   0  0  0  0  0  0  0  0  0  0  0  0
    2.9327    0.1668    0.0000 C   0  0  0  0  0  0  0  0  0  0  0  0
    1.5038   -0.6582    0.0000 O   0  0  0  0  0  0  0  0  0  0  0  0
  1  2  1  0  0  0  0
  2  3  1  0  0  0  0
  3  4  1  0  0  0  0
  2  5  2  0  0  0  0
  6  1  1  0  0  0  0
  7  6  2  0  0  0  0
  8  7  1  0  0  0  0
  9  8  2  0  0  0  0
 10  9  1  0  0  0  0
  1 10  2  0  0  0  0
 10 11  1  0  0  0  0
 11 12  1  0  0  0  0
 12 13  1  0  0  0  0
 11 14  2  0  0  0  0
M  END
> <ChemID>
100262

> <CAS>
131-11-3

> <Original_SMILES>
COC(=O)c1ccccc1C(=O)OC

> <preferred_name>
Dimethyl phthalate

> <dsstox_substance_id>
DTXSID3022455

> <dsstox_compound_id>
DTXCID502455

> <qc_level>
DSSTox_Low

> <Canonical_QSARr>
COC(=O)C1C=CC=CC=1C(=O)OC

> <InChI_Code_QSARr>
InChI=1S/C10H10O4/c1-13-9(11)7-5-3-4-6-8(7)10(12)14-2/h3-6H,1-2H3

> <InChI Key_QSARr>
NIQCNGHVCWTJSM-UHFFFAOYSA-N

> <Salt_Solvent>


> <Salt_Solvent_ID>
0

> <MPID>
99539

> <KocRef>
Schuurmann-Main

> <LogKOC>
1.6

> <Tr_1_Tst_0>
1

$$$$
100263
  Mrv171c012251911022D          

 13 15  0  0  0  0            999 V2000
    0.5267   -1.6923    0.0000 C   0  0  0  0  0  0  0  0  0  0  0  0
    1.3336   -1.5208    0.0000 C   0  0  0  0  0  0  0  0  0  0  0  0
    2.0011   -2.0057    0.0000 O   0  0  0  0  0  0  0  0  0  0  0  0
    2.6685   -1.5208    0.0000 C   0  0  0  0  0  0  0  0  0  0  0  0
    3.4755   -1.6923    0.0000 C   0  0  0  0  0  0  0  0  0  0  0  0
    4.0275   -1.0792    0.0000 C   0  0  0  0  0  0  0  0  0  0  0  0
    3.7726   -0.2946    0.0000 C   0  0  0  0  0  0  0  0  0  0  0  0
    2.9656   -0.1231    0.0000 C   0  0  0  0  0  0  0  0  0  0  0  0
    2.4136   -0.7361    0.0000 C   0  0  0  0  0  0  0  0  0  0  0  0
    1.5886   -0.7361    0.0000 C   0  0  0  0  0  0  0  0  0  0  0  0
    1.0365   -0.1231    0.0000 C   0  0  0  0  0  0  0  0  0  0  0  0
    0.2296   -0.2946    0.0000 C   0  0  0  0  0  0  0  0  0  0  0  0
   -0.0254   -1.0792    0.0000 C   0  0  0  0  0  0  0  0  0  0  0  0
  2  1  1  0  0  0  0
  2  3  1  0  0  0  0
  3  4  1  0  0  0  0
  5  4  2  0  0  0  0
  6  5  1  0  0  0  0
  7  6  2  0  0  0  0
  8  7  1  0  0  0  0
  9  8  2  0  0  0  0
  4  9  1  0  0  0  0
  9 10  1  0  0  0  0
 10  2  2  0  0  0  0
 11 10  1  0  0  0  0
 12 11  2  0  0  0  0
 13 12  1  0  0  0  0
  1 13  2  0  0  0  0
M  END
> <ChemID>
100263

> <CAS>
132-64-9

> <Original_SMILES>
c1cccc2oc3ccccc3c21

> <preferred_name>
Dibenzofuran

> <dsstox_substance_id>
DTXSID2021993

> <dsstox_compound_id>
DTXCID801993

> <qc_level>
DSSTox_Low

> <Canonical_QSARr>
C1=CC=CC2OC3=CC=CC=C3C=21

> <InChI_Code_QSARr>
InChI=1S/C12H8O/c1-3-7-11-9(5-1)10-6-2-4-8-12(10)13-11/h1-8H

> <InChI Key_QSARr>
TXCDCPKCNAJMEE-UHFFFAOYSA-N

> <Salt_Solvent>


> <Salt_Solvent_ID>
0

> <MPID>
99540

> <KocRef>
Schuurmann-Main

> <LogKOC>
3.91

> <Tr_1_Tst_0>
0

$$$$
100264
  Mrv171c012251911022D          

 13 15  0  0  0  0            999 V2000
    2.6771   -0.4818    0.0000 C   0  0  0  0  0  0  0  0  0  0  0  0
    3.4841   -0.3102    0.0000 C   0  0  0  0  0  0  0  0  0  0  0  0
    4.0361   -0.9233    0.0000 C   0  0  0  0  0  0  0  0  0  0  0  0
    3.7812   -1.7080    0.0000 C   0  0  0  0  0  0  0  0  0  0  0  0
    2.9742   -1.8795    0.0000 C   0  0  0  0  0  0  0  0  0  0  0  0
    2.4221   -1.2664    0.0000 C   0  0  0  0  0  0  0  0  0  0  0  0
    1.5971   -1.2664    0.0000 C   0  0  0  0  0  0  0  0  0  0  0  0
    1.0451   -1.8795    0.0000 C   0  0  0  0  0  0  0  0  0  0  0  0
    0.2381   -1.7080    0.0000 C   0  0  0  0  0  0  0  0  0  0  0  0
   -0.0168   -0.9233    0.0000 C   0  0  0  0  0  0  0  0  0  0  0  0
    0.5352   -0.3102    0.0000 C   0  0  0  0  0  0  0  0  0  0  0  0
    1.3422   -0.4818    0.0000 C   0  0  0  0  0  0  0  0  0  0  0  0
    2.0096    0.0032    0.0000 S   0  0  0  0  0  0  0  0  0  0  0  0
  2  1  1  0  0  0  0
  3  2  2  0  0  0  0
  4  3  1  0  0  0  0
  5  4  2  0  0  0  0
  6  5  1  0  0  0  0
  6  1  2  0  0  0  0
  7  6  1  0  0  0  0
  7  8  1  0  0  0  0
  8  9  2  0  0  0  0
  9 10  1  0  0  0  0
 10 11  2  0  0  0  0
 11 12  1  0  0  0  0
 12  7  2  0  0  0  0
 13 12  1  0  0  0  0
  1 13  1  0  0  0  0
M  END
> <ChemID>
100264

> <CAS>
132-65-0

> <Original_SMILES>
c1cccc2[s]c3ccccc3c21

> <preferred_name>
Dibenzothiophene

> <dsstox_substance_id>
DTXSID0047741

> <dsstox_compound_id>
DTXCID0027725

> <qc_level>
DSSTox_Low

> <Canonical_QSARr>
C1=CC=CC2SC3C=CC=CC=3C=21

> <InChI_Code_QSARr>
InChI=1S/C12H8S/c1-3-7-11-9(5-1)10-6-2-4-8-12(10)13-11/h1-8H

> <InChI Key_QSARr>
IYYZUPMFVPLQIF-UHFFFAOYSA-N

> <Salt_Solvent>


> <Salt_Solvent_ID>
0

> <MPID>
99541

> <KocRef>
Schuurmann-Main

> <LogKOC>
4.05

> <Tr_1_Tst_0>
1

$$$$
100266
  Mrv171c012251911022D          

 22 24  0  0  0  0            999 V2000
    2.5981   -1.5375    0.0000 O   0  0  0  0  0  0  0  0  0  0  0  0
    1.8836   -1.1250    0.0000 C   0  0  0  0  0  0  0  0  0  0  0  0
    1.1691   -1.5375    0.0000 C   0  0  0  0  0  0  0  0  0  0  0  0
    0.4547   -1.1250    0.0000 C   0  0  0  0  0  0  0  0  0  0  0  0
    0.4547   -0.3000    0.0000 C   0  0  0  0  0  0  0  0  0  0  0  0
    1.1691    0.1125    0.0000 N   0  0  0  0  0  0  0  0  0  0  0  0
    1.1691    0.9375    0.0000 C   0  0  0  0  0  0  0  0  0  0  0  0
    1.8836    1.3500    0.0000 C   0  0  0  0  0  0  0  0  0  0  0  0
    1.8836    2.1750    0.0000 C   0  0  0  0  0  0  0  0  0  0  0  0
    2.5981    2.5875    0.0000 C   0  0  0  0  0  0  0  0  0  0  0  0
    3.3125    2.1750    0.0000 C   0  0  0  0  0  0  0  0  0  0  0  0
    3.3125    1.3500    0.0000 C   0  0  0  0  0  0  0  0  0  0  0  0
    2.5981    0.9375    0.0000 C   0  0  0  0  0  0  0  0  0  0  0  0
    1.1691    2.5875    0.0000 C   0  0  0  0  0  0  0  0  0  0  0  0
    0.4547    2.1750    0.0000 C   0  0  0  0  0  0  0  0  0  0  0  0
    0.4547    1.3500    0.0000 C   0  0  0  0  0  0  0  0  0  0  0  0
   -0.2598    0.1125    0.0000 O   0  0  0  0  0  0  0  0  0  0  0  0
   -0.2598   -1.5375    0.0000 C   0  0  0  0  0  0  0  0  0  0  0  0
   -0.2598   -2.3625    0.0000 C   0  0  0  0  0  0  0  0  0  0  0  0
    0.4547   -2.7750    0.0000 C   0  0  0  0  0  0  0  0  0  0  0  0
    1.1691   -2.3625    0.0000 C   0  0  0  0  0  0  0  0  0  0  0  0
    1.8836   -0.3000    0.0000 O   0  0  0  0  0  0  0  0  0  0  0  0
  1  2  1  0  0  0  0
  2  3  1  0  0  0  0
  4  3  1  0  0  0  0
  4  5  1  0  0  0  0
  5  6  1  0  0  0  0
  6  7  1  0  0  0  0
  8  7  1  0  0  0  0
  8  9  1  0  0  0  0
  9 10  2  0  0  0  0
 10 11  1  0  0  0  0
 11 12  2  0  0  0  0
 12 13  1  0  0  0  0
 13  8  2  0  0  0  0
 14  9  1  0  0  0  0
 15 14  2  0  0  0  0
 16 15  1  0  0  0  0
  7 16  2  0  0  0  0
  5 17  2  0  0  0  0
 18  4  2  0  0  0  0
 19 18  1  0  0  0  0
 20 19  2  0  0  0  0
 21 20  1  0  0  0  0
  3 21  2  0  0  0  0
  2 22  2  0  0  0  0
M  END
> <ChemID>
100266

> <CAS>
132-67-2

> <Original_SMILES>
[Na+].[O-]C(=O)c1ccccc1C(=O)Nc1cccc2ccccc21

> <preferred_name>
Naptalam-sodium

> <dsstox_substance_id>
DTXSID7034759

> <dsstox_compound_id>
DTXCID5014759

> <qc_level>
DSSTox_Low

> <Canonical_QSARr>
OC(=O)C1=CC=CC=C1C(=O)NC1=CC=CC2=CC=CC=C21

> <InChI_Code_QSARr>
InChI=1S/C18H13NO3/c20-17(14-9-3-4-10-15(14)18(21)22)19-16-11-5-7-12-6-1-2-8-13(12)16/h1-11H,(H,19,20)(H,21,22)

> <InChI Key_QSARr>
JXTHEWSKYLZVJC-UHFFFAOYSA-N

> <Salt_Solvent>
[Na+]

> <Salt_Solvent_ID>
110

> <MPID>
99542

> <KocRef>
USDA Pest Prop DB

> <LogKOC>
3.34

> <Tr_1_Tst_0>
0

$$$$
100267
  Mrv171c012251911022D          

 16 17  0  0  0  0            999 V2000
    2.0521    0.1152    0.0000 O   0  0  0  0  0  0  0  0  0  0  0  0
    2.3071   -0.6694    0.0000 C   0  0  0  0  0  0  0  0  0  0  0  0
    3.0917   -0.9243    0.0000 C   0  0  0  0  0  0  0  0  0  0  0  0
    3.8062   -0.5118    0.0000 C   0  0  0  0  0  0  0  0  0  0  0  0
    4.5206   -0.9243    0.0000 C   0  0  0  0  0  0  0  0  0  0  0  0
    4.5206   -1.7493    0.0000 C   0  0  0  0  0  0  0  0  0  0  0  0
    3.8062   -2.1618    0.0000 C   0  0  0  0  0  0  0  0  0  0  0  0
    3.0917   -1.7493    0.0000 C   0  0  0  0  0  0  0  0  0  0  0  0
    2.3071   -2.0043    0.0000 C   0  0  0  0  0  0  0  0  0  0  0  0
    2.0521   -2.7889    0.0000 O   0  0  0  0  0  0  0  0  0  0  0  0
    1.8221   -1.3368    0.0000 N   0  0  0  0  0  0  0  0  0  0  0  0
    0.9971   -1.3368    0.0000 S   0  0  0  0  0  0  0  0  0  0  0  0
    0.5846   -2.0513    0.0000 C   0  0  0  0  0  0  0  0  0  0  0  0
    0.1721   -2.7658    0.0000 Cl  0  0  0  0  0  0  0  0  0  0  0  0
   -0.1298   -1.6388    0.0000 Cl  0  0  0  0  0  0  0  0  0  0  0  0
    1.2991   -2.4638    0.0000 Cl  0  0  0  0  0  0  0  0  0  0  0  0
  1  2  2  0  0  0  0
  3  2  1  0  0  0  0
  3  4  1  0  0  0  0
  4  5  1  0  0  0  0
  5  6  2  0  0  0  0
  6  7  1  0  0  0  0
  7  8  1  0  0  0  0
  8  3  1  0  0  0  0
  9  8  1  0  0  0  0
  9 10  2  0  0  0  0
 11  9  1  0  0  0  0
  2 11  1  0  0  0  0
 11 12  1  0  0  0  0
 12 13  1  0  0  0  0
 13 14  1  0  0  0  0
 13 15  1  0  0  0  0
 13 16  1  0  0  0  0
M  END
> <ChemID>
100267

> <CAS>
133-06-2

> <Original_SMILES>
O=C1C2CC=CCC2C(=O)N1SC(Cl)(Cl)Cl

> <preferred_name>
Captan

> <dsstox_substance_id>
DTXSID9020243

> <dsstox_compound_id>
DTXCID90243

> <qc_level>
DSSTox_Low

> <Canonical_QSARr>
O=C1C2CC=CCC2C(=O)N1SC(Cl)(Cl)Cl

> <InChI_Code_QSARr>
InChI=1S/C9H8Cl3NO2S/c10-9(11,12)16-13-7(14)5-3-1-2-4-6(5)8(13)15/h1-2,5-6H,3-4H2

> <InChI Key_QSARr>
LDVVMCZRFWMZSG-UHFFFAOYSA-N

> <Salt_Solvent>


> <Salt_Solvent_ID>
0

> <MPID>
99543

> <KocRef>
Schuurmann-Main

> <LogKOC>
2.3

> <Tr_1_Tst_0>
1

$$$$
100268
  Mrv171c012251911022D          

 16 17  0  0  0  0            999 V2000
    2.0521    0.1152    0.0000 O   0  0  0  0  0  0  0  0  0  0  0  0
    2.3071   -0.6694    0.0000 C   0  0  0  0  0  0  0  0  0  0  0  0
    3.0917   -0.9243    0.0000 C   0  0  0  0  0  0  0  0  0  0  0  0
    3.8062   -0.5118    0.0000 C   0  0  0  0  0  0  0  0  0  0  0  0
    4.5206   -0.9243    0.0000 C   0  0  0  0  0  0  0  0  0  0  0  0
    4.5206   -1.7493    0.0000 C   0  0  0  0  0  0  0  0  0  0  0  0
    3.8062   -2.1618    0.0000 C   0  0  0  0  0  0  0  0  0  0  0  0
    3.0917   -1.7493    0.0000 C   0  0  0  0  0  0  0  0  0  0  0  0
    2.3071   -2.0043    0.0000 C   0  0  0  0  0  0  0  0  0  0  0  0
    2.0521   -2.7889    0.0000 O   0  0  0  0  0  0  0  0  0  0  0  0
    1.8221   -1.3368    0.0000 N   0  0  0  0  0  0  0  0  0  0  0  0
    0.9971   -1.3368    0.0000 S   0  0  0  0  0  0  0  0  0  0  0  0
    0.5846   -2.0513    0.0000 C   0  0  0  0  0  0  0  0  0  0  0  0
    0.1721   -2.7658    0.0000 Cl  0  0  0  0  0  0  0  0  0  0  0  0
   -0.1298   -1.6388    0.0000 Cl  0  0  0  0  0  0  0  0  0  0  0  0
    1.2991   -2.4638    0.0000 Cl  0  0  0  0  0  0  0  0  0  0  0  0
  1  2  2  0  0  0  0
  3  2  1  0  0  0  0
  3  4  1  0  0  0  0
  4  5  2  0  0  0  0
  5  6  1  0  0  0  0
  6  7  2  0  0  0  0
  7  8  1  0  0  0  0
  8  3  2  0  0  0  0
  9  8  1  0  0  0  0
  9 10  2  0  0  0  0
 11  9  1  0  0  0  0
  2 11  1  0  0  0  0
 11 12  1  0  0  0  0
 12 13  1  0  0  0  0
 13 14  1  0  0  0  0
 13 15  1  0  0  0  0
 13 16  1  0  0  0  0
M  END
> <ChemID>
100268

> <CAS>
133-07-3

> <Original_SMILES>
O=C1c2ccccc2C(=O)N1SC(Cl)(Cl)Cl

> <preferred_name>
Folpet

> <dsstox_substance_id>
DTXSID0021385

> <dsstox_compound_id>
DTXCID101385

> <qc_level>
DSSTox_Low

> <Canonical_QSARr>
O=C1C2C=CC=CC=2C(=O)N1SC(Cl)(Cl)Cl

> <InChI_Code_QSARr>
InChI=1S/C9H4Cl3NO2S/c10-9(11,12)16-13-7(14)5-3-1-2-4-6(5)8(13)15/h1-4H

> <InChI Key_QSARr>
HKIOYBQGHSTUDB-UHFFFAOYSA-N

> <Salt_Solvent>


> <Salt_Solvent_ID>
0

> <MPID>
99544

> <KocRef>
Schuurmann-Main

> <LogKOC>
3.27

> <Tr_1_Tst_0>
1

$$$$
100269
  Mrv171c012251911022D          

 12 12  0  0  0  0            999 V2000
    2.5462   -1.1351    0.0000 Cl  0  0  0  0  0  0  0  0  0  0  0  0
    1.8317   -1.5476    0.0000 C   0  0  0  0  0  0  0  0  0  0  0  0
    1.1172   -1.1351    0.0000 C   0  0  0  0  0  0  0  0  0  0  0  0
    1.1172   -0.3101    0.0000 C   0  0  0  0  0  0  0  0  0  0  0  0
    0.4028    0.1024    0.0000 O   0  0  0  0  0  0  0  0  0  0  0  0
    1.8317    0.1024    0.0000 O   0  0  0  0  0  0  0  0  0  0  0  0
    0.4028   -1.5476    0.0000 C   0  0  0  0  0  0  0  0  0  0  0  0
    0.4028   -2.3726    0.0000 C   0  0  0  0  0  0  0  0  0  0  0  0
   -0.3117   -2.7851    0.0000 Cl  0  0  0  0  0  0  0  0  0  0  0  0
    1.1172   -2.7851    0.0000 C   0  0  0  0  0  0  0  0  0  0  0  0
    1.8317   -2.3726    0.0000 C   0  0  0  0  0  0  0  0  0  0  0  0
    2.5462   -2.7851    0.0000 N   0  0  0  0  0  0  0  0  0  0  0  0
  1  2  1  0  0  0  0
  3  2  1  0  0  0  0
  3  4  1  0  0  0  0
  4  5  1  0  0  0  0
  4  6  2  0  0  0  0
  7  3  2  0  0  0  0
  8  7  1  0  0  0  0
  8  9  1  0  0  0  0
 10  8  2  0  0  0  0
 11 10  1  0  0  0  0
  2 11  2  0  0  0  0
 11 12  1  0  0  0  0
M  END
> <ChemID>
100269

> <CAS>
133-90-4

> <Original_SMILES>
Nc1cc(Cl)cc(C(O)=O)c1Cl

> <preferred_name>
Chloramben

> <dsstox_substance_id>
DTXSID2020262

> <dsstox_compound_id>
DTXCID00262

> <qc_level>
DSSTox_High

> <Canonical_QSARr>
NC1C=C(Cl)C=C(C(O)=O)C=1Cl

> <InChI_Code_QSARr>
InChI=1S/C7H5Cl2NO2/c8-3-1-4(7(11)12)6(9)5(10)2-3/h1-2H,10H2,(H,11,12)

> <InChI Key_QSARr>
HSSBORCLYSCBJR-UHFFFAOYSA-N

> <Salt_Solvent>


> <Salt_Solvent_ID>
0

> <MPID>
99545

> <KocRef>
Schuurmann-Main

> <LogKOC>
1.48

> <Tr_1_Tst_0>
0

$$$$
100270
  Mrv171c012251911022D          

 11 12  0  0  0  0            999 V2000
    1.5577   -0.8473    0.0000 C   0  0  0  0  0  0  0  0  0  0  0  0
    0.8432   -0.4348    0.0000 C   0  0  0  0  0  0  0  0  0  0  0  0
    0.1287   -0.8473    0.0000 C   0  0  0  0  0  0  0  0  0  0  0  0
    0.1287   -1.6723    0.0000 C   0  0  0  0  0  0  0  0  0  0  0  0
    0.8432   -2.0848    0.0000 C   0  0  0  0  0  0  0  0  0  0  0  0
    0.8432   -2.9098    0.0000 N   0  0  0  0  0  0  0  0  0  0  0  0
    1.5577   -1.6723    0.0000 C   0  0  0  0  0  0  0  0  0  0  0  0
    2.2721   -2.0848    0.0000 C   0  0  0  0  0  0  0  0  0  0  0  0
    2.9866   -1.6723    0.0000 C   0  0  0  0  0  0  0  0  0  0  0  0
    2.9866   -0.8473    0.0000 C   0  0  0  0  0  0  0  0  0  0  0  0
    2.2721   -0.4348    0.0000 C   0  0  0  0  0  0  0  0  0  0  0  0
  2  1  1  0  0  0  0
  3  2  2  0  0  0  0
  4  3  1  0  0  0  0
  5  4  2  0  0  0  0
  5  6  1  0  0  0  0
  7  5  1  0  0  0  0
  7  1  2  0  0  0  0
  8  7  1  0  0  0  0
  9  8  2  0  0  0  0
 10  9  1  0  0  0  0
 11 10  2  0  0  0  0
  1 11  1  0  0  0  0
M  END
> <ChemID>
100270

> <CAS>
134-32-7

> <Original_SMILES>
Nc1cccc2ccccc21

> <preferred_name>
1-Naphthylamine

> <dsstox_substance_id>
DTXSID7020920

> <dsstox_compound_id>
DTXCID30920

> <qc_level>
DSSTox_Low

> <Canonical_QSARr>
NC1=CC=CC2C=CC=CC=21

> <InChI_Code_QSARr>
InChI=1S/C10H9N/c11-10-7-3-5-8-4-1-2-6-9(8)10/h1-7H,11H2

> <InChI Key_QSARr>
RUFPHBVGCFYCNW-UHFFFAOYSA-N

> <Salt_Solvent>


> <Salt_Solvent_ID>
0

> <MPID>
99546

> <KocRef>
Schuurmann-Main

> <LogKOC>
3.51

> <Tr_1_Tst_0>
1

$$$$
100271
  Mrv171c012251911022D          

 13 13  0  0  0  0            999 V2000
    2.1424   -0.8245    0.0000 C   0  0  0  0  0  0  0  0  0  0  0  0
    2.8568   -1.2370    0.0000 O   0  0  0  0  0  0  0  0  0  0  0  0
    3.5713   -0.8245    0.0000 C   0  0  0  0  0  0  0  0  0  0  0  0
    4.2858   -1.2370    0.0000 C   0  0  0  0  0  0  0  0  0  0  0  0
    5.0003   -0.8245    0.0000 C   0  0  0  0  0  0  0  0  0  0  0  0
    5.7147   -1.2370    0.0000 C   0  0  0  0  0  0  0  0  0  0  0  0
    1.4279   -1.2370    0.0000 C   0  0  0  0  0  0  0  0  0  0  0  0
    0.7134   -0.8245    0.0000 C   0  0  0  0  0  0  0  0  0  0  0  0
   -0.0010   -1.2370    0.0000 C   0  0  0  0  0  0  0  0  0  0  0  0
   -0.0010   -2.0620    0.0000 C   0  0  0  0  0  0  0  0  0  0  0  0
    0.7134   -2.4745    0.0000 C   0  0  0  0  0  0  0  0  0  0  0  0
    1.4279   -2.0620    0.0000 C   0  0  0  0  0  0  0  0  0  0  0  0
    2.1424    0.0005    0.0000 O   0  0  0  0  0  0  0  0  0  0  0  0
  1  2  1  0  0  0  0
  2  3  1  0  0  0  0
  3  4  1  0  0  0  0
  4  5  1  0  0  0  0
  5  6  1  0  0  0  0
  1  7  1  0  0  0  0
  8  7  1  0  0  0  0
  9  8  2  0  0  0  0
 10  9  1  0  0  0  0
 11 10  2  0  0  0  0
 12 11  1  0  0  0  0
  7 12  2  0  0  0  0
  1 13  2  0  0  0  0
M  END
> <ChemID>
100271

> <CAS>
136-60-7

> <Original_SMILES>
CCCCOC(=O)c1ccccc1

> <preferred_name>
Butyl benzoate

> <dsstox_substance_id>
DTXSID8040694

> <dsstox_compound_id>
DTXCID6020694

> <qc_level>
DSSTox_Low

> <Canonical_QSARr>
CCCCOC(=O)C1C=CC=CC=1

> <InChI_Code_QSARr>
InChI=1S/C11H14O2/c1-2-3-9-13-11(12)10-7-5-4-6-8-10/h4-8H,2-3,9H2,1H3

> <InChI Key_QSARr>
XSIFPSYPOVKYCO-UHFFFAOYSA-N

> <Salt_Solvent>


> <Salt_Solvent_ID>
0

> <MPID>
99547

> <KocRef>
SRC 1992 Validation

> <LogKOC>
2.1

> <Tr_1_Tst_0>
1

$$$$
100272
  Mrv171c012251911022D          

 12 11  0  0  0  0            999 V2000
    3.3960   -0.1034    0.0000 S   0  0  0  0  0  0  0  0  0  0  0  0
    3.3960   -0.9284    0.0000 C   0  0  0  0  0  0  0  0  0  0  0  0
    2.6816   -1.3409    0.0000 S   0  0  0  0  0  0  0  0  0  0  0  0
    1.9671   -0.9284    0.0000 S   0  0  0  0  0  0  0  0  0  0  0  0
    1.2526   -1.3409    0.0000 C   0  0  0  0  0  0  0  0  0  0  0  0
    0.5381   -0.9284    0.0000 N   0  0  0  0  0  0  0  0  0  0  0  0
   -0.1763   -1.3409    0.0000 C   0  0  0  0  0  0  0  0  0  0  0  0
    0.5381   -0.1034    0.0000 C   0  0  0  0  0  0  0  0  0  0  0  0
    1.2526   -2.1659    0.0000 S   0  0  0  0  0  0  0  0  0  0  0  0
    4.1105   -1.3409    0.0000 N   0  0  0  0  0  0  0  0  0  0  0  0
    4.8250   -0.9284    0.0000 C   0  0  0  0  0  0  0  0  0  0  0  0
    4.1105   -2.1659    0.0000 C   0  0  0  0  0  0  0  0  0  0  0  0
  1  2  2  0  0  0  0
  2  3  1  0  0  0  0
  3  4  1  0  0  0  0
  4  5  1  0  0  0  0
  5  6  1  0  0  0  0
  6  7  1  0  0  0  0
  6  8  1  0  0  0  0
  5  9  2  0  0  0  0
  2 10  1  0  0  0  0
 10 11  1  0  0  0  0
 10 12  1  0  0  0  0
M  END
> <ChemID>
100272

> <CAS>
137-26-8

> <Original_SMILES>
CN(C)C(=S)SSC(=S)N(C)C

> <preferred_name>
Thiram

> <dsstox_substance_id>
DTXSID5021332

> <dsstox_compound_id>
DTXCID401332

> <qc_level>
DSSTox_Low

> <Canonical_QSARr>
CN(C)C(=S)SSC(=S)N(C)C

> <InChI_Code_QSARr>
InChI=1S/C6H12N2S4/c1-7(2)5(9)11-12-6(10)8(3)4/h1-4H3

> <InChI Key_QSARr>
KUAZQDVKQLNFPE-UHFFFAOYSA-N

> <Salt_Solvent>


> <Salt_Solvent_ID>
0

> <MPID>
99548

> <KocRef>
Schuurmann-Main

> <LogKOC>
2.83

> <Tr_1_Tst_0>
1

$$$$
100274
  Mrv171c012251911022D          

 15 15  0  0  0  0            999 V2000
    3.8273   -3.1128    0.0000 Cl  0  0  0  0  0  0  0  0  0  0  0  0
    3.1128   -2.7003    0.0000 C   0  0  0  0  0  0  0  0  0  0  0  0
    3.1128   -1.8753    0.0000 N   0  0  0  0  0  0  0  0  0  0  0  0
    2.3983   -1.4628    0.0000 C   0  0  0  0  0  0  0  0  0  0  0  0
    2.3983   -0.6378    0.0000 N   0  0  0  0  0  0  0  0  0  0  0  0
    3.1128   -0.2253    0.0000 C   0  0  0  0  0  0  0  0  0  0  0  0
    3.1128    0.5997    0.0000 C   0  0  0  0  0  0  0  0  0  0  0  0
    3.8273   -0.6378    0.0000 C   0  0  0  0  0  0  0  0  0  0  0  0
    1.6839   -1.8753    0.0000 N   0  0  0  0  0  0  0  0  0  0  0  0
    1.6839   -2.7003    0.0000 C   0  0  0  0  0  0  0  0  0  0  0  0
    0.9694   -3.1128    0.0000 N   0  0  0  0  0  0  0  0  0  0  0  0
    0.2549   -2.7003    0.0000 C   0  0  0  0  0  0  0  0  0  0  0  0
   -0.4596   -3.1128    0.0000 C   0  0  0  0  0  0  0  0  0  0  0  0
    0.2549   -1.8753    0.0000 C   0  0  0  0  0  0  0  0  0  0  0  0
    2.3983   -3.1128    0.0000 N   0  0  0  0  0  0  0  0  0  0  0  0
  1  2  1  0  0  0  0
  3  2  1  0  0  0  0
  4  3  2  0  0  0  0
  4  5  1  0  0  0  0
  5  6  1  0  0  0  0
  6  7  1  0  0  0  0
  6  8  1  0  0  0  0
  9  4  1  0  0  0  0
 10  9  2  0  0  0  0
 10 11  1  0  0  0  0
 11 12  1  0  0  0  0
 12 13  1  0  0  0  0
 12 14  1  0  0  0  0
 15 10  1  0  0  0  0
  2 15  2  0  0  0  0
M  END
> <ChemID>
100274

> <CAS>
139-40-2

> <Original_SMILES>
CC(C)Nc1[n]c(Cl)[n]c(NC(C)C)[n]1

> <preferred_name>
Propazine

> <dsstox_substance_id>
DTXSID3021196

> <dsstox_compound_id>
DTXCID401196

> <qc_level>
DSSTox_High

> <Canonical_QSARr>
CC(C)NC1=NC(Cl)=NC(NC(C)C)=N1

> <InChI_Code_QSARr>
InChI=1S/C9H16ClN5/c1-5(2)11-8-13-7(10)14-9(15-8)12-6(3)4/h5-6H,1-4H3,(H2,11,12,13,14,15)

> <InChI Key_QSARr>
WJNRPILHGGKWCK-UHFFFAOYSA-N

> <Salt_Solvent>


> <Salt_Solvent_ID>
0

> <MPID>
99549

> <KocRef>
Schuurmann-Main

> <LogKOC>
2.4

> <Tr_1_Tst_0>
0

$$$$
100275
  Mrv171c012251911022D          

 15 16  0  0  0  0            999 V2000
    3.8616   -3.3066    0.0000 C   0  0  0  0  0  0  0  0  0  0  0  0
    3.8616   -4.1316    0.0000 N   0  0  0  0  0  0  0  0  0  0  0  0
    4.5761   -2.8941    0.0000 C   0  0  0  0  0  0  0  0  0  0  0  0
    4.5761   -2.0691    0.0000 C   0  0  0  0  0  0  0  0  0  0  0  0
    3.8616   -1.6566    0.0000 C   0  0  0  0  0  0  0  0  0  0  0  0
    3.8616   -0.8316    0.0000 S   0  0  0  0  0  0  0  0  0  0  0  0
    3.1471   -0.4191    0.0000 C   0  0  0  0  0  0  0  0  0  0  0  0
    3.1471    0.4059    0.0000 C   0  0  0  0  0  0  0  0  0  0  0  0
    2.4327    0.8184    0.0000 C   0  0  0  0  0  0  0  0  0  0  0  0
    1.7182    0.4059    0.0000 C   0  0  0  0  0  0  0  0  0  0  0  0
    1.0037    0.8184    0.0000 N   0  0  0  0  0  0  0  0  0  0  0  0
    1.7182   -0.4191    0.0000 C   0  0  0  0  0  0  0  0  0  0  0  0
    2.4327   -0.8316    0.0000 C   0  0  0  0  0  0  0  0  0  0  0  0
    3.1471   -2.0691    0.0000 C   0  0  0  0  0  0  0  0  0  0  0  0
    3.1471   -2.8941    0.0000 C   0  0  0  0  0  0  0  0  0  0  0  0
  1  2  1  0  0  0  0
  3  1  1  0  0  0  0
  4  3  2  0  0  0  0
  5  4  1  0  0  0  0
  5  6  1  0  0  0  0
  6  7  1  0  0  0  0
  8  7  1  0  0  0  0
  9  8  2  0  0  0  0
 10  9  1  0  0  0  0
 10 11  1  0  0  0  0
 12 10  2  0  0  0  0
 13 12  1  0  0  0  0
  7 13  2  0  0  0  0
 14  5  2  0  0  0  0
 15 14  1  0  0  0  0
  1 15  2  0  0  0  0
M  END
> <ChemID>
100275

> <CAS>
139-65-1

> <Original_SMILES>
Nc1ccc(cc1)Sc1ccc(N)cc1

> <preferred_name>
4,4'-Thiodianiline

> <dsstox_substance_id>
DTXSID9021344

> <dsstox_compound_id>
DTXCID501344

> <qc_level>
DSSTox_Low

> <Canonical_QSARr>
NC1C=CC(=CC=1)SC1C=CC(N)=CC=1

> <InChI_Code_QSARr>
InChI=1S/C12H12N2S/c13-9-1-5-11(6-2-9)15-12-7-3-10(14)4-8-12/h1-8H,13-14H2

> <InChI Key_QSARr>
ICNFHJVPAJKPHW-UHFFFAOYSA-N

> <Salt_Solvent>


> <Salt_Solvent_ID>
0

> <MPID>
99550

> <KocRef>
Schuurmann-Main

> <LogKOC>
2.04

> <Tr_1_Tst_0>
1

$$$$
100276
  Mrv171c012251911022D          

 15 15  0  0  0  0            999 V2000
    0.0000    2.4750    0.0000 C   0  0  0  0  0  0  0  0  0  0  0  0
    0.7145    2.0625    0.0000 N   0  0  0  0  0  0  0  0  0  0  0  0
    1.4289    2.4750    0.0000 C   0  0  0  0  0  0  0  0  0  0  0  0
    0.7145    1.2375    0.0000 C   0  0  0  0  0  0  0  0  0  0  0  0
    1.4289    0.8250    0.0000 C   0  0  0  0  0  0  0  0  0  0  0  0
    1.4289   -0.0000    0.0000 C   0  0  0  0  0  0  0  0  0  0  0  0
    0.7145   -0.4125    0.0000 C   0  0  0  0  0  0  0  0  0  0  0  0
    0.0000    0.0000    0.0000 C   0  0  0  0  0  0  0  0  0  0  0  0
    0.0000    0.8250    0.0000 C   0  0  0  0  0  0  0  0  0  0  0  0
    0.7145   -1.2375    0.0000 N   0  0  0  0  0  0  0  0  0  0  0  0
   -0.0000   -1.6500    0.0000 N   0  0  0  0  0  0  0  0  0  0  0  0
   -0.0000   -2.4750    0.0000 S   0  0  0  0  0  0  0  0  0  0  0  0
   -0.0000   -3.3000    0.0000 O   0  0  0  0  0  0  0  0  0  0  0  0
   -0.8250   -2.4750    0.0000 O   0  0  0  0  0  0  0  0  0  0  0  0
    0.8250   -2.4750    0.0000 O   0  0  0  0  0  0  0  0  0  0  0  0
  1  2  1  0  0  0  0
  2  3  1  0  0  0  0
  2  4  1  0  0  0  0
  4  5  1  0  0  0  0
  5  6  2  0  0  0  0
  6  7  1  0  0  0  0
  7  8  2  0  0  0  0
  8  9  1  0  0  0  0
  4  9  2  0  0  0  0
 10  7  1  4  0  0  0
 10 11  2  0  0  0  0
 11 12  1  0  0  0  0
 12 13  1  0  0  0  0
 12 14  2  0  0  0  0
 12 15  2  0  0  0  0
M  END
> <ChemID>
100276

> <CAS>
140-56-7

> <Original_SMILES>
[Na+].CN(C)c1ccc(cc1)N=NS([O-])(=O)=O

> <preferred_name>
Fenaminosulf

> <dsstox_substance_id>
DTXSID6040371

> <dsstox_compound_id>
DTXCID50619

> <qc_level>
DSSTox_Low

> <Canonical_QSARr>
CN(C)C1C=CC(=CC=1)N=NS(O)(=O)=O

> <InChI_Code_QSARr>
InChI=1S/C8H11N3O3S/c1-11(2)8-5-3-7(4-6-8)9-10-15(12,13)14/h3-6H,1-2H3,(H,12,13,14)

> <InChI Key_QSARr>
FLTYACUMGDVPLP-UHFFFAOYSA-N

> <Salt_Solvent>
[Na+]

> <Salt_Solvent_ID>
110

> <MPID>
99551

> <KocRef>
USDA Pest Prop DB

> <LogKOC>
1.18

> <Tr_1_Tst_0>
1

$$$$
100277
  Mrv171c012251911022D          

 15 14  0  0  0  0            999 V2000
    1.2375   -0.7145    0.0000 C   0  0  0  0  0  0  0  0  0  0  0  0
    0.8250    0.0000    0.0000 C   0  0  0  0  0  0  0  0  0  0  0  0
    0.0000    0.0000    0.0000 C   0  0  0  0  0  0  0  0  0  0  0  0
   -0.4125   -0.7145    0.0000 C   0  0  0  0  0  0  0  0  0  0  0  0
    0.0000   -1.4289    0.0000 O   0  0  0  0  0  0  0  0  0  0  0  0
   -1.2375   -0.7145    0.0000 N   0  0  0  0  0  0  0  0  0  0  0  0
   -1.6500   -1.4289    0.0000 C   0  0  0  0  0  0  0  0  0  0  0  0
   -1.6500   -0.0000    0.0000 C   0  0  0  0  0  0  0  0  0  0  0  0
    1.2375    0.7145    0.0000 O   0  0  0  0  0  0  0  0  0  0  0  0
    2.0625    0.7145    0.0000 P   0  0  0  0  0  0  0  0  0  0  0  0
    2.0625   -0.1105    0.0000 O   0  0  0  0  0  0  0  0  0  0  0  0
    2.8875    0.7145    0.0000 O   0  0  0  0  0  0  0  0  0  0  0  0
    3.3000    1.4289    0.0000 C   0  0  0  0  0  0  0  0  0  0  0  0
    2.0625    1.5395    0.0000 O   0  0  0  0  0  0  0  0  0  0  0  0
    2.7770    1.9520    0.0000 C   0  0  0  0  0  0  0  0  0  0  0  0
  1  2  1  0  0  0  0
  2  3  2  0  0  0  0
  3  4  1  4  0  0  0
  4  5  2  0  0  0  0
  4  6  1  0  0  0  0
  6  7  1  0  0  0  0
  6  8  1  0  0  0  0
  2  9  1  0  0  0  0
  9 10  1  0  0  0  0
 10 11  2  0  0  0  0
 10 12  1  0  0  0  0
 12 13  1  0  0  0  0
 10 14  1  0  0  0  0
 14 15  1  0  0  0  0
M  END
> <ChemID>
100277

> <CAS>
141-66-2

> <Original_SMILES>
C/C(=C\C(=O)N(C)C)/OP(=O)(OC)OC

> <preferred_name>
Dicrotophos

> <dsstox_substance_id>
DTXSID9023914

> <dsstox_compound_id>
DTXCID003914

> <qc_level>
DSSTox_Low

> <Canonical_QSARr>
CC(=CC(=O)N(C)C)OP(=O)(OC)OC

> <InChI_Code_QSARr>
InChI=1S/C8H16NO5P/c1-7(6-8(10)9(2)3)14-15(11,12-4)13-5/h6H,1-5H3

> <InChI Key_QSARr>
VEENJGZXVHKXNB-UHFFFAOYSA-N

> <Salt_Solvent>


> <Salt_Solvent_ID>
0

> <MPID>
99552

> <KocRef>
Schuurmann-Main

> <LogKOC>
1.66

> <Tr_1_Tst_0>
1

$$$$
100278
  Mrv171c012251911022D          

  8  7  0  0  0  0            999 V2000
   -0.0022   -0.6195    0.0000 C   0  0  0  0  0  0  0  0  0  0  0  0
    0.7122   -1.0320    0.0000 C   0  0  0  0  0  0  0  0  0  0  0  0
    1.4267   -0.6195    0.0000 C   0  0  0  0  0  0  0  0  0  0  0  0
    2.1412   -1.0320    0.0000 C   0  0  0  0  0  0  0  0  0  0  0  0
    2.8556   -0.6195    0.0000 C   0  0  0  0  0  0  0  0  0  0  0  0
    3.5701   -1.0320    0.0000 C   0  0  0  0  0  0  0  0  0  0  0  0
    4.2846   -0.6195    0.0000 O   0  0  0  0  0  0  0  0  0  0  0  0
    3.5701   -1.8570    0.0000 O   0  0  0  0  0  0  0  0  0  0  0  0
  1  2  1  0  0  0  0
  2  3  1  0  0  0  0
  3  4  1  0  0  0  0
  4  5  1  0  0  0  0
  5  6  1  0  0  0  0
  6  7  2  0  0  0  0
  6  8  1  0  0  0  0
M  END
> <ChemID>
100278

> <CAS>
142-62-1

> <Original_SMILES>
CCCCCC(O)=O

> <preferred_name>
Hexanoic acid

> <dsstox_substance_id>
DTXSID7021607

> <dsstox_compound_id>
DTXCID101607

> <qc_level>
DSSTox_Low

> <Canonical_QSARr>
CCCCCC(O)=O

> <InChI_Code_QSARr>
InChI=1S/C6H12O2/c1-2-3-4-5-6(7)8/h2-5H2,1H3,(H,7,8)

> <InChI Key_QSARr>
FUZZWVXGSFPDMH-UHFFFAOYSA-N

> <Salt_Solvent>


> <Salt_Solvent_ID>
0

> <MPID>
99553

> <KocRef>
Schuurmann-Main

> <LogKOC>
1.46

> <Tr_1_Tst_0>
1

$$$$
100279
  Mrv171c012251911022D          

 10  9  0  0  0  0            999 V2000
    0.0045   -0.4123    0.0000 C   0  0  0  0  0  0  0  0  0  0  0  0
    0.7189    0.0002    0.0000 C   0  0  0  0  0  0  0  0  0  0  0  0
    1.4334   -0.4123    0.0000 C   0  0  0  0  0  0  0  0  0  0  0  0
    2.1479    0.0002    0.0000 C   0  0  0  0  0  0  0  0  0  0  0  0
    2.8624   -0.4123    0.0000 C   0  0  0  0  0  0  0  0  0  0  0  0
    3.5768    0.0002    0.0000 C   0  0  0  0  0  0  0  0  0  0  0  0
    4.2913   -0.4123    0.0000 C   0  0  0  0  0  0  0  0  0  0  0  0
    5.0058    0.0002    0.0000 C   0  0  0  0  0  0  0  0  0  0  0  0
    5.7202   -0.4123    0.0000 C   0  0  0  0  0  0  0  0  0  0  0  0
    6.4347    0.0002    0.0000 O   0  0  0  0  0  0  0  0  0  0  0  0
  1  2  1  0  0  0  0
  2  3  1  0  0  0  0
  3  4  1  0  0  0  0
  4  5  1  0  0  0  0
  5  6  1  0  0  0  0
  6  7  1  0  0  0  0
  7  8  1  0  0  0  0
  8  9  1  0  0  0  0
  9 10  1  0  0  0  0
M  END
> <ChemID>
100279

> <CAS>
143-08-8

> <Original_SMILES>
CCCCCCCCCO

> <preferred_name>
1-Nonanol

> <dsstox_substance_id>
DTXSID6022008

> <dsstox_compound_id>
DTXCID402008

> <qc_level>
DSSTox_Low

> <Canonical_QSARr>
CCCCCCCCCO

> <InChI_Code_QSARr>
InChI=1S/C9H20O/c1-2-3-4-5-6-7-8-9-10/h10H,2-9H2,1H3

> <InChI Key_QSARr>
ZWRUINPWMLAQRD-UHFFFAOYSA-N

> <Salt_Solvent>


> <Salt_Solvent_ID>
0

> <MPID>
99554

> <KocRef>
Schuurmann-Main

> <LogKOC>
1.89

> <Tr_1_Tst_0>
0

$$$$
100280
  Mrv171c012251911022D          

 21 25  0  0  0  0            999 V2000
    2.0825   -0.3631    0.0000 C   0  0  0  0  0  0  0  0  0  0  0  0
    2.3411    0.4203    0.0000 Cl  0  0  0  0  0  0  0  0  0  0  0  0
    2.1167   -1.0020    0.0000 C   0  0  0  0  0  0  0  0  0  0  0  0
    2.2031   -2.0722    0.0000 C   0  0  0  0  0  0  0  0  0  0  0  0
    2.7303   -1.8159    0.0000 C   0  0  0  0  0  0  0  0  0  0  0  0
    1.6622   -1.9816    0.0000 C   0  0  0  0  0  0  0  0  0  0  0  0
    1.2236   -2.6803    0.0000 Cl  0  0  0  0  0  0  0  0  0  0  0  0
    1.8328   -1.3826    0.0000 C   0  0  0  0  0  0  0  0  0  0  0  0
    0.8041   -1.3317    0.0000 C   0  0  0  0  0  0  0  0  0  0  0  0
    1.1335   -0.4697    0.0000 C   0  0  0  0  0  0  0  0  0  0  0  0
    0.6284    0.1826    0.0000 Cl  0  0  0  0  0  0  0  0  0  0  0  0
    1.3778   -1.0490    0.0000 C   0  0  0  0  0  0  0  0  0  0  0  0
    0.9154   -1.7323    0.0000 Cl  0  0  0  0  0  0  0  0  0  0  0  0
    0.4782   -2.0896    0.0000 Cl  0  0  0  0  0  0  0  0  0  0  0  0
   -0.0209   -1.3248    0.0000 Cl  0  0  0  0  0  0  0  0  0  0  0  0
    1.6723   -0.5733    0.0000 Cl  0  0  0  0  0  0  0  0  0  0  0  0
    2.7252   -0.9614    0.0000 C   0  0  0  0  0  0  0  0  0  0  0  0
    3.5404   -1.0883    0.0000 Cl  0  0  0  0  0  0  0  0  0  0  0  0
    3.4310   -2.2515    0.0000 Cl  0  0  0  0  0  0  0  0  0  0  0  0
    1.7939   -2.7886    0.0000 O   0  0  0  0  0  0  0  0  0  0  0  0
    2.9167   -1.2038    0.0000 Cl  0  0  0  0  0  0  0  0  0  0  0  0
  1  2  1  0  0  0  0
  3  1  1  0  0  0  0
  3  4  1  0  0  0  0
  4  5  1  0  0  0  0
  5  6  1  0  0  0  0
  6  7  1  0  0  0  0
  8  6  1  0  0  0  0
  9  8  1  0  0  0  0
 10  9  1  0  0  0  0
 10  1  1  0  0  0  0
 10 11  1  0  0  0  0
 12 10  1  0  0  0  0
 12  3  1  0  0  0  0
  6 12  1  0  0  0  0
 12 13  1  0  0  0  0
  9 14  1  0  0  0  0
  9 15  1  0  0  0  0
  8 16  1  0  0  0  0
  8 17  1  0  0  0  0
  1 17  1  0  0  0  0
 17  5  1  0  0  0  0
 17 18  1  0  0  0  0
  5 19  1  0  0  0  0
  4 20  2  0  0  0  0
  3 21  1  0  0  0  0
M  END
> <ChemID>
100280

> <CAS>
143-50-0

> <Original_SMILES>
O=C1C2(Cl)C3(Cl)C4(Cl)C2(Cl)C2(Cl)C(Cl)(C3(Cl)C21Cl)C4(Cl)Cl

> <preferred_name>
Kepone

> <dsstox_substance_id>
DTXSID1020770

> <dsstox_compound_id>
DTXCID10770

> <qc_level>
DSSTox_Low

> <Canonical_QSARr>
O=C1C2(Cl)C3(Cl)C4(Cl)C2(Cl)C2(Cl)C(Cl)(C3(Cl)C21Cl)C4(Cl)Cl

> <InChI_Code_QSARr>
InChI=1S/C10Cl10O/c11-2-1(21)3(12)6(15)4(2,13)8(17)5(2,14)7(3,16)9(6,18)10(8,19)20

> <InChI Key_QSARr>
LHHGDZSESBACKH-UHFFFAOYSA-N

> <Salt_Solvent>


> <Salt_Solvent_ID>
0

> <MPID>
99555

> <KocRef>
Schuurmann-Main

> <LogKOC>
4.2

> <Tr_1_Tst_0>
1

$$$$
100281
  Mrv171c012251911022D          

  5  4  0  0  0  0            999 V2000
    0.0000   -0.8250    0.0000 O   0  0  0  0  0  0  0  0  0  0  0  0
    0.0000    0.0000    0.0000 As  0  0  0  0  0  0  0  0  0  0  0  0
    0.0000    0.8250    0.0000 C   0  0  0  0  0  0  0  0  0  0  0  0
    0.8250   -0.0000    0.0000 O   0  0  0  0  0  0  0  0  0  0  0  0
   -0.8250    0.0000    0.0000 O   0  0  0  0  0  0  0  0  0  0  0  0
  1  2  1  0  0  0  0
  2  3  1  0  0  0  0
  2  4  1  0  0  0  0
  2  5  2  0  0  0  0
M  END
> <ChemID>
100281

> <CAS>
144-21-8|2163-80-6

> <Original_SMILES>
[Na+].[Na+].C[As]([O-])([O-])=O

> <preferred_name>
Disodium methanearsonate|Monosodium methanearsonate

> <dsstox_substance_id>
DTXSID4032665|DTXSID2025686

> <dsstox_compound_id>
DTXCID2012665|DTXCID505686

> <qc_level>
DSSTox_Low

> <Canonical_QSARr>
C[As](O)(O)=O

> <InChI_Code_QSARr>
InChI=1S/CH5AsO3/c1-2(3,4)5/h1H3,(H2,3,4,5)

> <InChI Key_QSARr>
QYPPRTNMGCREIM-UHFFFAOYSA-N

> <Salt_Solvent>
[Na+]

> <Salt_Solvent_ID>
110

> <MPID>
99556|99730

> <KocRef>
USDA Pest Prop DB

> <LogKOC>
3.315

> <Tr_1_Tst_0>
1

$$$$
100282
  Mrv171c012251911022D          

 13 14  0  0  0  0            999 V2000
    1.5452   -1.2377    0.0000 C   0  0  0  0  0  0  0  0  0  0  0  0
    0.8307   -0.8252    0.0000 C   0  0  0  0  0  0  0  0  0  0  0  0
    0.1162   -1.2377    0.0000 O   0  0  0  0  0  0  0  0  0  0  0  0
    0.8307   -0.0002    0.0000 O   0  0  0  0  0  0  0  0  0  0  0  0
    2.2596   -0.8252    0.0000 C   0  0  0  0  0  0  0  0  0  0  0  0
    2.9741   -1.2377    0.0000 C   0  0  0  0  0  0  0  0  0  0  0  0
    2.9741   -2.0627    0.0000 C   0  0  0  0  0  0  0  0  0  0  0  0
    2.2596   -2.4752    0.0000 C   0  0  0  0  0  0  0  0  0  0  0  0
    2.0534   -1.6502    0.0000 O   0  0  0  0  0  0  0  0  0  0  0  0
    1.5452   -2.0627    0.0000 C   0  0  0  0  0  0  0  0  0  0  0  0
    0.8307   -2.4752    0.0000 C   0  0  0  0  0  0  0  0  0  0  0  0
    0.1162   -2.0627    0.0000 O   0  0  0  0  0  0  0  0  0  0  0  0
    0.8307   -3.3002    0.0000 O   0  0  0  0  0  0  0  0  0  0  0  0
  1  2  1  0  0  0  0
  2  3  1  0  0  0  0
  2  4  2  0  0  0  0
  5  1  1  0  0  0  0
  5  6  1  0  0  0  0
  6  7  1  0  0  0  0
  7  8  1  0  0  0  0
  8  9  1  0  0  0  0
  9  5  1  0  0  0  0
 10  8  1  0  0  0  0
  1 10  1  0  0  0  0
 10 11  1  0  0  0  0
 11 12  1  0  0  0  0
 11 13  2  0  0  0  0
M  END
> <ChemID>
100282

> <CAS>
145-73-3

> <Original_SMILES>
OC(=O)C1C(C2CCC1O2)C(O)=O

> <preferred_name>
Endothal

> <dsstox_substance_id>
DTXSID7024081

> <dsstox_compound_id>
DTXCID204081

> <qc_level>
DSSTox_High

> <Canonical_QSARr>
OC(=O)C1C(C2CCC1O2)C(O)=O

> <InChI_Code_QSARr>
InChI=1S/C8H10O5/c9-7(10)5-3-1-2-4(13-3)6(5)8(11)12/h3-6H,1-2H2,(H,9,10)(H,11,12)

> <InChI Key_QSARr>
GXEKYRXVRROBEV-UHFFFAOYSA-N

> <Salt_Solvent>


> <Salt_Solvent_ID>
0

> <MPID>
99557

> <KocRef>
Schuurmann-Main

> <LogKOC>
2.09

> <Tr_1_Tst_0>
1

$$$$
100283
  Mrv171c012251911022D          

 14 16  0  0  0  0            999 V2000
    2.5813   -0.1575    0.0000 N   0  0  0  0  0  0  0  0  0  0  0  0
    3.3659   -0.4124    0.0000 C   0  0  0  0  0  0  0  0  0  0  0  0
    4.0804    0.0001    0.0000 C   0  0  0  0  0  0  0  0  0  0  0  0
    4.7949   -0.4124    0.0000 C   0  0  0  0  0  0  0  0  0  0  0  0
    4.7949   -1.2374    0.0000 C   0  0  0  0  0  0  0  0  0  0  0  0
    4.0804   -1.6499    0.0000 C   0  0  0  0  0  0  0  0  0  0  0  0
    3.3659   -1.2374    0.0000 C   0  0  0  0  0  0  0  0  0  0  0  0
    2.5813   -1.4924    0.0000 N   0  0  0  0  0  0  0  0  0  0  0  0
    2.0964   -0.8249    0.0000 C   0  0  0  0  0  0  0  0  0  0  0  0
    1.2714   -0.8249    0.0000 C   0  0  0  0  0  0  0  0  0  0  0  0
    0.7864   -0.1575    0.0000 N   0  0  0  0  0  0  0  0  0  0  0  0
    0.0018   -0.4124    0.0000 C   0  0  0  0  0  0  0  0  0  0  0  0
    0.0018   -1.2374    0.0000 S   0  0  0  0  0  0  0  0  0  0  0  0
    0.7864   -1.4924    0.0000 C   0  0  0  0  0  0  0  0  0  0  0  0
  2  1  1  0  0  0  0
  2  3  1  0  0  0  0
  3  4  2  0  0  0  0
  4  5  1  0  0  0  0
  5  6  2  0  0  0  0
  6  7  1  0  0  0  0
  7  2  2  0  0  0  0
  8  7  1  0  0  0  0
  9  8  2  0  0  0  0
  1  9  1  0  0  0  0
  9 10  1  0  0  0  0
 11 10  1  0  0  0  0
 12 11  2  0  0  0  0
 13 12  1  0  0  0  0
 14 13  1  0  0  0  0
 10 14  2  0  0  0  0
M  END
> <ChemID>
100283

> <CAS>
148-79-8

> <Original_SMILES>
c1[n]c(c[s]1)-c1[nH]c2ccccc2[n]1

> <preferred_name>
Thiabendazole

> <dsstox_substance_id>
DTXSID0021337

> <dsstox_compound_id>
DTXCID401337

> <qc_level>
DSSTox_Low

> <Canonical_QSARr>
C1=NC(=CS1)C1NC2C=CC=CC=2N=1

> <InChI_Code_QSARr>
InChI=1S/C10H7N3S/c1-2-4-8-7(3-1)12-10(13-8)9-5-14-6-11-9/h1-6H,(H,12,13)

> <InChI Key_QSARr>
WJCNZQLZVWNLKY-UHFFFAOYSA-N

> <Salt_Solvent>


> <Salt_Solvent_ID>
0

> <MPID>
99558

> <KocRef>
Schuurmann-Main

> <LogKOC>
3.24

> <Tr_1_Tst_0>
1

$$$$
100284
  Mrv171c012251911022D          

 10 11  0  0  0  0            999 V2000
   -0.0016   -0.8236    0.0000 S   0  0  0  0  0  0  0  0  0  0  0  0
    0.8234   -0.8236    0.0000 C   0  0  0  0  0  0  0  0  0  0  0  0
    1.3084   -0.1562    0.0000 S   0  0  0  0  0  0  0  0  0  0  0  0
    2.0930   -0.4111    0.0000 C   0  0  0  0  0  0  0  0  0  0  0  0
    2.8075    0.0014    0.0000 C   0  0  0  0  0  0  0  0  0  0  0  0
    3.5219   -0.4111    0.0000 C   0  0  0  0  0  0  0  0  0  0  0  0
    3.5219   -1.2361    0.0000 C   0  0  0  0  0  0  0  0  0  0  0  0
    2.8075   -1.6486    0.0000 C   0  0  0  0  0  0  0  0  0  0  0  0
    2.0930   -1.2361    0.0000 C   0  0  0  0  0  0  0  0  0  0  0  0
    1.3084   -1.4911    0.0000 N   0  0  0  0  0  0  0  0  0  0  0  0
  1  2  1  0  0  0  0
  3  2  1  0  0  0  0
  4  3  1  0  0  0  0
  4  5  1  0  0  0  0
  5  6  2  0  0  0  0
  6  7  1  0  0  0  0
  7  8  2  0  0  0  0
  8  9  1  0  0  0  0
  9  4  2  0  0  0  0
 10  9  1  0  0  0  0
  2 10  2  0  0  0  0
M  END
> <ChemID>
100284

> <CAS>
149-30-4

> <Original_SMILES>
Sc1[n]c2ccccc2[s]1

> <preferred_name>
2-Mercaptobenzothiazole

> <dsstox_substance_id>
DTXSID1020807

> <dsstox_compound_id>
DTXCID90807

> <qc_level>
DSSTox_High

> <Canonical_QSARr>
SC1=NC2C=CC=CC=2S1

> <InChI_Code_QSARr>
InChI=1S/C7H5NS2/c9-7-8-5-3-1-2-4-6(5)10-7/h1-4H,(H,8,9)

> <InChI Key_QSARr>
YXIWHUQXZSMYRE-UHFFFAOYSA-N

> <Salt_Solvent>


> <Salt_Solvent_ID>
0

> <MPID>
99559

> <KocRef>
Schuurmann-Main

> <LogKOC>
2.25

> <Tr_1_Tst_0>
0

$$$$
100285
  Mrv171c012251911022D          

 10 10  0  0  0  0            999 V2000
    0.9322   -2.3640    0.0000 O   0  0  0  0  0  0  0  0  0  0  0  0
    1.6467   -1.9515    0.0000 C   0  0  0  0  0  0  0  0  0  0  0  0
    1.6467   -1.1265    0.0000 C   0  0  0  0  0  0  0  0  0  0  0  0
    2.3611   -0.7140    0.0000 C   0  0  0  0  0  0  0  0  0  0  0  0
    2.3611    0.1110    0.0000 C   0  0  0  0  0  0  0  0  0  0  0  0
    1.6467    0.5235    0.0000 C   0  0  0  0  0  0  0  0  0  0  0  0
    1.6467    1.3485    0.0000 N   0  0  0  0  0  0  0  0  0  0  0  0
    0.9322    0.1110    0.0000 C   0  0  0  0  0  0  0  0  0  0  0  0
    0.9322   -0.7140    0.0000 C   0  0  0  0  0  0  0  0  0  0  0  0
    2.3611   -2.3640    0.0000 O   0  0  0  0  0  0  0  0  0  0  0  0
  1  2  2  0  0  0  0
  2  3  1  0  0  0  0
  4  3  1  0  0  0  0
  5  4  2  0  0  0  0
  6  5  1  0  0  0  0
  6  7  1  0  0  0  0
  8  6  2  0  0  0  0
  9  8  1  0  0  0  0
  3  9  2  0  0  0  0
  2 10  1  0  0  0  0
M  END
> <ChemID>
100285

> <CAS>
150-13-0

> <Original_SMILES>
Nc1ccc(cc1)C(O)=O

> <preferred_name>
4-Aminobenzoic acid

> <dsstox_substance_id>
DTXSID6024466

> <dsstox_compound_id>
DTXCID404466

> <qc_level>
DSSTox_Low

> <Canonical_QSARr>
NC1=CC=C(C=C1)C(O)=O

> <InChI_Code_QSARr>
InChI=1S/C7H7NO2/c8-6-3-1-5(2-4-6)7(9)10/h1-4H,8H2,(H,9,10)

> <InChI Key_QSARr>
ALYNCZNDIQEVRV-UHFFFAOYSA-N

> <Salt_Solvent>


> <Salt_Solvent_ID>
0

> <MPID>
99560

> <KocRef>
Baker-Data

> <LogKOC>
2.5

> <Tr_1_Tst_0>
1

$$$$
100286
  Mrv171c012251911022D          

  9  9  0  0  0  0            999 V2000
    0.7139   -2.2010    0.0000 O   0  0  0  0  0  0  0  0  0  0  0  0
    1.4284   -1.7885    0.0000 C   0  0  0  0  0  0  0  0  0  0  0  0
    2.1429   -2.2010    0.0000 C   0  0  0  0  0  0  0  0  0  0  0  0
    2.8573   -1.7885    0.0000 C   0  0  0  0  0  0  0  0  0  0  0  0
    2.8573   -0.9635    0.0000 C   0  0  0  0  0  0  0  0  0  0  0  0
    2.1429   -0.5510    0.0000 C   0  0  0  0  0  0  0  0  0  0  0  0
    2.1429    0.2740    0.0000 O   0  0  0  0  0  0  0  0  0  0  0  0
    1.4284    0.6865    0.0000 C   0  0  0  0  0  0  0  0  0  0  0  0
    1.4284   -0.9635    0.0000 C   0  0  0  0  0  0  0  0  0  0  0  0
  1  2  1  0  0  0  0
  3  2  1  0  0  0  0
  4  3  2  0  0  0  0
  5  4  1  0  0  0  0
  6  5  2  0  0  0  0
  6  7  1  0  0  0  0
  7  8  1  0  0  0  0
  9  6  1  0  0  0  0
  2  9  2  0  0  0  0
M  END
> <ChemID>
100286

> <CAS>
150-19-6

> <Original_SMILES>
COc1cccc(O)c1

> <preferred_name>
3-Methoxyphenol

> <dsstox_substance_id>
DTXSID0022012

> <dsstox_compound_id>
DTXCID302012

> <qc_level>
DSSTox_Low

> <Canonical_QSARr>
COC1C=C(O)C=CC=1

> <InChI_Code_QSARr>
InChI=1S/C7H8O2/c1-9-7-4-2-3-6(8)5-7/h2-5,8H,1H3

> <InChI Key_QSARr>
ASHGTJPOSUFTGB-UHFFFAOYSA-N

> <Salt_Solvent>


> <Salt_Solvent_ID>
0

> <MPID>
99561

> <KocRef>
Schuurmann-Main

> <LogKOC>
1.5

> <Tr_1_Tst_0>
1

$$$$
100287
  Mrv171c012251911022D          

 13 13  0  0  0  0            999 V2000
    3.3786   -1.7317    0.0000 O   0  0  0  0  0  0  0  0  0  0  0  0
    2.6641   -2.1442    0.0000 C   0  0  0  0  0  0  0  0  0  0  0  0
    1.9496   -1.7317    0.0000 N   0  0  0  0  0  0  0  0  0  0  0  0
    1.9496   -0.9067    0.0000 C   0  0  0  0  0  0  0  0  0  0  0  0
    2.6641   -0.4942    0.0000 C   0  0  0  0  0  0  0  0  0  0  0  0
    2.6641    0.3308    0.0000 C   0  0  0  0  0  0  0  0  0  0  0  0
    1.9496    0.7433    0.0000 C   0  0  0  0  0  0  0  0  0  0  0  0
    1.9496    1.5683    0.0000 Cl  0  0  0  0  0  0  0  0  0  0  0  0
    1.2351    0.3308    0.0000 C   0  0  0  0  0  0  0  0  0  0  0  0
    1.2351   -0.4942    0.0000 C   0  0  0  0  0  0  0  0  0  0  0  0
    2.6641   -2.9692    0.0000 N   0  0  0  0  0  0  0  0  0  0  0  0
    3.3786   -3.3817    0.0000 C   0  0  0  0  0  0  0  0  0  0  0  0
    1.9496   -3.3817    0.0000 C   0  0  0  0  0  0  0  0  0  0  0  0
  1  2  2  0  0  0  0
  2  3  1  0  0  0  0
  3  4  1  0  0  0  0
  5  4  1  0  0  0  0
  6  5  2  0  0  0  0
  7  6  1  0  0  0  0
  7  8  1  0  0  0  0
  9  7  2  0  0  0  0
 10  9  1  0  0  0  0
  4 10  2  0  0  0  0
  2 11  1  0  0  0  0
 11 12  1  0  0  0  0
 11 13  1  0  0  0  0
M  END
> <ChemID>
100287

> <CAS>
150-68-5

> <Original_SMILES>
CN(C)C(=O)Nc1ccc(Cl)cc1

> <preferred_name>
Monuron

> <dsstox_substance_id>
DTXSID0020311

> <dsstox_compound_id>
DTXCID80311

> <qc_level>
DSSTox_Low

> <Canonical_QSARr>
CN(C)C(=O)NC1C=CC(Cl)=CC=1

> <InChI_Code_QSARr>
InChI=1S/C9H11ClN2O/c1-12(2)9(13)11-8-5-3-7(10)4-6-8/h3-6H,1-2H3,(H,11,13)

> <InChI Key_QSARr>
BMLIZLVNXIYGCK-UHFFFAOYSA-N

> <Salt_Solvent>


> <Salt_Solvent_ID>
0

> <MPID>
99562

> <KocRef>
Schuurmann-Main

> <LogKOC>
1.95

> <Tr_1_Tst_0>
1

$$$$
100288
  Mrv171c012251911022D          

  3  3  0  0  0  0            999 V2000
    0.8250   -0.7145    0.0000 C   0  0  0  0  0  0  0  0  0  0  0  0
    0.4125   -0.0000    0.0000 N   0  0  0  0  0  0  0  0  0  0  0  0
   -0.0000   -0.7145    0.0000 C   0  0  0  0  0  0  0  0  0  0  0  0
  2  1  1  0  0  0  0
  3  2  1  0  0  0  0
  1  3  1  0  0  0  0
M  END
> <ChemID>
100288

> <CAS>
151-56-4

> <Original_SMILES>
C1CN1

> <preferred_name>
Ethyleneimine

> <dsstox_substance_id>
DTXSID8020599

> <dsstox_compound_id>
DTXCID00599

> <qc_level>
DSSTox_Low

> <Canonical_QSARr>
C1CN1

> <InChI_Code_QSARr>
InChI=1S/C2H5N/c1-2-3-1/h3H,1-2H2

> <InChI Key_QSARr>
NOWKCMXCCJGMRR-UHFFFAOYSA-N

> <Salt_Solvent>


> <Salt_Solvent_ID>
0

> <MPID>
99563

> <KocRef>
Schuurmann-Main

> <LogKOC>
0.78

> <Tr_1_Tst_0>
0

$$$$
100289
  Mrv171c012251911022D          

 21 23  0  0  0  0            999 V2000
    2.1478   -2.4809    0.0000 C   0  0  0  0  0  0  0  0  0  0  0  0
    1.4334   -2.0684    0.0000 C   0  0  0  0  0  0  0  0  0  0  0  0
    0.7189   -2.4809    0.0000 C   0  0  0  0  0  0  0  0  0  0  0  0
    0.0044   -2.0684    0.0000 O   0  0  0  0  0  0  0  0  0  0  0  0
    0.7189   -3.3059    0.0000 C   0  0  0  0  0  0  0  0  0  0  0  0
    1.4334   -3.7184    0.0000 C   0  0  0  0  0  0  0  0  0  0  0  0
    1.4334   -4.5434    0.0000 O   0  0  0  0  0  0  0  0  0  0  0  0
    2.1478   -3.3059    0.0000 C   0  0  0  0  0  0  0  0  0  0  0  0
    2.8623   -3.7184    0.0000 C   0  0  0  0  0  0  0  0  0  0  0  0
    3.5768   -3.3059    0.0000 C   0  0  0  0  0  0  0  0  0  0  0  0
    4.2913   -3.7184    0.0000 O   0  0  0  0  0  0  0  0  0  0  0  0
    3.5768   -2.4809    0.0000 C   0  0  0  0  0  0  0  0  0  0  0  0
    4.2913   -2.0684    0.0000 C   0  0  0  0  0  0  0  0  0  0  0  0
    5.0057   -2.4809    0.0000 C   0  0  0  0  0  0  0  0  0  0  0  0
    5.7202   -2.0684    0.0000 C   0  0  0  0  0  0  0  0  0  0  0  0
    5.7202   -1.2434    0.0000 C   0  0  0  0  0  0  0  0  0  0  0  0
    6.4347   -0.8309    0.0000 O   0  0  0  0  0  0  0  0  0  0  0  0
    5.0057   -0.8309    0.0000 C   0  0  0  0  0  0  0  0  0  0  0  0
    5.0057   -0.0059    0.0000 O   0  0  0  0  0  0  0  0  0  0  0  0
    4.2913   -1.2434    0.0000 C   0  0  0  0  0  0  0  0  0  0  0  0
    2.8623   -2.0684    0.0000 O   0  0  0  0  0  0  0  0  0  0  0  0
  2  1  1  0  0  0  0
  3  2  2  0  0  0  0
  3  4  1  0  0  0  0
  5  3  1  0  0  0  0
  6  5  2  0  0  0  0
  6  7  1  0  0  0  0
  8  6  1  0  0  0  0
  8  1  2  0  0  0  0
  9  8  1  0  0  0  0
 10  9  1  0  0  0  0
 10 11  1  0  0  0  0
 12 10  1  0  0  0  0
 12 13  1  0  0  0  0
 14 13  1  0  0  0  0
 15 14  2  0  0  0  0
 16 15  1  0  0  0  0
 16 17  1  0  0  0  0
 18 16  2  0  0  0  0
 18 19  1  0  0  0  0
 20 18  1  0  0  0  0
 13 20  2  0  0  0  0
 21 12  1  0  0  0  0
  1 21  1  0  0  0  0
M  END
> <ChemID>
100289

> <CAS>
154-23-4

> <Original_SMILES>
O[C@H]1Cc2c(cc(O)cc2O)O[C@@H]1c1cc(O)c(O)cc1

> <preferred_name>
Cianidanol

> <dsstox_substance_id>
DTXSID3022322

> <dsstox_compound_id>
DTXCID202322

> <qc_level>
DSSTox_High

> <Canonical_QSARr>
OC1CC2=C(C=C(O)C=C2O)OC1C1=CC(O)=C(O)C=C1

> <InChI_Code_QSARr>
InChI=1S/C15H14O6/c16-8-4-11(18)9-6-13(20)15(21-14(9)5-8)7-1-2-10(17)12(19)3-7/h1-5,13,15-20H,6H2

> <InChI Key_QSARr>
PFTAWBLQPZVEMU-UHFFFAOYSA-N

> <Salt_Solvent>


> <Salt_Solvent_ID>
0

> <MPID>
99564

> <KocRef>
Schuurmann-Main

> <LogKOC>
2.03

> <Tr_1_Tst_0>
1

$$$$
100290
  Mrv171c012251911022D          

 24 29  0  0  0  0            999 V2000
    1.4586    0.9355    0.0000 C   0  0  0  0  0  0  0  0  0  0  0  0
    1.8711    1.6500    0.0000 C   0  0  0  0  0  0  0  0  0  0  0  0
    1.4586    2.3645    0.0000 C   0  0  0  0  0  0  0  0  0  0  0  0
    0.6336    2.3645    0.0000 C   0  0  0  0  0  0  0  0  0  0  0  0
    0.2211    1.6500    0.0000 C   0  0  0  0  0  0  0  0  0  0  0  0
   -0.6039    1.6500    0.0000 C   0  0  0  0  0  0  0  0  0  0  0  0
   -1.0164    2.3645    0.0000 C   0  0  0  0  0  0  0  0  0  0  0  0
   -1.8414    2.3645    0.0000 C   0  0  0  0  0  0  0  0  0  0  0  0
   -2.2539    1.6500    0.0000 C   0  0  0  0  0  0  0  0  0  0  0  0
   -1.8414    0.9355    0.0000 C   0  0  0  0  0  0  0  0  0  0  0  0
   -1.0164    0.9355    0.0000 C   0  0  0  0  0  0  0  0  0  0  0  0
   -0.6039    0.2211    0.0000 C   0  0  0  0  0  0  0  0  0  0  0  0
    0.2211    0.2211    0.0000 C   0  0  0  0  0  0  0  0  0  0  0  0
    0.6336   -0.4934    0.0000 C   0  0  0  0  0  0  0  0  0  0  0  0
    1.4586   -0.4934    0.0000 C   0  0  0  0  0  0  0  0  0  0  0  0
    1.8711    0.2211    0.0000 C   0  0  0  0  0  0  0  0  0  0  0  0
    2.6961    0.2211    0.0000 C   0  0  0  0  0  0  0  0  0  0  0  0
    3.1086    0.9355    0.0000 C   0  0  0  0  0  0  0  0  0  0  0  0
    3.9336    0.9355    0.0000 C   0  0  0  0  0  0  0  0  0  0  0  0
    4.3461    1.6500    0.0000 C   0  0  0  0  0  0  0  0  0  0  0  0
    3.9336    2.3645    0.0000 C   0  0  0  0  0  0  0  0  0  0  0  0
    3.1086    2.3645    0.0000 C   0  0  0  0  0  0  0  0  0  0  0  0
    2.6961    1.6500    0.0000 C   0  0  0  0  0  0  0  0  0  0  0  0
    0.6336    0.9355    0.0000 C   0  0  0  0  0  0  0  0  0  0  0  0
  2  1  1  0  0  0  0
  2  3  2  0  0  0  0
  3  4  1  0  0  0  0
  4  5  2  0  0  0  0
  5  6  1  0  0  0  0
  7  6  2  0  0  0  0
  8  7  1  0  0  0  0
  9  8  2  0  0  0  0
 10  9  1  0  0  0  0
 11 10  2  0  0  0  0
  6 11  1  0  0  0  0
 11 12  1  0  0  0  0
 12 13  2  0  0  0  0
 13 14  1  0  0  0  0
 14 15  2  0  0  0  0
 15 16  1  0  0  0  0
 16  1  1  0  0  0  0
 16 17  2  0  0  0  0
 17 18  1  0  0  0  0
 19 18  2  0  0  0  0
 20 19  1  0  0  0  0
 21 20  2  0  0  0  0
 22 21  1  0  0  0  0
 23 22  2  0  0  0  0
 18 23  1  0  0  0  0
 23  2  1  0  0  0  0
 13 24  1  0  0  0  0
  1 24  2  0  0  0  0
 24  5  1  0  0  0  0
M  END
> <ChemID>
100290

> <CAS>
189-55-9

> <Original_SMILES>
c1c2ccccc2c2ccc3c4c2c1ccc4cc1ccccc13

> <preferred_name>
Dibenzo[a,i]pyrene

> <dsstox_substance_id>
DTXSID9059751

> <dsstox_compound_id>
DTXCID3035971

> <qc_level>
Public_High

> <Canonical_QSARr>
C1=C2C=CC3=CC4=CC=CC=C4C4=CC=C(C2=C34)C2=CC=CC=C21

> <InChI_Code_QSARr>
InChI=1S/C24H14/c1-3-7-19-15(5-1)13-17-9-10-18-14-16-6-2-4-8-20(16)22-12-11-21(19)23(17)24(18)22/h1-14H

> <InChI Key_QSARr>
TUGYIJVAYAHHHM-UHFFFAOYSA-N

> <Salt_Solvent>


> <Salt_Solvent_ID>
0

> <MPID>
99565

> <KocRef>
Schuurmann-Main

> <LogKOC>
5.71

> <Tr_1_Tst_0>
1

$$$$
100291
  Mrv171c012251911022D          

 22 27  0  0  0  0            999 V2000
    1.6117   -2.4741    0.0000 C   0  0  0  0  0  0  0  0  0  0  0  0
    0.8972   -2.8866    0.0000 C   0  0  0  0  0  0  0  0  0  0  0  0
    0.8972   -3.7116    0.0000 C   0  0  0  0  0  0  0  0  0  0  0  0
    1.6117   -4.1241    0.0000 C   0  0  0  0  0  0  0  0  0  0  0  0
    2.3262   -3.7116    0.0000 C   0  0  0  0  0  0  0  0  0  0  0  0
    3.0406   -4.1241    0.0000 C   0  0  0  0  0  0  0  0  0  0  0  0
    3.7551   -3.7116    0.0000 C   0  0  0  0  0  0  0  0  0  0  0  0
    3.7551   -2.8866    0.0000 C   0  0  0  0  0  0  0  0  0  0  0  0
    4.4696   -2.4741    0.0000 C   0  0  0  0  0  0  0  0  0  0  0  0
    4.4696   -1.6491    0.0000 C   0  0  0  0  0  0  0  0  0  0  0  0
    3.7551   -1.2366    0.0000 C   0  0  0  0  0  0  0  0  0  0  0  0
    3.0406   -1.6491    0.0000 C   0  0  0  0  0  0  0  0  0  0  0  0
    2.3262   -1.2366    0.0000 C   0  0  0  0  0  0  0  0  0  0  0  0
    2.3262   -0.4116    0.0000 C   0  0  0  0  0  0  0  0  0  0  0  0
    1.6117    0.0009    0.0000 C   0  0  0  0  0  0  0  0  0  0  0  0
    0.8972   -0.4116    0.0000 C   0  0  0  0  0  0  0  0  0  0  0  0
    0.8972   -1.2366    0.0000 C   0  0  0  0  0  0  0  0  0  0  0  0
    0.1828   -1.6491    0.0000 C   0  0  0  0  0  0  0  0  0  0  0  0
    0.1828   -2.4741    0.0000 C   0  0  0  0  0  0  0  0  0  0  0  0
    1.6117   -1.6491    0.0000 C   0  0  0  0  0  0  0  0  0  0  0  0
    3.0406   -2.4741    0.0000 C   0  0  0  0  0  0  0  0  0  0  0  0
    2.3262   -2.8866    0.0000 C   0  0  0  0  0  0  0  0  0  0  0  0
  2  1  2  0  0  0  0
  2  3  1  0  0  0  0
  3  4  2  0  0  0  0
  4  5  1  0  0  0  0
  5  6  1  0  0  0  0
  6  7  2  0  0  0  0
  7  8  1  0  0  0  0
  9  8  1  0  0  0  0
 10  9  2  0  0  0  0
 11 10  1  0  0  0  0
 12 11  2  0  0  0  0
 12 13  1  0  0  0  0
 14 13  1  0  0  0  0
 15 14  2  0  0  0  0
 16 15  1  0  0  0  0
 17 16  2  0  0  0  0
 17 18  1  0  0  0  0
 18 19  2  0  0  0  0
 19  2  1  0  0  0  0
 20 17  1  0  0  0  0
 13 20  2  0  0  0  0
 20  1  1  0  0  0  0
 21 12  1  0  0  0  0
  8 21  2  0  0  0  0
 21 22  1  0  0  0  0
  1 22  1  0  0  0  0
 22  5  2  0  0  0  0
M  END
> <ChemID>
100291

> <CAS>
191-24-2

> <Original_SMILES>
c1cc2ccc3cccc4c3c2c2c3c4cccc3ccc21

> <preferred_name>
Benzo(g,h,i)perylene

> <dsstox_substance_id>
DTXSID5023908

> <dsstox_compound_id>
DTXCID303908

> <qc_level>
DSSTox_Low

> <Canonical_QSARr>
C1=CC=C2C=CC3C=CC4C=CC5C=CC=C6C=5C=4C=3C2=C61

> <InChI_Code_QSARr>
InChI=1S/C22H12/c1-3-13-7-9-15-11-12-16-10-8-14-4-2-6-18-17(5-1)19(13)21(15)22(16)20(14)18/h1-12H

> <InChI Key_QSARr>
GYFAGKUZYNFMBN-UHFFFAOYSA-N

> <Salt_Solvent>


> <Salt_Solvent_ID>
0

> <MPID>
99566

> <KocRef>
Schuurmann-Main

> <LogKOC>
4.61

> <Tr_1_Tst_0>
1

$$$$
100292
  Mrv171c012251911022D          

 22 27  0  0  0  0            999 V2000
    3.3875   -1.5481    0.0000 C   0  0  0  0  0  0  0  0  0  0  0  0
    4.0067   -1.0028    0.0000 C   0  0  0  0  0  0  0  0  0  0  0  0
    3.8441   -0.1940    0.0000 C   0  0  0  0  0  0  0  0  0  0  0  0
    3.0623    0.0696    0.0000 C   0  0  0  0  0  0  0  0  0  0  0  0
    2.4432   -0.4757    0.0000 C   0  0  0  0  0  0  0  0  0  0  0  0
    1.6614   -0.2121    0.0000 C   0  0  0  0  0  0  0  0  0  0  0  0
    1.0423   -0.7573    0.0000 C   0  0  0  0  0  0  0  0  0  0  0  0
    1.2049   -1.5662    0.0000 C   0  0  0  0  0  0  0  0  0  0  0  0
    0.5857   -2.1114    0.0000 C   0  0  0  0  0  0  0  0  0  0  0  0
    0.7484   -2.9202    0.0000 C   0  0  0  0  0  0  0  0  0  0  0  0
    1.5301   -3.1838    0.0000 C   0  0  0  0  0  0  0  0  0  0  0  0
    2.1493   -2.6385    0.0000 C   0  0  0  0  0  0  0  0  0  0  0  0
    2.9310   -2.9021    0.0000 C   0  0  0  0  0  0  0  0  0  0  0  0
    3.5502   -2.3569    0.0000 C   0  0  0  0  0  0  0  0  0  0  0  0
    4.3696   -2.4522    0.0000 C   0  0  0  0  0  0  0  0  0  0  0  0
    4.7135   -1.7022    0.0000 C   0  0  0  0  0  0  0  0  0  0  0  0
    5.5349   -1.6250    0.0000 C   0  0  0  0  0  0  0  0  0  0  0  0
    6.0124   -2.2978    0.0000 C   0  0  0  0  0  0  0  0  0  0  0  0
    5.6686   -3.0477    0.0000 C   0  0  0  0  0  0  0  0  0  0  0  0
    4.8472   -3.1249    0.0000 C   0  0  0  0  0  0  0  0  0  0  0  0
    1.9866   -1.8297    0.0000 C   0  0  0  0  0  0  0  0  0  0  0  0
    2.6058   -1.2845    0.0000 C   0  0  0  0  0  0  0  0  0  0  0  0
  2  1  2  0  0  0  0
  2  3  1  0  0  0  0
  3  4  2  0  0  0  0
  4  5  1  0  0  0  0
  5  6  1  0  0  0  0
  6  7  2  0  0  0  0
  7  8  1  0  0  0  0
  9  8  2  0  0  0  0
 10  9  1  0  0  0  0
 11 10  2  0  0  0  0
 12 11  1  0  0  0  0
 12 13  1  0  0  0  0
 13 14  2  0  0  0  0
 14  1  1  0  0  0  0
 14 15  1  0  0  0  0
 16 15  2  0  0  0  0
 16  2  1  0  0  0  0
 17 16  1  0  0  0  0
 18 17  2  0  0  0  0
 19 18  1  0  0  0  0
 20 19  2  0  0  0  0
 15 20  1  0  0  0  0
 21 12  2  0  0  0  0
  8 21  1  0  0  0  0
 21 22  1  0  0  0  0
  1 22  1  0  0  0  0
 22  5  2  0  0  0  0
M  END
> <ChemID>
100292

> <CAS>
193-39-5

> <Original_SMILES>
c1c2c3c4c5c1cccc5ccc4ccc3-c1ccccc1-2

> <preferred_name>
Indeno(1,2,3-cd)pyrene

> <dsstox_substance_id>
DTXSID8024153

> <dsstox_compound_id>
DTXCID304153

> <qc_level>
DSSTox_Low

> <Canonical_QSARr>
C1=C2C3C4C5C(C=CC=4C=CC=3C3C=CC=CC=32)=CC=CC=51

> <InChI_Code_QSARr>
InChI=1S/C22H12/c1-2-7-17-16(6-1)18-11-10-14-9-8-13-4-3-5-15-12-19(17)22(18)21(14)20(13)15/h1-12H

> <InChI Key_QSARr>
SXQBHARYMNFBPS-UHFFFAOYSA-N

> <Salt_Solvent>


> <Salt_Solvent_ID>
0

> <MPID>
99567

> <KocRef>
Schuurmann-Main

> <LogKOC>
6.2

> <Tr_1_Tst_0>
0

$$$$
100293
  Mrv171c012251911022D          

 21 25  0  0  0  0            999 V2000
   -0.2249   -0.2801    0.0000 C   0  0  0  0  0  0  0  0  0  0  0  0
   -0.8089   -0.8628    0.0000 C   0  0  0  0  0  0  0  0  0  0  0  0
   -0.5962   -1.6600    0.0000 C   0  0  0  0  0  0  0  0  0  0  0  0
   -1.1802   -2.2427    0.0000 C   0  0  0  0  0  0  0  0  0  0  0  0
   -0.9675   -3.0398    0.0000 C   0  0  0  0  0  0  0  0  0  0  0  0
   -0.1708   -3.2542    0.0000 C   0  0  0  0  0  0  0  0  0  0  0  0
    0.2029   -3.9897    0.0000 N   0  0  0  0  0  0  0  0  0  0  0  0
    1.0179   -3.8615    0.0000 C   0  0  0  0  0  0  0  0  0  0  0  0
    1.1478   -3.0468    0.0000 C   0  0  0  0  0  0  0  0  0  0  0  0
    1.9183   -2.7519    0.0000 C   0  0  0  0  0  0  0  0  0  0  0  0
    2.5589   -3.2718    0.0000 C   0  0  0  0  0  0  0  0  0  0  0  0
    2.4290   -4.0865    0.0000 C   0  0  0  0  0  0  0  0  0  0  0  0
    1.6585   -4.3813    0.0000 C   0  0  0  0  0  0  0  0  0  0  0  0
    3.3295   -2.9769    0.0000 C   0  0  0  0  0  0  0  0  0  0  0  0
    3.4594   -2.1622    0.0000 C   0  0  0  0  0  0  0  0  0  0  0  0
    2.8188   -1.6424    0.0000 C   0  0  0  0  0  0  0  0  0  0  0  0
    2.0483   -1.9372    0.0000 C   0  0  0  0  0  0  0  0  0  0  0  0
    0.4131   -2.6714    0.0000 C   0  0  0  0  0  0  0  0  0  0  0  0
    0.2005   -1.8743    0.0000 C   0  0  0  0  0  0  0  0  0  0  0  0
    0.7844   -1.2916    0.0000 C   0  0  0  0  0  0  0  0  0  0  0  0
    0.5718   -0.4945    0.0000 C   0  0  0  0  0  0  0  0  0  0  0  0
  2  1  1  0  0  0  0
  3  2  2  0  0  0  0
  3  4  1  0  0  0  0
  4  5  2  0  0  0  0
  5  6  1  0  0  0  0
  7  6  1  0  0  0  0
  8  7  1  0  0  0  0
  8  9  2  0  0  0  0
  9 10  1  0  0  0  0
 11 10  1  0  0  0  0
 11 12  1  0  0  0  0
 12 13  2  0  0  0  0
 13  8  1  0  0  0  0
 14 11  2  0  0  0  0
 15 14  1  0  0  0  0
 16 15  2  0  0  0  0
 17 16  1  0  0  0  0
 10 17  2  0  0  0  0
 18  9  1  0  0  0  0
  6 18  2  0  0  0  0
 18 19  1  0  0  0  0
 19  3  1  0  0  0  0
 20 19  2  0  0  0  0
 21 20  1  0  0  0  0
  1 21  2  0  0  0  0
M  END
> <ChemID>
100293

> <CAS>
194-59-2

> <Original_SMILES>
c1cc2[nH]c3ccc4ccccc4c3c2c2ccccc21

> <preferred_name>
7H-Dibenzo[c,g]carbazole

> <dsstox_substance_id>
DTXSID9059755

> <dsstox_compound_id>
DTXCID8036071

> <qc_level>
Public_High

> <Canonical_QSARr>
C1=CC2NC3C=CC4=CC=CC=C4C=3C=2C2=CC=CC=C21

> <InChI_Code_QSARr>
InChI=1S/C20H13N/c1-3-7-15-13(5-1)9-11-17-19(15)20-16-8-4-2-6-14(16)10-12-18(20)21-17/h1-12,21H

> <InChI Key_QSARr>
STJXCDGCXVZHDU-UHFFFAOYSA-N

> <Salt_Solvent>


> <Salt_Solvent_ID>
0

> <MPID>
99568

> <KocRef>
Schuurmann-Main

> <LogKOC>
6.03

> <Tr_1_Tst_0>
1

$$$$
100294
  Mrv171c012251911022D          

 16 19  0  0  0  0            999 V2000
    1.7518   -1.4991    0.0000 C   0  0  0  0  0  0  0  0  0  0  0  0
    2.0068   -2.2837    0.0000 C   0  0  0  0  0  0  0  0  0  0  0  0
    2.8318   -2.2837    0.0000 C   0  0  0  0  0  0  0  0  0  0  0  0
    3.0867   -1.4991    0.0000 C   0  0  0  0  0  0  0  0  0  0  0  0
    2.4193   -1.0142    0.0000 C   0  0  0  0  0  0  0  0  0  0  0  0
    2.3330   -0.1937    0.0000 C   0  0  0  0  0  0  0  0  0  0  0  0
    1.5794    0.1419    0.0000 C   0  0  0  0  0  0  0  0  0  0  0  0
    0.9119   -0.3430    0.0000 C   0  0  0  0  0  0  0  0  0  0  0  0
    0.9449   -1.3276    0.0000 C   0  0  0  0  0  0  0  0  0  0  0  0
    0.3928   -1.9407    0.0000 C   0  0  0  0  0  0  0  0  0  0  0  0
    0.6478   -2.7253    0.0000 C   0  0  0  0  0  0  0  0  0  0  0  0
    1.4547   -2.8968    0.0000 C   0  0  0  0  0  0  0  0  0  0  0  0
    3.8937   -1.3276    0.0000 C   0  0  0  0  0  0  0  0  0  0  0  0
    4.4457   -1.9407    0.0000 C   0  0  0  0  0  0  0  0  0  0  0  0
    4.1908   -2.7253    0.0000 C   0  0  0  0  0  0  0  0  0  0  0  0
    3.3838   -2.8968    0.0000 C   0  0  0  0  0  0  0  0  0  0  0  0
  2  1  1  0  0  0  0
  2  3  1  0  0  0  0
  4  3  2  0  0  0  0
  4  5  1  0  0  0  0
  5  1  2  0  0  0  0
  5  6  1  0  0  0  0
  6  7  2  0  0  0  0
  7  8  1  0  0  0  0
  8  9  2  0  0  0  0
  1  9  1  0  0  0  0
  9 10  1  0  0  0  0
 10 11  2  0  0  0  0
 11 12  1  0  0  0  0
 12  2  2  0  0  0  0
 13  4  1  0  0  0  0
 14 13  2  0  0  0  0
 15 14  1  0  0  0  0
 16 15  2  0  0  0  0
  3 16  1  0  0  0  0
M  END
> <ChemID>
100294

> <CAS>
206-44-0

> <Original_SMILES>
c1ccc2c3c(cccc31)-c1ccccc1-2

> <preferred_name>
Fluoranthene

> <dsstox_substance_id>
DTXSID3024104

> <dsstox_compound_id>
DTXCID204104

> <qc_level>
DSSTox_Low

> <Canonical_QSARr>
C1=CC=C2C3=C(C=CC=C31)C1C=CC=CC=12

> <InChI_Code_QSARr>
InChI=1S/C16H10/c1-2-8-13-12(7-1)14-9-3-5-11-6-4-10-15(13)16(11)14/h1-10H

> <InChI Key_QSARr>
GVEPBJHOBDJJJI-UHFFFAOYSA-N

> <Salt_Solvent>


> <Salt_Solvent_ID>
0

> <MPID>
99569

> <KocRef>
Schuurmann-Main

> <LogKOC>
4.8

> <Tr_1_Tst_0>
1

$$$$
100295
  Mrv171c012251911022D          

 20 24  0  0  0  0            999 V2000
    2.2055   -1.1779    0.0000 C   0  0  0  0  0  0  0  0  0  0  0  0
    1.3841   -1.1007    0.0000 C   0  0  0  0  0  0  0  0  0  0  0  0
    0.9066   -1.7735    0.0000 C   0  0  0  0  0  0  0  0  0  0  0  0
    1.2504   -2.5234    0.0000 C   0  0  0  0  0  0  0  0  0  0  0  0
    2.0718   -2.6006    0.0000 C   0  0  0  0  0  0  0  0  0  0  0  0
    2.5493   -1.9278    0.0000 C   0  0  0  0  0  0  0  0  0  0  0  0
    3.3688   -1.8326    0.0000 C   0  0  0  0  0  0  0  0  0  0  0  0
    3.9880   -2.3778    0.0000 C   0  0  0  0  0  0  0  0  0  0  0  0
    4.7697   -2.1142    0.0000 C   0  0  0  0  0  0  0  0  0  0  0  0
    5.3889   -2.6595    0.0000 C   0  0  0  0  0  0  0  0  0  0  0  0
    6.1706   -2.3959    0.0000 C   0  0  0  0  0  0  0  0  0  0  0  0
    6.3332   -1.5871    0.0000 C   0  0  0  0  0  0  0  0  0  0  0  0
    5.7141   -1.0418    0.0000 C   0  0  0  0  0  0  0  0  0  0  0  0
    4.9323   -1.3054    0.0000 C   0  0  0  0  0  0  0  0  0  0  0  0
    4.3132   -0.7602    0.0000 C   0  0  0  0  0  0  0  0  0  0  0  0
    3.5314   -1.0237    0.0000 C   0  0  0  0  0  0  0  0  0  0  0  0
    2.8125   -0.6191    0.0000 C   0  0  0  0  0  0  0  0  0  0  0  0
    2.6320    0.1859    0.0000 C   0  0  0  0  0  0  0  0  0  0  0  0
    1.8447    0.4322    0.0000 C   0  0  0  0  0  0  0  0  0  0  0  0
    1.2377   -0.1266    0.0000 C   0  0  0  0  0  0  0  0  0  0  0  0
  2  1  1  0  0  0  0
  2  3  2  0  0  0  0
  3  4  1  0  0  0  0
  4  5  2  0  0  0  0
  5  6  1  0  0  0  0
  6  1  2  0  0  0  0
  6  7  1  0  0  0  0
  8  7  1  0  0  0  0
  9  8  2  0  0  0  0
  9 10  1  0  0  0  0
 10 11  2  0  0  0  0
 11 12  1  0  0  0  0
 12 13  2  0  0  0  0
 13 14  1  0  0  0  0
 14  9  1  0  0  0  0
 15 14  2  0  0  0  0
 16 15  1  0  0  0  0
  7 16  2  0  0  0  0
 16 17  1  0  0  0  0
  1 17  1  0  0  0  0
 17 18  2  0  0  0  0
 18 19  1  0  0  0  0
 19 20  2  0  0  0  0
 20  2  1  0  0  0  0
M  END
> <ChemID>
100295

> <CAS>
207-08-9

> <Original_SMILES>
c1c2-c3cccc4cccc(c43)-c2cc2ccccc21

> <preferred_name>
Benzo(k)fluoranthene

> <dsstox_substance_id>
DTXSID0023909

> <dsstox_compound_id>
DTXCID703909

> <qc_level>
DSSTox_Low

> <Canonical_QSARr>
C1C2C3C=CC=C4C=CC=C(C4=3)C=2C=C2C=CC=CC2=1

> <InChI_Code_QSARr>
InChI=1S/C20H12/c1-2-6-15-12-19-17-10-4-8-13-7-3-9-16(20(13)17)18(19)11-14(15)5-1/h1-12H

> <InChI Key_QSARr>
HAXBIWFMXWRORI-UHFFFAOYSA-N

> <Salt_Solvent>


> <Salt_Solvent_ID>
0

> <MPID>
99570

> <KocRef>
Schuurmann-Main

> <LogKOC>
4.34

> <Tr_1_Tst_0>
1

$$$$
100296
  Mrv171c012251911022D          

 12 14  0  0  0  0            999 V2000
    1.0219   -0.0469    0.0000 C   0  0  0  0  0  0  0  0  0  0  0  0
    0.7670   -0.8315    0.0000 C   0  0  0  0  0  0  0  0  0  0  0  0
    1.4344   -1.3165    0.0000 C   0  0  0  0  0  0  0  0  0  0  0  0
    1.3482   -2.1369    0.0000 C   0  0  0  0  0  0  0  0  0  0  0  0
    0.5945   -2.4725    0.0000 C   0  0  0  0  0  0  0  0  0  0  0  0
   -0.0729   -1.9876    0.0000 C   0  0  0  0  0  0  0  0  0  0  0  0
    0.0133   -1.1671    0.0000 C   0  0  0  0  0  0  0  0  0  0  0  0
    2.2743   -2.4725    0.0000 C   0  0  0  0  0  0  0  0  0  0  0  0
    2.9418   -1.9876    0.0000 C   0  0  0  0  0  0  0  0  0  0  0  0
    2.8555   -1.1671    0.0000 C   0  0  0  0  0  0  0  0  0  0  0  0
    2.1019   -0.8315    0.0000 C   0  0  0  0  0  0  0  0  0  0  0  0
    1.8469   -0.0469    0.0000 C   0  0  0  0  0  0  0  0  0  0  0  0
  2  1  1  0  0  0  0
  2  3  2  0  0  0  0
  3  4  1  0  0  0  0
  4  5  2  0  0  0  0
  5  6  1  0  0  0  0
  6  7  2  0  0  0  0
  7  2  1  0  0  0  0
  4  8  1  0  0  0  0
  8  9  2  0  0  0  0
  9 10  1  0  0  0  0
 10 11  2  0  0  0  0
 11  3  1  0  0  0  0
 12 11  1  0  0  0  0
  1 12  2  0  0  0  0
M  END
> <ChemID>
100296

> <CAS>
208-96-8

> <Original_SMILES>
c1ccc2C=Cc3cccc1c32

> <preferred_name>
Acenaphthylene

> <dsstox_substance_id>
DTXSID3023845

> <dsstox_compound_id>
DTXCID103845

> <qc_level>
DSSTox_Low

> <Canonical_QSARr>
C1=CC=C2C=CC=C3C=CC1=C32

> <InChI_Code_QSARr>
InChI=1S/C12H8/c1-3-9-4-2-6-11-8-7-10(5-1)12(9)11/h1-8H

> <InChI Key_QSARr>
HXGDTGSAIMULJN-UHFFFAOYSA-N

> <Salt_Solvent>


> <Salt_Solvent_ID>
0

> <MPID>
99571

> <KocRef>
Schuurmann-Main

> <LogKOC>
3.75

> <Tr_1_Tst_0>
0

$$$$
100297
  Mrv171c012251911022D          

 18 21  0  0  0  0            999 V2000
    2.4548    0.1007    0.0000 C   0  0  0  0  0  0  0  0  0  0  0  0
    2.9949    0.7243    0.0000 C   0  0  0  0  0  0  0  0  0  0  0  0
    3.8050    0.5684    0.0000 C   0  0  0  0  0  0  0  0  0  0  0  0
    4.0751   -0.2111    0.0000 C   0  0  0  0  0  0  0  0  0  0  0  0
    4.8852   -0.3671    0.0000 C   0  0  0  0  0  0  0  0  0  0  0  0
    5.4253    0.2566    0.0000 C   0  0  0  0  0  0  0  0  0  0  0  0
    5.1552    1.0361    0.0000 C   0  0  0  0  0  0  0  0  0  0  0  0
    4.3451    1.1921    0.0000 C   0  0  0  0  0  0  0  0  0  0  0  0
    3.5350   -0.8348    0.0000 N   0  0  0  0  0  0  0  0  0  0  0  0
    2.7248   -0.6789    0.0000 C   0  0  0  0  0  0  0  0  0  0  0  0
    2.1847   -1.3025    0.0000 C   0  0  0  0  0  0  0  0  0  0  0  0
    1.3746   -1.1466    0.0000 C   0  0  0  0  0  0  0  0  0  0  0  0
    1.1046   -0.3671    0.0000 C   0  0  0  0  0  0  0  0  0  0  0  0
    0.2944   -0.2111    0.0000 C   0  0  0  0  0  0  0  0  0  0  0  0
    0.0244    0.5684    0.0000 C   0  0  0  0  0  0  0  0  0  0  0  0
    0.5645    1.1921    0.0000 C   0  0  0  0  0  0  0  0  0  0  0  0
    1.3746    1.0361    0.0000 C   0  0  0  0  0  0  0  0  0  0  0  0
    1.6447    0.2566    0.0000 C   0  0  0  0  0  0  0  0  0  0  0  0
  2  1  2  0  0  0  0
  3  2  1  0  0  0  0
  3  4  1  0  0  0  0
  4  5  2  0  0  0  0
  5  6  1  0  0  0  0
  6  7  2  0  0  0  0
  7  8  1  0  0  0  0
  8  3  2  0  0  0  0
  9  4  1  0  0  0  0
 10  9  2  0  0  0  0
 10  1  1  0  0  0  0
 11 10  1  0  0  0  0
 12 11  2  0  0  0  0
 13 12  1  0  0  0  0
 13 14  2  0  0  0  0
 14 15  1  0  0  0  0
 15 16  2  0  0  0  0
 16 17  1  0  0  0  0
 17 18  2  0  0  0  0
  1 18  1  0  0  0  0
 18 13  1  0  0  0  0
M  END
> <ChemID>
100297

> <CAS>
225-11-6

> <Original_SMILES>
c1c2c3ccccc3ccc2[n]c2ccccc21

> <preferred_name>
Benz[a]acridine

> <dsstox_substance_id>
DTXSID9075371

> <dsstox_compound_id>
DTXCID0036710

> <qc_level>
Public_High

> <Canonical_QSARr>
C1=C2C3=CC=CC=C3C=CC2=NC2=CC=CC=C21

> <InChI_Code_QSARr>
InChI=1S/C17H11N/c1-3-7-14-12(5-1)9-10-17-15(14)11-13-6-2-4-8-16(13)18-17/h1-11H

> <InChI Key_QSARr>
JEGZRTMZYUDVBF-UHFFFAOYSA-N

> <Salt_Solvent>


> <Salt_Solvent_ID>
0

> <MPID>
99572

> <KocRef>
Schuurmann-Main

> <LogKOC>
4.39

> <Tr_1_Tst_0>
1

$$$$
100298
  Mrv171c012251911022D          

 21 25  0  0  0  0            999 V2000
    3.6633    0.9666    0.0000 C   0  0  0  0  0  0  0  0  0  0  0  0
    4.4703    1.1381    0.0000 C   0  0  0  0  0  0  0  0  0  0  0  0
    4.7252    1.9227    0.0000 C   0  0  0  0  0  0  0  0  0  0  0  0
    5.5322    2.0942    0.0000 C   0  0  0  0  0  0  0  0  0  0  0  0
    6.0842    1.4812    0.0000 C   0  0  0  0  0  0  0  0  0  0  0  0
    5.8293    0.6965    0.0000 C   0  0  0  0  0  0  0  0  0  0  0  0
    5.0223    0.5250    0.0000 C   0  0  0  0  0  0  0  0  0  0  0  0
    4.7674   -0.2596    0.0000 C   0  0  0  0  0  0  0  0  0  0  0  0
    3.9604   -0.4311    0.0000 C   0  0  0  0  0  0  0  0  0  0  0  0
    3.4084    0.1819    0.0000 C   0  0  0  0  0  0  0  0  0  0  0  0
    2.5834    0.1819    0.0000 C   0  0  0  0  0  0  0  0  0  0  0  0
    2.3285    0.9666    0.0000 C   0  0  0  0  0  0  0  0  0  0  0  0
    1.5215    1.1381    0.0000 C   0  0  0  0  0  0  0  0  0  0  0  0
    1.2665    1.9227    0.0000 C   0  0  0  0  0  0  0  0  0  0  0  0
    0.4596    2.0942    0.0000 C   0  0  0  0  0  0  0  0  0  0  0  0
   -0.0925    1.4812    0.0000 C   0  0  0  0  0  0  0  0  0  0  0  0
    0.1625    0.6965    0.0000 C   0  0  0  0  0  0  0  0  0  0  0  0
    0.9694    0.5250    0.0000 C   0  0  0  0  0  0  0  0  0  0  0  0
    1.2244   -0.2596    0.0000 C   0  0  0  0  0  0  0  0  0  0  0  0
    2.0314   -0.4311    0.0000 C   0  0  0  0  0  0  0  0  0  0  0  0
    2.9959    1.4515    0.0000 N   0  0  0  0  0  0  0  0  0  0  0  0
  2  1  1  0  0  0  0
  2  3  2  0  0  0  0
  3  4  1  0  0  0  0
  4  5  2  0  0  0  0
  5  6  1  0  0  0  0
  6  7  2  0  0  0  0
  7  2  1  0  0  0  0
  8  7  1  0  0  0  0
  9  8  2  0  0  0  0
 10  9  1  0  0  0  0
 10  1  2  0  0  0  0
 11 10  1  0  0  0  0
 11 12  2  0  0  0  0
 12 13  1  0  0  0  0
 14 13  2  0  0  0  0
 15 14  1  0  0  0  0
 16 15  2  0  0  0  0
 17 16  1  0  0  0  0
 18 17  2  0  0  0  0
 13 18  1  0  0  0  0
 18 19  1  0  0  0  0
 19 20  2  0  0  0  0
 20 11  1  0  0  0  0
 21 12  1  0  0  0  0
  1 21  1  0  0  0  0
M  END
> <ChemID>
100298

> <CAS>
239-64-5

> <Original_SMILES>
c1cc2c([nH]c3c4ccccc4ccc23)c2ccccc21

> <preferred_name>
1,2;7,8-Dibenzocarbazole

> <dsstox_substance_id>
DTXSID9075373

> <dsstox_compound_id>
DTXCID6036962

> <qc_level>
Public_High

> <Canonical_QSARr>
C1=CC2=C(NC3C4=CC=CC=C4C=CC2=3)C2=CC=CC=C21

> <InChI_Code_QSARr>
InChI=1S/C20H13N/c1-3-7-15-13(5-1)9-11-17-18-12-10-14-6-2-4-8-16(14)20(18)21-19(15)17/h1-12,21H

> <InChI Key_QSARr>
IUILSTHMSGDSHQ-UHFFFAOYSA-N

> <Salt_Solvent>


> <Salt_Solvent_ID>
0

> <MPID>
99573

> <KocRef>
Schuurmann-Main

> <LogKOC>
6.02

> <Tr_1_Tst_0>
1

$$$$
100299
  Mrv171c012251911022D          

 14 16  0  0  0  0            999 V2000
    2.8579   -0.0000    0.0000 C   0  0  0  0  0  0  0  0  0  0  0  0
    3.5724   -0.4125    0.0000 C   0  0  0  0  0  0  0  0  0  0  0  0
    4.2868    0.0000    0.0000 C   0  0  0  0  0  0  0  0  0  0  0  0
    4.2868    0.8250    0.0000 C   0  0  0  0  0  0  0  0  0  0  0  0
    3.5724    1.2375    0.0000 C   0  0  0  0  0  0  0  0  0  0  0  0
    2.8579    0.8250    0.0000 C   0  0  0  0  0  0  0  0  0  0  0  0
    2.1434    1.2375    0.0000 N   0  0  0  0  0  0  0  0  0  0  0  0
    1.4289    0.8250    0.0000 C   0  0  0  0  0  0  0  0  0  0  0  0
    1.4289    0.0000    0.0000 C   0  0  0  0  0  0  0  0  0  0  0  0
    0.7145   -0.4125    0.0000 C   0  0  0  0  0  0  0  0  0  0  0  0
    0.0000   -0.0000    0.0000 C   0  0  0  0  0  0  0  0  0  0  0  0
    0.0000    0.8250    0.0000 C   0  0  0  0  0  0  0  0  0  0  0  0
    0.7145    1.2375    0.0000 C   0  0  0  0  0  0  0  0  0  0  0  0
    2.1434   -0.4125    0.0000 C   0  0  0  0  0  0  0  0  0  0  0  0
  2  1  1  0  0  0  0
  3  2  2  0  0  0  0
  4  3  1  0  0  0  0
  5  4  2  0  0  0  0
  6  5  1  0  0  0  0
  6  1  1  0  0  0  0
  7  6  2  0  0  0  0
  8  7  1  0  0  0  0
  8  9  1  0  0  0  0
  9 10  2  0  0  0  0
 10 11  1  0  0  0  0
 11 12  2  0  0  0  0
 12 13  1  0  0  0  0
 13  8  2  0  0  0  0
 14  9  1  0  0  0  0
  1 14  2  0  0  0  0
M  END
> <ChemID>
100299

> <CAS>
260-94-6

> <Original_SMILES>
c1c2ccccc2[n]c2ccccc21

> <preferred_name>
Acridine

> <dsstox_substance_id>
DTXSID8059766

> <dsstox_compound_id>
DTXCID6037433

> <qc_level>
Public_High

> <Canonical_QSARr>
C1=C2C=CC=CC2=NC2=CC=CC=C21

> <InChI_Code_QSARr>
InChI=1S/C13H9N/c1-3-7-12-10(5-1)9-11-6-2-4-8-13(11)14-12/h1-9H

> <InChI Key_QSARr>
DZBUGLKDJFMEHC-UHFFFAOYSA-N

> <Salt_Solvent>


> <Salt_Solvent_ID>
0

> <MPID>
99574

> <KocRef>
Schuurmann-Main

> <LogKOC>
4.18

> <Tr_1_Tst_0>
1

$$$$
100300
  Mrv171c012251911022D          

 16 16  0  0  0  0            999 V2000
    1.9978   -1.7106    0.0000 S   0  0  0  0  0  0  0  0  0  0  0  0
    2.4103   -2.4251    0.0000 P   0  0  0  0  0  0  0  0  0  0  0  0
    1.6958   -2.8376    0.0000 O   0  0  0  0  0  0  0  0  0  0  0  0
    1.6958   -3.6626    0.0000 C   0  0  0  0  0  0  0  0  0  0  0  0
    2.8228   -3.1396    0.0000 O   0  0  0  0  0  0  0  0  0  0  0  0
    2.4103   -3.8540    0.0000 C   0  0  0  0  0  0  0  0  0  0  0  0
    3.1247   -2.0126    0.0000 O   0  0  0  0  0  0  0  0  0  0  0  0
    3.1247   -1.1876    0.0000 C   0  0  0  0  0  0  0  0  0  0  0  0
    3.8392   -0.7751    0.0000 C   0  0  0  0  0  0  0  0  0  0  0  0
    3.8392    0.0499    0.0000 C   0  0  0  0  0  0  0  0  0  0  0  0
    3.1247    0.4624    0.0000 C   0  0  0  0  0  0  0  0  0  0  0  0
    3.1247    1.2874    0.0000 N   0  3  0  0  0  0  0  0  0  0  0  0
    2.4103    1.6999    0.0000 O   0  5  0  0  0  0  0  0  0  0  0  0
    3.8392    1.6999    0.0000 O   0  0  0  0  0  0  0  0  0  0  0  0
    2.4103    0.0499    0.0000 C   0  0  0  0  0  0  0  0  0  0  0  0
    2.4103   -0.7751    0.0000 C   0  0  0  0  0  0  0  0  0  0  0  0
  1  2  2  0  0  0  0
  2  3  1  0  0  0  0
  3  4  1  0  0  0  0
  2  5  1  0  0  0  0
  5  6  1  0  0  0  0
  2  7  1  0  0  0  0
  7  8  1  0  0  0  0
  9  8  1  0  0  0  0
 10  9  2  0  0  0  0
 11 10  1  0  0  0  0
 11 12  1  0  0  0  0
 12 13  1  0  0  0  0
 12 14  2  0  0  0  0
 15 11  2  0  0  0  0
 16 15  1  0  0  0  0
  8 16  2  0  0  0  0
M  CHG  2  12   1  13  -1
M  END
> <ChemID>
100300

> <CAS>
298-00-0

> <Original_SMILES>
COP(=S)(Oc1ccc(cc1)[N+]([O-])=O)OC

> <preferred_name>
Methyl parathion

> <dsstox_substance_id>
DTXSID1020855

> <dsstox_compound_id>
DTXCID30855

> <qc_level>
DSSTox_Low

> <Canonical_QSARr>
COP(=S)(OC1C=CC(=CC=1)[N+]([O-])=O)OC

> <InChI_Code_QSARr>
InChI=1S/C8H10NO5PS/c1-12-15(16,13-2)14-8-5-3-7(4-6-8)9(10)11/h3-6H,1-2H3

> <InChI Key_QSARr>
RLBIQVVOMOPOHC-UHFFFAOYSA-N

> <Salt_Solvent>


> <Salt_Solvent_ID>
0

> <MPID>
99575

> <KocRef>
Schuurmann-Main

> <LogKOC>
3.0

> <Tr_1_Tst_0>
0

$$$$
100301
  Mrv171c012251911022D          

 13 12  0  0  0  0            999 V2000
    2.6891   -1.8101    0.0000 P   0  0  0  0  0  0  0  0  0  0  0  0
    3.5141   -1.8101    0.0000 O   0  0  0  0  0  0  0  0  0  0  0  0
    3.9266   -2.5246    0.0000 C   0  0  0  0  0  0  0  0  0  0  0  0
    4.7516   -2.5246    0.0000 C   0  0  0  0  0  0  0  0  0  0  0  0
    2.6891   -0.9851    0.0000 O   0  0  0  0  0  0  0  0  0  0  0  0
    1.9747   -0.5726    0.0000 C   0  0  0  0  0  0  0  0  0  0  0  0
    1.9747    0.2524    0.0000 C   0  0  0  0  0  0  0  0  0  0  0  0
    2.6891   -2.6351    0.0000 S   0  0  0  0  0  0  0  0  0  0  0  0
    1.8641   -1.8101    0.0000 S   0  0  0  0  0  0  0  0  0  0  0  0
    1.4516   -1.0956    0.0000 C   0  0  0  0  0  0  0  0  0  0  0  0
    0.6266   -1.0956    0.0000 S   0  0  0  0  0  0  0  0  0  0  0  0
    0.2141   -0.3811    0.0000 C   0  0  0  0  0  0  0  0  0  0  0  0
   -0.6109   -0.3811    0.0000 C   0  0  0  0  0  0  0  0  0  0  0  0
  1  2  1  0  0  0  0
  2  3  1  0  0  0  0
  3  4  1  0  0  0  0
  1  5  1  0  0  0  0
  5  6  1  0  0  0  0
  6  7  1  0  0  0  0
  1  8  2  0  0  0  0
  1  9  1  0  0  0  0
  9 10  1  0  0  0  0
 10 11  1  0  0  0  0
 11 12  1  0  0  0  0
 12 13  1  0  0  0  0
M  END
> <ChemID>
100301

> <CAS>
298-02-2

> <Original_SMILES>
CCSCSP(=S)(OCC)OCC

> <preferred_name>
Phorate

> <dsstox_substance_id>
DTXSID4032459

> <dsstox_compound_id>
DTXCID2012459

> <qc_level>
DSSTox_Low

> <Canonical_QSARr>
CCSCSP(=S)(OCC)OCC

> <InChI_Code_QSARr>
InChI=1S/C7H17O2PS3/c1-4-8-10(11,9-5-2)13-7-12-6-3/h4-7H2,1-3H3

> <InChI Key_QSARr>
BULVZWIRKLYCBC-UHFFFAOYSA-N

> <Salt_Solvent>


> <Salt_Solvent_ID>
0

> <MPID>
99576

> <KocRef>
Schuurmann-Main

> <LogKOC>
2.7

> <Tr_1_Tst_0>
1

$$$$
100302
  Mrv171c012251911022D          

 14 13  0  0  0  0            999 V2000
    3.1754   -1.7399    0.0000 P   0  0  0  0  0  0  0  0  0  0  0  0
    3.5879   -2.4543    0.0000 O   0  0  0  0  0  0  0  0  0  0  0  0
    4.4129   -2.4543    0.0000 C   0  0  0  0  0  0  0  0  0  0  0  0
    4.8254   -3.1688    0.0000 C   0  0  0  0  0  0  0  0  0  0  0  0
    3.8898   -1.3274    0.0000 O   0  0  0  0  0  0  0  0  0  0  0  0
    3.8898   -0.5024    0.0000 C   0  0  0  0  0  0  0  0  0  0  0  0
    4.6043   -0.0899    0.0000 C   0  0  0  0  0  0  0  0  0  0  0  0
    2.4609   -2.1524    0.0000 S   0  0  0  0  0  0  0  0  0  0  0  0
    2.7629   -1.0254    0.0000 O   0  0  0  0  0  0  0  0  0  0  0  0
    1.9379   -1.0254    0.0000 C   0  0  0  0  0  0  0  0  0  0  0  0
    1.5254   -0.3109    0.0000 C   0  0  0  0  0  0  0  0  0  0  0  0
    0.7004   -0.3109    0.0000 S   0  0  0  0  0  0  0  0  0  0  0  0
    0.2879    0.4036    0.0000 C   0  0  0  0  0  0  0  0  0  0  0  0
   -0.5371    0.4036    0.0000 C   0  0  0  0  0  0  0  0  0  0  0  0
  1  2  1  0  0  0  0
  2  3  1  0  0  0  0
  3  4  1  0  0  0  0
  1  5  1  0  0  0  0
  5  6  1  0  0  0  0
  6  7  1  0  0  0  0
  1  8  2  0  0  0  0
  1  9  1  0  0  0  0
  9 10  1  0  0  0  0
 10 11  1  0  0  0  0
 11 12  1  0  0  0  0
 12 13  1  0  0  0  0
 13 14  1  0  0  0  0
M  END
> <ChemID>
100302

> <CAS>
298-03-3

> <Original_SMILES>
CCSCCOP(=S)(OCC)OCC

> <preferred_name>
Demeton-O

> <dsstox_substance_id>
DTXSID7041839

> <dsstox_compound_id>
DTXCID5021839

> <qc_level>
DSSTox_Low

> <Canonical_QSARr>
CCSCCOP(=S)(OCC)OCC

> <InChI_Code_QSARr>
InChI=1S/C8H19O3PS2/c1-4-9-12(13,10-5-2)11-7-8-14-6-3/h4-8H2,1-3H3

> <InChI Key_QSARr>
DGLIBALSRMUQDD-UHFFFAOYSA-N

> <Salt_Solvent>


> <Salt_Solvent_ID>
0

> <MPID>
99577

> <KocRef>
USDA Pest Prop DB

> <LogKOC>
2.59

> <Tr_1_Tst_0>
1

$$$$
100303
  Mrv171c012251911022D          

 14 13  0  0  0  0            999 V2000
    3.7882   -0.5279    0.0000 C   0  0  0  0  0  0  0  0  0  0  0  0
    3.0737   -0.9404    0.0000 C   0  0  0  0  0  0  0  0  0  0  0  0
    3.0737   -1.7654    0.0000 O   0  0  0  0  0  0  0  0  0  0  0  0
    2.3593   -2.1779    0.0000 P   0  0  0  0  0  0  0  0  0  0  0  0
    1.6448   -2.5904    0.0000 S   0  0  0  0  0  0  0  0  0  0  0  0
    0.9303   -2.1779    0.0000 C   0  0  0  0  0  0  0  0  0  0  0  0
    0.9303   -1.3529    0.0000 C   0  0  0  0  0  0  0  0  0  0  0  0
    0.2158   -0.9404    0.0000 S   0  0  0  0  0  0  0  0  0  0  0  0
    0.2158   -0.1154    0.0000 C   0  0  0  0  0  0  0  0  0  0  0  0
   -0.4986    0.2971    0.0000 C   0  0  0  0  0  0  0  0  0  0  0  0
    1.9468   -1.4634    0.0000 S   0  0  0  0  0  0  0  0  0  0  0  0
    2.7718   -2.8924    0.0000 O   0  0  0  0  0  0  0  0  0  0  0  0
    2.3593   -3.6069    0.0000 C   0  0  0  0  0  0  0  0  0  0  0  0
    1.5343   -3.6069    0.0000 C   0  0  0  0  0  0  0  0  0  0  0  0
  1  2  1  0  0  0  0
  2  3  1  0  0  0  0
  3  4  1  0  0  0  0
  4  5  1  0  0  0  0
  5  6  1  0  0  0  0
  6  7  1  0  0  0  0
  7  8  1  0  0  0  0
  8  9  1  0  0  0  0
  9 10  1  0  0  0  0
  4 11  2  0  0  0  0
  4 12  1  0  0  0  0
 12 13  1  0  0  0  0
 13 14  1  0  0  0  0
M  END
> <ChemID>
100303

> <CAS>
298-04-4

> <Original_SMILES>
CCSCCSP(=S)(OCC)OCC

> <preferred_name>
Disulfoton

> <dsstox_substance_id>
DTXSID0022018

> <dsstox_compound_id>
DTXCID702018

> <qc_level>
DSSTox_Low

> <Canonical_QSARr>
CCSCCSP(=S)(OCC)OCC

> <InChI_Code_QSARr>
InChI=1S/C8H19O2PS3/c1-4-9-11(12,10-5-2)14-8-7-13-6-3/h4-8H2,1-3H3

> <InChI Key_QSARr>
DOFZAZXDOSGAJZ-UHFFFAOYSA-N

> <Salt_Solvent>


> <Salt_Solvent_ID>
0

> <MPID>
99578

> <KocRef>
Schuurmann-Main

> <LogKOC>
3.22

> <Tr_1_Tst_0>
1

$$$$
100304
  Mrv171c012251911022D          

 13 12  0  0  0  0            999 V2000
    1.4873   -2.7117    0.0000 C   0  0  0  0  0  0  0  0  0  0  0  0
    2.2018   -2.2992    0.0000 Br  0  0  0  0  0  0  0  0  0  0  0  0
    1.4873   -3.5367    0.0000 C   0  0  0  0  0  0  0  0  0  0  0  0
    1.4873   -4.3617    0.0000 Cl  0  0  0  0  0  0  0  0  0  0  0  0
    2.3123   -3.5367    0.0000 Cl  0  0  0  0  0  0  0  0  0  0  0  0
    0.6623   -3.5367    0.0000 Br  0  0  0  0  0  0  0  0  0  0  0  0
    0.7728   -2.2992    0.0000 O   0  0  0  0  0  0  0  0  0  0  0  0
    0.7728   -1.4742    0.0000 P   0  0  0  0  0  0  0  0  0  0  0  0
    0.7728   -0.6492    0.0000 O   0  0  0  0  0  0  0  0  0  0  0  0
    0.0584   -0.2367    0.0000 C   0  0  0  0  0  0  0  0  0  0  0  0
    1.5978   -1.4742    0.0000 O   0  0  0  0  0  0  0  0  0  0  0  0
    2.0103   -0.7597    0.0000 C   0  0  0  0  0  0  0  0  0  0  0  0
   -0.0522   -1.4742    0.0000 O   0  0  0  0  0  0  0  0  0  0  0  0
  1  2  1  0  0  0  0
  1  3  1  0  0  0  0
  3  4  1  0  0  0  0
  3  5  1  0  0  0  0
  3  6  1  0  0  0  0
  1  7  1  0  0  0  0
  7  8  1  0  0  0  0
  8  9  1  0  0  0  0
  9 10  1  0  0  0  0
  8 11  1  0  0  0  0
 11 12  1  0  0  0  0
  8 13  2  0  0  0  0
M  END
> <ChemID>
100304

> <CAS>
300-76-5

> <Original_SMILES>
COP(=O)(OC(Br)C(Cl)(Cl)Br)OC

> <preferred_name>
Naled

> <dsstox_substance_id>
DTXSID1024209

> <dsstox_compound_id>
DTXCID404209

> <qc_level>
DSSTox_Low

> <Canonical_QSARr>
COP(=O)(OC(Br)C(Cl)(Cl)Br)OC

> <InChI_Code_QSARr>
InChI=1S/C4H7Br2Cl2O4P/c1-10-13(9,11-2)12-3(5)4(6,7)8/h3H,1-2H3

> <InChI Key_QSARr>
BUYMVQAILCEWRR-UHFFFAOYSA-N

> <Salt_Solvent>


> <Salt_Solvent_ID>
0

> <MPID>
99579

> <KocRef>
Schuurmann-Main

> <LogKOC>
2.26

> <Tr_1_Tst_0>
0

$$$$
100305
  Mrv171c012251911022D          

 13 12  0  0  0  0            999 V2000
    3.1319    1.6639    0.0000 C   0  0  0  0  0  0  0  0  0  0  0  0
    3.5444    0.9494    0.0000 C   0  0  0  0  0  0  0  0  0  0  0  0
    3.1319    0.2349    0.0000 S   0  0  0  0  0  0  0  0  0  0  0  0
    3.5444   -0.4796    0.0000 C   0  0  0  0  0  0  0  0  0  0  0  0
    3.1319   -1.1940    0.0000 C   0  0  0  0  0  0  0  0  0  0  0  0
    3.5444   -1.9085    0.0000 S   0  0  0  0  0  0  0  0  0  0  0  0
    3.1319   -2.6230    0.0000 P   0  0  0  0  0  0  0  0  0  0  0  0
    2.7194   -3.3374    0.0000 O   0  0  0  0  0  0  0  0  0  0  0  0
    3.1319   -4.0519    0.0000 C   0  0  0  0  0  0  0  0  0  0  0  0
    2.4174   -2.2105    0.0000 O   0  0  0  0  0  0  0  0  0  0  0  0
    1.7029   -2.6230    0.0000 C   0  0  0  0  0  0  0  0  0  0  0  0
    3.8463   -3.0355    0.0000 O   0  0  0  0  0  0  0  0  0  0  0  0
    2.3069    0.2349    0.0000 O   0  0  0  0  0  0  0  0  0  0  0  0
  1  2  1  0  0  0  0
  2  3  1  0  0  0  0
  3  4  1  0  0  0  0
  4  5  1  0  0  0  0
  5  6  1  0  0  0  0
  6  7  1  0  0  0  0
  7  8  1  0  0  0  0
  8  9  1  0  0  0  0
  7 10  1  0  0  0  0
 10 11  1  0  0  0  0
  7 12  2  0  0  0  0
  3 13  2  0  0  0  0
M  END
> <ChemID>
100305

> <CAS>
301-12-2

> <Original_SMILES>
CCS(=O)CCSP(=O)(OC)OC

> <preferred_name>
Oxydemeton-methyl

> <dsstox_substance_id>
DTXSID8025541

> <dsstox_compound_id>
DTXCID105541

> <qc_level>
DSSTox_Low

> <Canonical_QSARr>
CCS(=O)CCSP(=O)(OC)OC

> <InChI_Code_QSARr>
InChI=1S/C6H15O4PS2/c1-4-13(8)6-5-12-11(7,9-2)10-3/h4-6H2,1-3H3

> <InChI Key_QSARr>
PMCVMORKVPSKHZ-UHFFFAOYSA-N

> <Salt_Solvent>


> <Salt_Solvent_ID>
0

> <MPID>
99580

> <KocRef>
Schuurmann-Main

> <LogKOC>
1.0

> <Tr_1_Tst_0>
1

$$$$
100306
  Mrv171c012251911022D          

 18 21  0  0  0  0            999 V2000
   -0.3589    0.4477    0.0000 C   0  0  0  0  0  0  0  0  0  0  0  0
    0.4683    0.8300    0.0000 C   0  0  0  0  0  0  0  0  0  0  0  0
    0.6746    0.0050    0.0000 C   0  0  0  0  0  0  0  0  0  0  0  0
    0.0262    0.8109    0.0000 Cl  0  0  0  0  0  0  0  0  0  0  0  0
    0.0153   -0.8830    0.0000 Cl  0  0  0  0  0  0  0  0  0  0  0  0
    0.4683   -0.8200    0.0000 C   0  0  0  0  0  0  0  0  0  0  0  0
    0.6568   -1.6979    0.0000 Cl  0  0  0  0  0  0  0  0  0  0  0  0
    1.1828   -0.4075    0.0000 C   0  0  0  0  0  0  0  0  0  0  0  0
    1.1828    0.4175    0.0000 C   0  0  0  0  0  0  0  0  0  0  0  0
    1.9390    0.8445    0.0000 Cl  0  0  0  0  0  0  0  0  0  0  0  0
    1.9455   -0.8253    0.0000 Cl  0  0  0  0  0  0  0  0  0  0  0  0
   -0.2462   -0.4075    0.0000 C   0  0  0  0  0  0  0  0  0  0  0  0
   -0.9606   -0.8200    0.0000 C   0  0  0  0  0  0  0  0  0  0  0  0
   -1.1669    0.0050    0.0000 C   0  0  0  0  0  0  0  0  0  0  0  0
   -0.9606    0.8300    0.0000 C   0  0  0  0  0  0  0  0  0  0  0  0
   -1.6751    0.4175    0.0000 C   0  0  0  0  0  0  0  0  0  0  0  0
   -1.6751   -0.4075    0.0000 C   0  0  0  0  0  0  0  0  0  0  0  0
    0.5213    1.7138    0.0000 Cl  0  0  0  0  0  0  0  0  0  0  0  0
  2  1  1  0  0  0  0
  2  3  1  0  0  0  0
  3  4  1  0  0  0  0
  3  5  1  0  0  0  0
  3  6  1  0  0  0  0
  6  7  1  0  0  0  0
  6  8  1  0  0  0  0
  8  9  2  0  0  0  0
  9  2  1  0  0  0  0
  9 10  1  0  0  0  0
  8 11  1  0  0  0  0
 12  6  1  0  0  0  0
 12  1  1  0  0  0  0
 13 12  1  0  0  0  0
 13 14  1  0  0  0  0
 14 15  1  0  0  0  0
  1 15  1  0  0  0  0
 15 16  1  0  0  0  0
 16 17  2  0  0  0  0
 17 13  1  0  0  0  0
  2 18  1  0  0  0  0
M  END
> <ChemID>
100306

> <CAS>
309-00-2

> <Original_SMILES>
ClC1(Cl)[C@@]2(Cl)[C@@H]3[C@@H]4C[C@@H](C=C4)[C@@H]3[C@]1(Cl)C(Cl)=C2Cl

> <preferred_name>
Aldrin

> <dsstox_substance_id>
DTXSID8020040

> <dsstox_compound_id>
DTXCID10819882

> <qc_level>
DSSTox_High

> <Canonical_QSARr>
ClC1(Cl)C2(Cl)C3C4CC(C=C4)C3C1(Cl)C(Cl)=C2Cl

> <InChI_Code_QSARr>
InChI=1S/C12H8Cl6/c13-8-9(14)11(16)7-5-2-1-4(3-5)6(7)10(8,15)12(11,17)18/h1-2,4-7H,3H2

> <InChI Key_QSARr>
QBYJBZPUGVGKQQ-UHFFFAOYSA-N

> <Salt_Solvent>


> <Salt_Solvent_ID>
0

> <MPID>
99581

> <KocRef>
Schuurmann-Main

> <LogKOC>
4.69

> <Tr_1_Tst_0>
1

$$$$
100307
  Mrv171c012251911022D          

 14 14  0  0  0  0            999 V2000
    1.5310    0.3536    0.0000 N   0  0  0  0  0  0  0  0  0  0  0  0
    0.8165    0.7661    0.0000 C   0  0  0  0  0  0  0  0  0  0  0  0
    0.8165    1.5911    0.0000 O   0  0  0  0  0  0  0  0  0  0  0  0
    0.1021    0.3536    0.0000 N   0  0  0  0  0  0  0  0  0  0  0  0
   -0.6124    0.7661    0.0000 C   0  0  0  0  0  0  0  0  0  0  0  0
   -1.3269    0.3536    0.0000 C   0  0  0  0  0  0  0  0  0  0  0  0
   -2.0413    0.7661    0.0000 C   0  0  0  0  0  0  0  0  0  0  0  0
   -0.6124    1.5911    0.0000 C   0  0  0  0  0  0  0  0  0  0  0  0
    0.1021   -0.4714    0.0000 C   0  0  0  0  0  0  0  0  0  0  0  0
   -0.6124   -0.8839    0.0000 O   0  0  0  0  0  0  0  0  0  0  0  0
    0.8165   -0.8839    0.0000 C   0  0  0  0  0  0  0  0  0  0  0  0
    0.8165   -1.7089    0.0000 Br  0  0  0  0  0  0  0  0  0  0  0  0
    1.5310   -0.4714    0.0000 C   0  0  0  0  0  0  0  0  0  0  0  0
    2.2455   -0.8839    0.0000 C   0  0  0  0  0  0  0  0  0  0  0  0
  2  1  1  0  0  0  0
  2  3  2  0  0  0  0
  4  2  1  0  0  0  0
  4  5  1  0  0  0  0
  5  6  1  0  0  0  0
  6  7  1  0  0  0  0
  5  8  1  0  0  0  0
  9  4  1  0  0  0  0
  9 10  2  0  0  0  0
 11  9  1  0  0  0  0
 11 12  1  0  0  0  0
 13 11  1  0  0  0  0
  1 13  2  0  0  0  0
 13 14  1  0  0  0  0
M  END
> <ChemID>
100307

> <CAS>
314-40-9

> <Original_SMILES>
CC1NC(=O)N(C(C)CC)C(=O)C=1Br

> <preferred_name>
Bromacil

> <dsstox_substance_id>
DTXSID4022020

> <dsstox_compound_id>
DTXCID802020

> <qc_level>
DSSTox_High

> <Canonical_QSARr>
CC1=NC(=O)N(C(C)CC)C(=O)C1Br

> <InChI_Code_QSARr>
InChI=1S/C9H13BrN2O2/c1-4-5(2)12-8(13)7(10)6(3)11-9(12)14/h5,7H,4H2,1-3H3

> <InChI Key_QSARr>
OSOBMCTWSONQHC-UHFFFAOYSA-N

> <Salt_Solvent>


> <Salt_Solvent_ID>
0

> <MPID>
99582

> <KocRef>
Schuurmann-Main

> <LogKOC>
1.6

> <Tr_1_Tst_0>
1

$$$$
100308
  Mrv171c012251911022D          

 13 13  0  0  0  0            999 V2000
    0.6549    0.2074    0.0000 N   0  0  0  0  0  0  0  0  0  0  0  0
   -0.0595    0.6199    0.0000 C   0  0  0  0  0  0  0  0  0  0  0  0
   -0.0595    1.4449    0.0000 O   0  0  0  0  0  0  0  0  0  0  0  0
   -0.7740    0.2074    0.0000 N   0  0  0  0  0  0  0  0  0  0  0  0
   -1.4885    0.6199    0.0000 C   0  0  0  0  0  0  0  0  0  0  0  0
   -2.2029    0.2074    0.0000 C   0  0  0  0  0  0  0  0  0  0  0  0
   -1.4885    1.4449    0.0000 C   0  0  0  0  0  0  0  0  0  0  0  0
   -0.7740   -0.6176    0.0000 C   0  0  0  0  0  0  0  0  0  0  0  0
   -1.4885   -1.0301    0.0000 O   0  0  0  0  0  0  0  0  0  0  0  0
   -0.0595   -1.0301    0.0000 C   0  0  0  0  0  0  0  0  0  0  0  0
   -0.0595   -1.8551    0.0000 Br  0  0  0  0  0  0  0  0  0  0  0  0
    0.6549   -0.6176    0.0000 C   0  0  0  0  0  0  0  0  0  0  0  0
    1.3694   -1.0301    0.0000 C   0  0  0  0  0  0  0  0  0  0  0  0
  2  1  1  0  0  0  0
  2  3  2  0  0  0  0
  4  2  1  0  0  0  0
  4  5  1  0  0  0  0
  5  6  1  0  0  0  0
  5  7  1  0  0  0  0
  8  4  1  0  0  0  0
  8  9  2  0  0  0  0
 10  8  1  0  0  0  0
 10 11  1  0  0  0  0
 12 10  1  0  0  0  0
  1 12  2  0  0  0  0
 12 13  1  0  0  0  0
M  END
> <ChemID>
100308

> <CAS>
314-42-1

> <Original_SMILES>
CC1NC(=O)N(C(C)C)C(=O)C=1Br

> <preferred_name>
Isocil

> <dsstox_substance_id>
DTXSID2042064

> <dsstox_compound_id>
DTXCID0022064

> <qc_level>
DSSTox_Low

> <Canonical_QSARr>
CC1=NC(=O)N(C(C)C)C(=O)C1Br

> <InChI_Code_QSARr>
InChI=1S/C8H11BrN2O2/c1-4(2)11-7(12)6(9)5(3)10-8(11)13/h4,6H,1-3H3

> <InChI Key_QSARr>
ICWQRCGRIKWDTN-UHFFFAOYSA-N

> <Salt_Solvent>


> <Salt_Solvent_ID>
0

> <MPID>
99583

> <KocRef>
Schuurmann-Main

> <LogKOC>
2.11

> <Tr_1_Tst_0>
0

$$$$
100309
  Mrv171c012251911022D          

 16 16  0  0  0  0            999 V2000
    4.1526   -2.7082    0.0000 C   0  0  0  0  0  0  0  0  0  0  0  0
    3.4381   -2.2957    0.0000 C   0  0  0  0  0  0  0  0  0  0  0  0
    3.4381   -1.4707    0.0000 C   0  0  0  0  0  0  0  0  0  0  0  0
    2.7236   -1.0582    0.0000 C   0  0  0  0  0  0  0  0  0  0  0  0
    2.7236   -0.2332    0.0000 O   0  0  0  0  0  0  0  0  0  0  0  0
    2.0092    0.1793    0.0000 C   0  0  0  0  0  0  0  0  0  0  0  0
    2.0092    1.0043    0.0000 N   0  0  0  0  0  0  0  0  0  0  0  0
    1.2947    1.4168    0.0000 C   0  0  0  0  0  0  0  0  0  0  0  0
    1.2947   -0.2332    0.0000 O   0  0  0  0  0  0  0  0  0  0  0  0
    2.0092   -1.4707    0.0000 C   0  0  0  0  0  0  0  0  0  0  0  0
    2.0092   -2.2957    0.0000 C   0  0  0  0  0  0  0  0  0  0  0  0
    1.2947   -2.7082    0.0000 C   0  0  0  0  0  0  0  0  0  0  0  0
    2.7236   -2.7082    0.0000 C   0  0  0  0  0  0  0  0  0  0  0  0
    2.7236   -3.5332    0.0000 N   0  0  0  0  0  0  0  0  0  0  0  0
    3.4381   -3.9457    0.0000 C   0  0  0  0  0  0  0  0  0  0  0  0
    2.0092   -3.9457    0.0000 C   0  0  0  0  0  0  0  0  0  0  0  0
  1  2  1  0  0  0  0
  3  2  1  0  0  0  0
  4  3  2  0  0  0  0
  4  5  1  0  0  0  0
  5  6  1  0  0  0  0
  6  7  1  0  0  0  0
  7  8  1  0  0  0  0
  6  9  2  0  0  0  0
 10  4  1  0  0  0  0
 11 10  2  0  0  0  0
 11 12  1  0  0  0  0
 13 11  1  0  0  0  0
  2 13  2  0  0  0  0
 13 14  1  0  0  0  0
 14 15  1  0  0  0  0
 14 16  1  0  0  0  0
M  END
> <ChemID>
100309

> <CAS>
315-18-4

> <Original_SMILES>
CN(C)c1c(C)cc(cc1C)OC(=O)NC

> <preferred_name>
Mexacarbate

> <dsstox_substance_id>
DTXSID7020893

> <dsstox_compound_id>
DTXCID50893

> <qc_level>
DSSTox_Low

> <Canonical_QSARr>
CC1C=C(C=C(C)C=1N(C)C)OC(=O)NC

> <InChI_Code_QSARr>
InChI=1S/C12H18N2O2/c1-8-6-10(16-12(15)13-3)7-9(2)11(8)14(4)5/h6-7H,1-5H3,(H,13,15)

> <InChI Key_QSARr>
YNEVBPNZHBAYOA-UHFFFAOYSA-N

> <Salt_Solvent>


> <Salt_Solvent_ID>
0

> <MPID>
99584

> <KocRef>
USDA Pest Prop DB

> <LogKOC>
2.48

> <Tr_1_Tst_0>
1

$$$$
100311
  Mrv171c012251911022D          

 17 17  0  0  0  0            999 V2000
    3.9833   -2.2971    0.0000 P   0  0  0  0  0  0  0  0  0  0  0  0
    3.1583   -2.2971    0.0000 C   0  0  0  0  0  0  0  0  0  0  0  0
    2.7458   -3.0115    0.0000 C   0  0  0  0  0  0  0  0  0  0  0  0
    3.9833   -3.1221    0.0000 O   0  0  0  0  0  0  0  0  0  0  0  0
    4.6977   -3.5346    0.0000 C   0  0  0  0  0  0  0  0  0  0  0  0
    4.6977   -4.3596    0.0000 C   0  0  0  0  0  0  0  0  0  0  0  0
    3.9833   -1.4721    0.0000 O   0  0  0  0  0  0  0  0  0  0  0  0
    3.2688   -1.0596    0.0000 C   0  0  0  0  0  0  0  0  0  0  0  0
    3.2688   -0.2346    0.0000 C   0  0  0  0  0  0  0  0  0  0  0  0
    2.5543    0.1779    0.0000 C   0  0  0  0  0  0  0  0  0  0  0  0
    2.5543    1.0029    0.0000 Cl  0  0  0  0  0  0  0  0  0  0  0  0
    1.8399   -0.2346    0.0000 C   0  0  0  0  0  0  0  0  0  0  0  0
    1.1254    0.1779    0.0000 Cl  0  0  0  0  0  0  0  0  0  0  0  0
    1.8399   -1.0596    0.0000 C   0  0  0  0  0  0  0  0  0  0  0  0
    2.5543   -1.4721    0.0000 C   0  0  0  0  0  0  0  0  0  0  0  0
    2.5543   -2.2971    0.0000 Cl  0  0  0  0  0  0  0  0  0  0  0  0
    4.8083   -2.2971    0.0000 S   0  0  0  0  0  0  0  0  0  0  0  0
  1  2  1  0  0  0  0
  2  3  1  0  0  0  0
  1  4  1  0  0  0  0
  4  5  1  0  0  0  0
  5  6  1  0  0  0  0
  1  7  1  0  0  0  0
  7  8  1  0  0  0  0
  9  8  1  0  0  0  0
 10  9  2  0  0  0  0
 10 11  1  0  0  0  0
 12 10  1  0  0  0  0
 12 13  1  0  0  0  0
 14 12  2  0  0  0  0
 15 14  1  0  0  0  0
  8 15  2  0  0  0  0
 15 16  1  0  0  0  0
  1 17  2  0  0  0  0
M  END
> <ChemID>
100311

> <CAS>
327-98-0

> <Original_SMILES>
CCP(=S)(Oc1cc(Cl)c(Cl)cc1Cl)OCC

> <preferred_name>
Trichloronat

> <dsstox_substance_id>
DTXSID9038420

> <dsstox_compound_id>
DTXCID7018420

> <qc_level>
DSSTox_High

> <Canonical_QSARr>
CCP(=S)(OC1C=C(Cl)C(Cl)=CC=1Cl)OCC

> <InChI_Code_QSARr>
InChI=1S/C10H12Cl3O2PS/c1-3-14-16(17,4-2)15-10-6-8(12)7(11)5-9(10)13/h5-6H,3-4H2,1-2H3

> <InChI Key_QSARr>
ANIAQSUBRGXWLS-UHFFFAOYSA-N

> <Salt_Solvent>


> <Salt_Solvent_ID>
0

> <MPID>
99586

> <KocRef>
USDA Pest Prop DB

> <LogKOC>
2.6

> <Tr_1_Tst_0>
1

$$$$
100312
  Mrv171c012251911022D          

 13 13  0  0  0  0            999 V2000
    2.3096   -2.0625    0.0000 F   0  0  0  0  0  0  0  0  0  0  0  0
    3.0240   -1.6500    0.0000 C   0  0  0  0  0  0  0  0  0  0  0  0
    3.7385   -2.0625    0.0000 C   0  0  0  0  0  0  0  0  0  0  0  0
    4.4530   -1.6500    0.0000 C   0  0  0  0  0  0  0  0  0  0  0  0
    4.4530   -0.8250    0.0000 C   0  0  0  0  0  0  0  0  0  0  0  0
    3.7385   -0.4125    0.0000 C   0  0  0  0  0  0  0  0  0  0  0  0
    3.7385    0.4125    0.0000 N   0  0  0  0  0  0  0  0  0  0  0  0
    3.0240    0.8250    0.0000 C   0  0  0  0  0  0  0  0  0  0  0  0
    3.0240    1.6500    0.0000 N   0  0  0  0  0  0  0  0  0  0  0  0
    2.3096    2.0625    0.0000 C   0  0  0  0  0  0  0  0  0  0  0  0
    3.7385    2.0625    0.0000 C   0  0  0  0  0  0  0  0  0  0  0  0
    2.3096    0.4125    0.0000 O   0  0  0  0  0  0  0  0  0  0  0  0
    3.0240   -0.8250    0.0000 C   0  0  0  0  0  0  0  0  0  0  0  0
  1  2  1  0  0  0  0
  3  2  2  0  0  0  0
  4  3  1  0  0  0  0
  5  4  2  0  0  0  0
  6  5  1  0  0  0  0
  6  7  1  0  0  0  0
  7  8  1  0  0  0  0
  8  9  1  0  0  0  0
  9 10  1  0  0  0  0
  9 11  1  0  0  0  0
  8 12  2  0  0  0  0
 13  6  2  0  0  0  0
  2 13  1  0  0  0  0
M  END
> <ChemID>
100312

> <CAS>
330-39-2

> <Original_SMILES>
CN(C)C(=O)Nc1cccc(F)c1

> <preferred_name>
Urea, 3-(m-fluorophenyl)-1,1-dimethyl-

> <dsstox_substance_id>
DTXSID80186634

> <dsstox_compound_id>
DTXCID20109125

> <qc_level>
Public_Medium

> <Canonical_QSARr>
CN(C)C(=O)NC1C=CC=C(F)C=1

> <InChI_Code_QSARr>
InChI=1S/C9H11FN2O/c1-12(2)9(13)11-8-5-3-4-7(10)6-8/h3-6H,1-2H3,(H,11,13)

> <InChI Key_QSARr>
ANWCBSUPTRJETC-UHFFFAOYSA-N

> <Salt_Solvent>


> <Salt_Solvent_ID>
0

> <MPID>
99587

> <KocRef>
Schuurmann-Main

> <LogKOC>
1.73

> <Tr_1_Tst_0>
1

$$$$
100313
  Mrv171c012251911022D          

 14 14  0  0  0  0            999 V2000
    3.7744   -2.5334    0.0000 Cl  0  0  0  0  0  0  0  0  0  0  0  0
    3.0599   -2.1209    0.0000 C   0  0  0  0  0  0  0  0  0  0  0  0
    3.0599   -1.2959    0.0000 C   0  0  0  0  0  0  0  0  0  0  0  0
    2.3454   -0.8834    0.0000 C   0  0  0  0  0  0  0  0  0  0  0  0
    2.3454   -0.0584    0.0000 N   0  0  0  0  0  0  0  0  0  0  0  0
    1.6310    0.3541    0.0000 C   0  0  0  0  0  0  0  0  0  0  0  0
    1.6310    1.1791    0.0000 N   0  0  0  0  0  0  0  0  0  0  0  0
    0.9165    1.5916    0.0000 C   0  0  0  0  0  0  0  0  0  0  0  0
    2.3454    1.5916    0.0000 C   0  0  0  0  0  0  0  0  0  0  0  0
    0.9165   -0.0584    0.0000 O   0  0  0  0  0  0  0  0  0  0  0  0
    1.6310   -1.2959    0.0000 C   0  0  0  0  0  0  0  0  0  0  0  0
    1.6310   -2.1209    0.0000 C   0  0  0  0  0  0  0  0  0  0  0  0
    2.3454   -2.5334    0.0000 C   0  0  0  0  0  0  0  0  0  0  0  0
    2.3454   -3.3584    0.0000 Cl  0  0  0  0  0  0  0  0  0  0  0  0
  1  2  1  0  0  0  0
  3  2  1  0  0  0  0
  4  3  2  0  0  0  0
  4  5  1  0  0  0  0
  5  6  1  0  0  0  0
  6  7  1  0  0  0  0
  7  8  1  0  0  0  0
  7  9  1  0  0  0  0
  6 10  2  0  0  0  0
 11  4  1  0  0  0  0
 12 11  2  0  0  0  0
 13 12  1  0  0  0  0
  2 13  2  0  0  0  0
 13 14  1  0  0  0  0
M  END
> <ChemID>
100313

> <CAS>
330-54-1

> <Original_SMILES>
CN(C)C(=O)Nc1cc(Cl)c(Cl)cc1

> <preferred_name>
Diuron

> <dsstox_substance_id>
DTXSID0020446

> <dsstox_compound_id>
DTXCID00446

> <qc_level>
DSSTox_Low

> <Canonical_QSARr>
CN(C)C(=O)NC1=CC(Cl)=C(Cl)C=C1

> <InChI_Code_QSARr>
InChI=1S/C9H10Cl2N2O/c1-13(2)9(14)12-6-3-4-7(10)8(11)5-6/h3-5H,1-2H3,(H,12,14)

> <InChI Key_QSARr>
XMTQQYYKAHVGBJ-UHFFFAOYSA-N

> <Salt_Solvent>


> <Salt_Solvent_ID>
0

> <MPID>
99588

> <KocRef>
SRC 1992 Polar

> <LogKOC>
2.4

> <Tr_1_Tst_0>
0

$$$$
100314
  Mrv171c012251911022D          

 15 15  0  0  0  0            999 V2000
    1.5026   -1.2918    0.0000 C   0  0  0  0  0  0  0  0  0  0  0  0
    1.5026   -0.4668    0.0000 O   0  0  0  0  0  0  0  0  0  0  0  0
    0.7881   -1.7043    0.0000 N   0  0  0  0  0  0  0  0  0  0  0  0
    0.7881   -2.5293    0.0000 C   0  0  0  0  0  0  0  0  0  0  0  0
    0.0737   -1.2918    0.0000 O   0  0  0  0  0  0  0  0  0  0  0  0
   -0.6408   -1.7043    0.0000 C   0  0  0  0  0  0  0  0  0  0  0  0
    2.2171   -1.7043    0.0000 N   0  0  0  0  0  0  0  0  0  0  0  0
    2.9315   -1.2918    0.0000 C   0  0  0  0  0  0  0  0  0  0  0  0
    3.6460   -1.7043    0.0000 C   0  0  0  0  0  0  0  0  0  0  0  0
    4.3605   -1.2918    0.0000 C   0  0  0  0  0  0  0  0  0  0  0  0
    4.3605   -0.4668    0.0000 C   0  0  0  0  0  0  0  0  0  0  0  0
    5.0750   -0.0543    0.0000 Cl  0  0  0  0  0  0  0  0  0  0  0  0
    3.6460   -0.0543    0.0000 C   0  0  0  0  0  0  0  0  0  0  0  0
    3.6460    0.7707    0.0000 Cl  0  0  0  0  0  0  0  0  0  0  0  0
    2.9315   -0.4668    0.0000 C   0  0  0  0  0  0  0  0  0  0  0  0
  1  2  2  0  0  0  0
  1  3  1  0  0  0  0
  3  4  1  0  0  0  0
  3  5  1  0  0  0  0
  5  6  1  0  0  0  0
  1  7  1  0  0  0  0
  7  8  1  0  0  0  0
  9  8  2  0  0  0  0
 10  9  1  0  0  0  0
 11 10  2  0  0  0  0
 11 12  1  0  0  0  0
 13 11  1  0  0  0  0
 13 14  1  0  0  0  0
 15 13  2  0  0  0  0
  8 15  1  0  0  0  0
M  END
> <ChemID>
100314

> <CAS>
330-55-2

> <Original_SMILES>
CON(C)C(=O)Nc1cc(Cl)c(Cl)cc1

> <preferred_name>
Linuron

> <dsstox_substance_id>
DTXSID2024163

> <dsstox_compound_id>
DTXCID604163

> <qc_level>
DSSTox_Low

> <Canonical_QSARr>
CON(C)C(=O)NC1C=C(Cl)C(Cl)=CC=1

> <InChI_Code_QSARr>
InChI=1S/C9H10Cl2N2O2/c1-13(15-2)9(14)12-6-3-4-7(10)8(11)5-6/h3-5H,1-2H3,(H,12,14)

> <InChI Key_QSARr>
XKJMBINCVNINCA-UHFFFAOYSA-N

> <Salt_Solvent>


> <Salt_Solvent_ID>
0

> <MPID>
99589

> <KocRef>
Schuurmann-Main

> <LogKOC>
2.7

> <Tr_1_Tst_0>
1

$$$$
100315
  Mrv171c012251911022D          

 13 13  0  0  0  0            999 V2000
    3.0239   -2.4750    0.0000 F   0  0  0  0  0  0  0  0  0  0  0  0
    3.0239   -1.6500    0.0000 C   0  0  0  0  0  0  0  0  0  0  0  0
    3.7384   -1.2375    0.0000 C   0  0  0  0  0  0  0  0  0  0  0  0
    3.7384   -0.4125    0.0000 C   0  0  0  0  0  0  0  0  0  0  0  0
    3.0239   -0.0000    0.0000 C   0  0  0  0  0  0  0  0  0  0  0  0
    3.0239    0.8250    0.0000 N   0  0  0  0  0  0  0  0  0  0  0  0
    2.3094    1.2375    0.0000 C   0  0  0  0  0  0  0  0  0  0  0  0
    2.3094    2.0625    0.0000 N   0  0  0  0  0  0  0  0  0  0  0  0
    1.5950    2.4750    0.0000 C   0  0  0  0  0  0  0  0  0  0  0  0
    3.0239    2.4750    0.0000 C   0  0  0  0  0  0  0  0  0  0  0  0
    1.5950    0.8250    0.0000 O   0  0  0  0  0  0  0  0  0  0  0  0
    2.3094   -0.4125    0.0000 C   0  0  0  0  0  0  0  0  0  0  0  0
    2.3094   -1.2375    0.0000 C   0  0  0  0  0  0  0  0  0  0  0  0
  1  2  1  0  0  0  0
  3  2  1  0  0  0  0
  4  3  2  0  0  0  0
  5  4  1  0  0  0  0
  5  6  1  0  0  0  0
  6  7  1  0  0  0  0
  7  8  1  0  0  0  0
  8  9  1  0  0  0  0
  8 10  1  0  0  0  0
  7 11  2  0  0  0  0
 12  5  2  0  0  0  0
 13 12  1  0  0  0  0
  2 13  2  0  0  0  0
M  END
> <ChemID>
100315

> <CAS>
332-33-2

> <Original_SMILES>
CN(C)C(=O)Nc1ccc(F)cc1

> <preferred_name>
Urea, 1,1-dimethyl-3-(p-fluorophenyl)-

> <dsstox_substance_id>
DTXSID50186843

> <dsstox_compound_id>
DTXCID90109334

> <qc_level>
Public_Medium

> <Canonical_QSARr>
CN(C)C(=O)NC1C=CC(F)=CC=1

> <InChI_Code_QSARr>
InChI=1S/C9H11FN2O/c1-12(2)9(13)11-8-5-3-7(10)4-6-8/h3-6H,1-2H3,(H,11,13)

> <InChI Key_QSARr>
GNIZUUCYAIPGKZ-UHFFFAOYSA-N

> <Salt_Solvent>


> <Salt_Solvent_ID>
0

> <MPID>
99590

> <KocRef>
Schuurmann-Main

> <LogKOC>
1.43

> <Tr_1_Tst_0>
1

$$$$
100316
  Mrv171c012251911022D          

 19 19  0  0  0  0            999 V2000
    4.2721   -2.8811    0.0000 S   0  0  0  0  0  0  0  0  0  0  0  0
    3.8596   -2.1666    0.0000 P   0  0  0  0  0  0  0  0  0  0  0  0
    4.5741   -1.7541    0.0000 O   0  0  0  0  0  0  0  0  0  0  0  0
    5.2885   -2.1666    0.0000 C   0  0  0  0  0  0  0  0  0  0  0  0
    6.0030   -1.7541    0.0000 C   0  0  0  0  0  0  0  0  0  0  0  0
    3.4471   -1.4522    0.0000 O   0  0  0  0  0  0  0  0  0  0  0  0
    3.8596   -0.7377    0.0000 C   0  0  0  0  0  0  0  0  0  0  0  0
    4.6846   -0.7377    0.0000 C   0  0  0  0  0  0  0  0  0  0  0  0
    3.1451   -2.5791    0.0000 O   0  0  0  0  0  0  0  0  0  0  0  0
    2.4307   -2.1666    0.0000 C   0  0  0  0  0  0  0  0  0  0  0  0
    2.4307   -1.3416    0.0000 C   0  0  0  0  0  0  0  0  0  0  0  0
    1.7162   -0.9291    0.0000 C   0  0  0  0  0  0  0  0  0  0  0  0
    1.7162   -0.1041    0.0000 C   0  0  0  0  0  0  0  0  0  0  0  0
    1.0017   -1.3416    0.0000 N   0  0  0  0  0  0  0  0  0  0  0  0
    1.0017   -2.1666    0.0000 C   0  0  0  0  0  0  0  0  0  0  0  0
    0.2872   -2.5791    0.0000 C   0  0  0  0  0  0  0  0  0  0  0  0
    0.2872   -3.4041    0.0000 C   0  0  0  0  0  0  0  0  0  0  0  0
   -0.4272   -2.1666    0.0000 C   0  0  0  0  0  0  0  0  0  0  0  0
    1.7162   -2.5791    0.0000 N   0  0  0  0  0  0  0  0  0  0  0  0
  1  2  2  0  0  0  0
  2  3  1  0  0  0  0
  3  4  1  0  0  0  0
  4  5  1  0  0  0  0
  2  6  1  0  0  0  0
  6  7  1  0  0  0  0
  7  8  1  0  0  0  0
  2  9  1  0  0  0  0
  9 10  1  0  0  0  0
 11 10  1  0  0  0  0
 12 11  2  0  0  0  0
 12 13  1  0  0  0  0
 14 12  1  0  0  0  0
 15 14  2  0  0  0  0
 15 16  1  0  0  0  0
 16 17  1  0  0  0  0
 16 18  1  0  0  0  0
 19 15  1  0  0  0  0
 10 19  2  0  0  0  0
M  END
> <ChemID>
100316

> <CAS>
333-41-5

> <Original_SMILES>
Cc1cc([n]c([n]1)C(C)C)OP(=S)(OCC)OCC

> <preferred_name>
Diazinon

> <dsstox_substance_id>
DTXSID9020407

> <dsstox_compound_id>
DTXCID50407

> <qc_level>
DSSTox_Low

> <Canonical_QSARr>
CC1=CC(=NC(=N1)C(C)C)OP(=S)(OCC)OCC

> <InChI_Code_QSARr>
InChI=1S/C12H21N2O3PS/c1-6-15-18(19,16-7-2)17-11-8-10(5)13-12(14-11)9(3)4/h8-9H,6-7H2,1-5H3

> <InChI Key_QSARr>
FHIVAFMUCKRCQO-UHFFFAOYSA-N

> <Salt_Solvent>


> <Salt_Solvent_ID>
0

> <MPID>
99591

> <KocRef>
Schuurmann-Main

> <LogKOC>
2.75

> <Tr_1_Tst_0>
1

$$$$
100317
  Mrv171c012251911022D          

 11 11  0  0  0  0            999 V2000
    1.6499   -1.8563    0.0000 F   0  0  0  0  0  0  0  0  0  0  0  0
    2.3644   -1.4438    0.0000 C   0  0  0  0  0  0  0  0  0  0  0  0
    3.0789   -1.8563    0.0000 C   0  0  0  0  0  0  0  0  0  0  0  0
    3.7933   -1.4438    0.0000 C   0  0  0  0  0  0  0  0  0  0  0  0
    3.7933   -0.6188    0.0000 C   0  0  0  0  0  0  0  0  0  0  0  0
    3.0789   -0.2063    0.0000 C   0  0  0  0  0  0  0  0  0  0  0  0
    3.0789    0.6187    0.0000 N   0  0  0  0  0  0  0  0  0  0  0  0
    3.7933    1.0312    0.0000 C   0  0  0  0  0  0  0  0  0  0  0  0
    3.7933    1.8562    0.0000 C   0  0  0  0  0  0  0  0  0  0  0  0
    4.5078    0.6187    0.0000 O   0  0  0  0  0  0  0  0  0  0  0  0
    2.3644   -0.6188    0.0000 C   0  0  0  0  0  0  0  0  0  0  0  0
  1  2  1  0  0  0  0
  3  2  2  0  0  0  0
  4  3  1  0  0  0  0
  5  4  2  0  0  0  0
  6  5  1  0  0  0  0
  6  7  1  0  0  0  0
  7  8  1  0  0  0  0
  8  9  1  0  0  0  0
  8 10  2  0  0  0  0
 11  6  2  0  0  0  0
  2 11  1  0  0  0  0
M  END
> <ChemID>
100317

> <CAS>
351-28-0

> <Original_SMILES>
CC(=O)Nc1cccc(F)c1

> <preferred_name>
N-(3-Fluorophenyl)acetamide

> <dsstox_substance_id>
DTXSID00188594

> <dsstox_compound_id>
DTXCID60111085

> <qc_level>
Public_Medium

> <Canonical_QSARr>
CC(=O)NC1C=CC=C(F)C=1

> <InChI_Code_QSARr>
InChI=1S/C8H8FNO/c1-6(11)10-8-4-2-3-7(9)5-8/h2-5H,1H3,(H,10,11)

> <InChI Key_QSARr>
AQLLDCFUQXGLHM-UHFFFAOYSA-N

> <Salt_Solvent>


> <Salt_Solvent_ID>
0

> <MPID>
99592

> <KocRef>
Schuurmann-Main

> <LogKOC>
1.57

> <Tr_1_Tst_0>
0

$$$$
100318
  Mrv171c012251911022D          

 14 14  0  0  0  0            999 V2000
    1.4968   -1.7089    0.0000 F   0  0  0  0  0  0  0  0  0  0  0  0
    2.2113   -1.2964    0.0000 C   0  0  0  0  0  0  0  0  0  0  0  0
    2.9258   -0.8839    0.0000 C   0  0  0  0  0  0  0  0  0  0  0  0
    3.6403   -1.2964    0.0000 C   0  0  0  0  0  0  0  0  0  0  0  0
    4.3547   -0.8839    0.0000 C   0  0  0  0  0  0  0  0  0  0  0  0
    4.3547   -0.0589    0.0000 C   0  0  0  0  0  0  0  0  0  0  0  0
    3.6403    0.3536    0.0000 C   0  0  0  0  0  0  0  0  0  0  0  0
    3.6403    1.1786    0.0000 N   0  0  0  0  0  0  0  0  0  0  0  0
    4.3547    1.5911    0.0000 C   0  0  0  0  0  0  0  0  0  0  0  0
    4.3547    2.4161    0.0000 C   0  0  0  0  0  0  0  0  0  0  0  0
    5.0692    1.1786    0.0000 O   0  0  0  0  0  0  0  0  0  0  0  0
    2.9258   -0.0589    0.0000 C   0  0  0  0  0  0  0  0  0  0  0  0
    2.6238   -2.0109    0.0000 F   0  0  0  0  0  0  0  0  0  0  0  0
    1.7988   -0.5820    0.0000 F   0  0  0  0  0  0  0  0  0  0  0  0
  1  2  1  0  0  0  0
  2  3  1  0  0  0  0
  4  3  1  0  0  0  0
  5  4  2  0  0  0  0
  6  5  1  0  0  0  0
  7  6  2  0  0  0  0
  7  8  1  0  0  0  0
  8  9  1  0  0  0  0
  9 10  1  0  0  0  0
  9 11  2  0  0  0  0
 12  7  1  0  0  0  0
  3 12  2  0  0  0  0
  2 13  1  0  0  0  0
  2 14  1  0  0  0  0
M  END
> <ChemID>
100318

> <CAS>
351-36-0

> <Original_SMILES>
CC(=O)Nc1cc(ccc1)C(F)(F)F

> <preferred_name>
Acetamide, N-(3-(trifluoromethyl)phenyl)- (9CI)

> <dsstox_substance_id>
DTXSID60188595

> <dsstox_compound_id>
DTXCID20111086

> <qc_level>
Public_Medium

> <Canonical_QSARr>
CC(=O)NC1C=C(C=CC=1)C(F)(F)F

> <InChI_Code_QSARr>
InChI=1S/C9H8F3NO/c1-6(14)13-8-4-2-3-7(5-8)9(10,11)12/h2-5H,1H3,(H,13,14)

> <InChI Key_QSARr>
HNIPNANLYHXYDE-UHFFFAOYSA-N

> <Salt_Solvent>


> <Salt_Solvent_ID>
0

> <MPID>
99593

> <KocRef>
Schuurmann-Main

> <LogKOC>
1.75

> <Tr_1_Tst_0>
1

$$$$
100319
  Mrv171c012251911022D          

 11 11  0  0  0  0            999 V2000
    2.3645   -2.2688    0.0000 F   0  0  0  0  0  0  0  0  0  0  0  0
    2.3645   -1.4438    0.0000 C   0  0  0  0  0  0  0  0  0  0  0  0
    3.0790   -1.0313    0.0000 C   0  0  0  0  0  0  0  0  0  0  0  0
    3.0790   -0.2063    0.0000 C   0  0  0  0  0  0  0  0  0  0  0  0
    2.3645    0.2062    0.0000 C   0  0  0  0  0  0  0  0  0  0  0  0
    2.3645    1.0312    0.0000 N   0  0  0  0  0  0  0  0  0  0  0  0
    3.0790    1.4437    0.0000 C   0  0  0  0  0  0  0  0  0  0  0  0
    3.0790    2.2687    0.0000 C   0  0  0  0  0  0  0  0  0  0  0  0
    3.7934    1.0312    0.0000 O   0  0  0  0  0  0  0  0  0  0  0  0
    1.6500   -0.2063    0.0000 C   0  0  0  0  0  0  0  0  0  0  0  0
    1.6500   -1.0313    0.0000 C   0  0  0  0  0  0  0  0  0  0  0  0
  1  2  1  0  0  0  0
  3  2  1  0  0  0  0
  4  3  2  0  0  0  0
  5  4  1  0  0  0  0
  5  6  1  0  0  0  0
  6  7  1  0  0  0  0
  7  8  1  0  0  0  0
  7  9  2  0  0  0  0
 10  5  2  0  0  0  0
 11 10  1  0  0  0  0
  2 11  2  0  0  0  0
M  END
> <ChemID>
100319

> <CAS>
351-83-7

> <Original_SMILES>
CC(=O)Nc1ccc(F)cc1

> <preferred_name>
4-Fluoroacetanilide

> <dsstox_substance_id>
DTXSID40188598

> <dsstox_compound_id>
DTXCID00111089

> <qc_level>
Public_Medium

> <Canonical_QSARr>
CC(=O)NC1C=CC(F)=CC=1

> <InChI_Code_QSARr>
InChI=1S/C8H8FNO/c1-6(11)10-8-4-2-7(9)3-5-8/h2-5H,1H3,(H,10,11)

> <InChI Key_QSARr>
JHEFOJNPLXSWNZ-UHFFFAOYSA-N

> <Salt_Solvent>


> <Salt_Solvent_ID>
0

> <MPID>
99594

> <KocRef>
Schuurmann-Main

> <LogKOC>
1.48

> <Tr_1_Tst_0>
1

$$$$
100320
  Mrv171c012251911022D          

 12 13  0  0  0  0            999 V2000
    1.3359   -1.5465    0.0000 N   0  0  0  0  0  0  0  0  0  0  0  0
    1.3359   -2.3715    0.0000 C   0  0  0  0  0  0  0  0  0  0  0  0
    2.0504   -2.7840    0.0000 C   0  0  0  0  0  0  0  0  0  0  0  0
    2.7648   -2.3715    0.0000 C   0  0  0  0  0  0  0  0  0  0  0  0
    2.7648   -1.5465    0.0000 C   0  0  0  0  0  0  0  0  0  0  0  0
    2.0504   -1.1340    0.0000 C   0  0  0  0  0  0  0  0  0  0  0  0
    2.0504   -0.3090    0.0000 C   0  0  0  0  0  0  0  0  0  0  0  0
    2.7648    0.1035    0.0000 C   0  0  0  0  0  0  0  0  0  0  0  0
    2.7648    0.9285    0.0000 C   0  0  0  0  0  0  0  0  0  0  0  0
    2.0504    1.3410    0.0000 C   0  0  0  0  0  0  0  0  0  0  0  0
    1.3359    0.9285    0.0000 C   0  0  0  0  0  0  0  0  0  0  0  0
    1.3359    0.1035    0.0000 N   0  0  0  0  0  0  0  0  0  0  0  0
  2  1  2  0  0  0  0
  3  2  1  0  0  0  0
  4  3  2  0  0  0  0
  5  4  1  0  0  0  0
  6  5  2  0  0  0  0
  1  6  1  0  0  0  0
  6  7  1  0  0  0  0
  8  7  2  0  0  0  0
  9  8  1  0  0  0  0
 10  9  2  0  0  0  0
 11 10  1  0  0  0  0
 12 11  2  0  0  0  0
  7 12  1  0  0  0  0
M  END
> <ChemID>
100320

> <CAS>
366-18-7

> <Original_SMILES>
c1ccc[n]c1-c1cccc[n]1

> <preferred_name>
2,2'-Dipyridyl

> <dsstox_substance_id>
DTXSID9040635

> <dsstox_compound_id>
DTXCID7020635

> <qc_level>
DSSTox_Low

> <Canonical_QSARr>
C1C=CC=NC=1C1=CC=CC=N1

> <InChI_Code_QSARr>
InChI=1S/C10H8N2/c1-3-7-11-9(5-1)10-6-2-4-8-12-10/h1-8H

> <InChI Key_QSARr>
ROFVEXUMMXZLPA-UHFFFAOYSA-N

> <Salt_Solvent>


> <Salt_Solvent_ID>
0

> <MPID>
99595

> <KocRef>
Schuurmann-Main

> <LogKOC>
1.6

> <Tr_1_Tst_0>
1

$$$$
100322
  Mrv171c012251911022D          

 20 20  0  0  0  0            999 V2000
   -0.7145    5.3625    0.0000 C   0  0  0  0  0  0  0  0  0  0  0  0
   -0.7145    4.5375    0.0000 C   0  0  0  0  0  0  0  0  0  0  0  0
    0.0000    4.1250    0.0000 O   0  0  0  0  0  0  0  0  0  0  0  0
    0.0000    3.3000    0.0000 P   0  0  0  0  0  0  0  0  0  0  0  0
   -0.8250    3.3000    0.0000 O   0  0  0  0  0  0  0  0  0  0  0  0
    0.0000    2.4750    0.0000 O   0  0  0  0  0  0  0  0  0  0  0  0
    0.7145    2.0625    0.0000 C   0  0  0  0  0  0  0  0  0  0  0  0
    1.4289    2.4750    0.0000 C   0  0  0  0  0  0  0  0  0  0  0  0
    2.1434    2.0625    0.0000 Cl  0  0  0  0  0  0  0  0  0  0  0  0
    0.7145    1.2375    0.0000 C   0  0  0  0  0  0  0  0  0  0  0  0
    1.4289    0.8250    0.0000 C   0  0  0  0  0  0  0  0  0  0  0  0
    1.4289   -0.0000    0.0000 C   0  0  0  0  0  0  0  0  0  0  0  0
    0.7145   -0.4125    0.0000 C   0  0  0  0  0  0  0  0  0  0  0  0
    0.7145   -1.2375    0.0000 Cl  0  0  0  0  0  0  0  0  0  0  0  0
    0.0000    0.0000    0.0000 C   0  0  0  0  0  0  0  0  0  0  0  0
    0.0000    0.8250    0.0000 C   0  0  0  0  0  0  0  0  0  0  0  0
   -0.7145    1.2375    0.0000 Cl  0  0  0  0  0  0  0  0  0  0  0  0
    0.8250    3.3000    0.0000 O   0  0  0  0  0  0  0  0  0  0  0  0
    1.2375    4.0145    0.0000 C   0  0  0  0  0  0  0  0  0  0  0  0
    2.0625    4.0145    0.0000 C   0  0  0  0  0  0  0  0  0  0  0  0
  1  2  1  0  0  0  0
  2  3  1  0  0  0  0
  3  4  1  0  0  0  0
  4  5  2  0  0  0  0
  4  6  1  0  0  0  0
  6  7  1  0  0  0  0
  7  8  2  0  0  0  0
  8  9  1  4  0  0  0
  7 10  1  0  0  0  0
 10 11  1  0  0  0  0
 11 12  2  0  0  0  0
 12 13  1  0  0  0  0
 13 14  1  0  0  0  0
 13 15  2  0  0  0  0
 15 16  1  0  0  0  0
 10 16  2  0  0  0  0
 16 17  1  0  0  0  0
  4 18  1  0  0  0  0
 18 19  1  0  0  0  0
 19 20  1  0  0  0  0
M  END
> <ChemID>
100322

> <CAS>
470-90-6

> <Original_SMILES>
CCOP(=O)(OC(=CCl)c1ccc(Cl)cc1Cl)OCC

> <preferred_name>
Chlorfenvinphos

> <dsstox_substance_id>
DTXSID7034250

> <dsstox_compound_id>
DTXCID5014250

> <qc_level>
DSSTox_Low

> <Canonical_QSARr>
CCOP(=O)(OC(=CCl)C1C=CC(Cl)=CC=1Cl)OCC

> <InChI_Code_QSARr>
InChI=1S/C12H14Cl3O4P/c1-3-17-20(16,18-4-2)19-12(8-13)10-6-5-9(14)7-11(10)15/h5-8H,3-4H2,1-2H3

> <InChI Key_QSARr>
FSAVDKDHPDSCTO-UHFFFAOYSA-N

> <Salt_Solvent>


> <Salt_Solvent_ID>
0

> <MPID>
99596

> <KocRef>
Schuurmann-Main

> <LogKOC>
2.47

> <Tr_1_Tst_0>
0

$$$$
100323
  Mrv171c012251911022D          

 20 21  0  0  0  0            999 V2000
    2.7112   -2.3053    0.0000 C   0  0  0  0  0  0  0  0  0  0  0  0
    1.9967   -2.7178    0.0000 N   0  0  0  0  0  0  0  0  0  0  0  0
    2.7112   -1.4803    0.0000 C   0  0  0  0  0  0  0  0  0  0  0  0
    3.4257   -1.0678    0.0000 C   0  0  0  0  0  0  0  0  0  0  0  0
    3.4257   -0.2428    0.0000 C   0  0  0  0  0  0  0  0  0  0  0  0
    2.7112    0.1697    0.0000 C   0  0  0  0  0  0  0  0  0  0  0  0
    2.7112    0.9947    0.0000 N   0  0  0  0  0  0  0  0  0  0  0  0
    1.9967    1.4072    0.0000 C   0  0  0  0  0  0  0  0  0  0  0  0
    3.4257    1.4072    0.0000 C   0  0  0  0  0  0  0  0  0  0  0  0
    1.9967   -0.2428    0.0000 C   0  0  0  0  0  0  0  0  0  0  0  0
    1.9967   -1.0678    0.0000 C   0  0  0  0  0  0  0  0  0  0  0  0
    3.4257   -2.7178    0.0000 C   0  0  0  0  0  0  0  0  0  0  0  0
    3.4257   -3.5428    0.0000 C   0  0  0  0  0  0  0  0  0  0  0  0
    4.1402   -3.9553    0.0000 C   0  0  0  0  0  0  0  0  0  0  0  0
    4.8546   -3.5428    0.0000 C   0  0  0  0  0  0  0  0  0  0  0  0
    5.5691   -3.9553    0.0000 N   0  0  0  0  0  0  0  0  0  0  0  0
    6.2836   -3.5428    0.0000 C   0  0  0  0  0  0  0  0  0  0  0  0
    5.5691   -4.7803    0.0000 C   0  0  0  0  0  0  0  0  0  0  0  0
    4.8546   -2.7178    0.0000 C   0  0  0  0  0  0  0  0  0  0  0  0
    4.1402   -2.3053    0.0000 C   0  0  0  0  0  0  0  0  0  0  0  0
  1  2  2  0  0  0  0
  1  3  1  0  0  0  0
  4  3  2  0  0  0  0
  5  4  1  0  0  0  0
  6  5  2  0  0  0  0
  6  7  1  0  0  0  0
  7  8  1  0  0  0  0
  7  9  1  0  0  0  0
 10  6  1  0  0  0  0
 11 10  2  0  0  0  0
  3 11  1  0  0  0  0
  1 12  1  0  0  0  0
 13 12  2  0  0  0  0
 14 13  1  0  0  0  0
 15 14  2  0  0  0  0
 15 16  1  0  0  0  0
 16 17  1  0  0  0  0
 16 18  1  0  0  0  0
 19 15  1  0  0  0  0
 20 19  2  0  0  0  0
 12 20  1  0  0  0  0
M  END
> <ChemID>
100323

> <CAS>
492-80-8

> <Original_SMILES>
CN(C)c1ccc(cc1)C(=N)c1ccc(cc1)N(C)C

> <preferred_name>
Auramine

> <dsstox_substance_id>
DTXSID7043821

> <dsstox_compound_id>
DTXCID5023821

> <qc_level>
DSSTox_High

> <Canonical_QSARr>
CN(C)C1C=CC(=CC=1)C(=N)C1C=CC(=CC=1)N(C)C

> <InChI_Code_QSARr>
InChI=1S/C17H21N3/c1-19(2)15-9-5-13(6-10-15)17(18)14-7-11-16(12-8-14)20(3)4/h5-12,18H,1-4H3

> <InChI Key_QSARr>
JPIYZTWMUGTEHX-UHFFFAOYSA-N

> <Salt_Solvent>


> <Salt_Solvent_ID>
0

> <MPID>
99597

> <KocRef>
Schuurmann-Main

> <LogKOC>
3.31

> <Tr_1_Tst_0>
1

$$$$
100324
  Mrv171c012251911022D          

 15 16  0  0  0  0            999 V2000
    2.4265   -0.9626    0.0000 N   0  0  0  0  0  0  0  0  0  0  0  0
    2.4265   -1.7876    0.0000 C   0  0  0  0  0  0  0  0  0  0  0  0
    1.7121   -2.2001    0.0000 C   0  0  0  0  0  0  0  0  0  0  0  0
    1.7121   -3.0251    0.0000 C   0  0  0  0  0  0  0  0  0  0  0  0
    2.4265   -3.4376    0.0000 C   0  0  0  0  0  0  0  0  0  0  0  0
    3.1410   -3.0251    0.0000 C   0  0  0  0  0  0  0  0  0  0  0  0
    3.1410   -2.2001    0.0000 C   0  0  0  0  0  0  0  0  0  0  0  0
    3.1410   -0.5501    0.0000 N   0  3  0  0  0  0  0  0  0  0  0  0
    3.8555   -0.9626    0.0000 O   0  5  0  0  0  0  0  0  0  0  0  0
    3.1410    0.2749    0.0000 C   0  0  0  0  0  0  0  0  0  0  0  0
    3.8555    0.6874    0.0000 C   0  0  0  0  0  0  0  0  0  0  0  0
    3.8555    1.5124    0.0000 C   0  0  0  0  0  0  0  0  0  0  0  0
    3.1410    1.9249    0.0000 C   0  0  0  0  0  0  0  0  0  0  0  0
    2.4265    1.5124    0.0000 C   0  0  0  0  0  0  0  0  0  0  0  0
    2.4265    0.6874    0.0000 C   0  0  0  0  0  0  0  0  0  0  0  0
  1  2  1  4  0  0  0
  3  2  1  0  0  0  0
  4  3  2  0  0  0  0
  5  4  1  0  0  0  0
  6  5  2  0  0  0  0
  7  6  1  0  0  0  0
  2  7  2  0  0  0  0
  1  8  2  0  0  0  0
  8  9  1  0  0  0  0
  8 10  1  0  0  0  0
 11 10  1  0  0  0  0
 12 11  2  0  0  0  0
 13 12  1  0  0  0  0
 14 13  2  0  0  0  0
 15 14  1  0  0  0  0
 10 15  2  0  0  0  0
M  CHG  2   8   1   9  -1
M  END
> <ChemID>
100324

> <CAS>
495-48-7

> <Original_SMILES>
[O-][N+](=Nc1ccccc1)c1ccccc1

> <preferred_name>
Azoxybenzene

> <dsstox_substance_id>
DTXSID0024555

> <dsstox_compound_id>
DTXCID904555

> <qc_level>
DSSTox_Low

> <Canonical_QSARr>
[O-][N+](=NC1C=CC=CC=1)C1C=CC=CC=1

> <InChI_Code_QSARr>
InChI=1S/C12H10N2O/c15-14(12-9-5-2-6-10-12)13-11-7-3-1-4-8-11/h1-10H

> <InChI Key_QSARr>
GAUZCKBSTZFWCT-UHFFFAOYSA-N

> <Salt_Solvent>


> <Salt_Solvent_ID>
0

> <MPID>
99598

> <KocRef>
SRC 1992 Polar

> <LogKOC>
3.5

> <Tr_1_Tst_0>
1

$$$$
100325
  Mrv171c012251911022D          

 21 22  0  0  0  0            999 V2000
    0.3563   -2.9393    0.0000 O   0  0  0  0  0  0  0  0  0  0  0  0
    1.1813   -2.9393    0.0000 C   0  0  0  0  0  0  0  0  0  0  0  0
    2.0063   -2.9393    0.0000 C   0  0  0  0  0  0  0  0  0  0  0  0
    2.4188   -3.6538    0.0000 O   0  0  0  0  0  0  0  0  0  0  0  0
    3.2438   -3.6538    0.0000 C   0  0  0  0  0  0  0  0  0  0  0  0
    3.6563   -4.3683    0.0000 C   0  0  0  0  0  0  0  0  0  0  0  0
    2.4188   -2.2249    0.0000 O   0  0  0  0  0  0  0  0  0  0  0  0
    1.1813   -2.1143    0.0000 C   0  0  0  0  0  0  0  0  0  0  0  0
    1.8958   -1.7018    0.0000 C   0  0  0  0  0  0  0  0  0  0  0  0
    1.8958   -0.8768    0.0000 C   0  0  0  0  0  0  0  0  0  0  0  0
    1.1813   -0.4643    0.0000 C   0  0  0  0  0  0  0  0  0  0  0  0
    1.1813    0.3607    0.0000 Cl  0  0  0  0  0  0  0  0  0  0  0  0
    0.4668   -0.8768    0.0000 C   0  0  0  0  0  0  0  0  0  0  0  0
    0.4668   -1.7018    0.0000 C   0  0  0  0  0  0  0  0  0  0  0  0
    1.1813   -3.7643    0.0000 C   0  0  0  0  0  0  0  0  0  0  0  0
    0.4668   -4.1768    0.0000 C   0  0  0  0  0  0  0  0  0  0  0  0
    0.4668   -5.0018    0.0000 C   0  0  0  0  0  0  0  0  0  0  0  0
    1.1813   -5.4143    0.0000 C   0  0  0  0  0  0  0  0  0  0  0  0
    1.1813   -6.2393    0.0000 Cl  0  0  0  0  0  0  0  0  0  0  0  0
    1.8958   -5.0018    0.0000 C   0  0  0  0  0  0  0  0  0  0  0  0
    1.8958   -4.1768    0.0000 C   0  0  0  0  0  0  0  0  0  0  0  0
  1  2  1  0  0  0  0
  2  3  1  0  0  0  0
  3  4  1  0  0  0  0
  4  5  1  0  0  0  0
  5  6  1  0  0  0  0
  3  7  2  0  0  0  0
  2  8  1  0  0  0  0
  9  8  1  0  0  0  0
 10  9  2  0  0  0  0
 11 10  1  0  0  0  0
 11 12  1  0  0  0  0
 13 11  2  0  0  0  0
 14 13  1  0  0  0  0
  8 14  2  0  0  0  0
  2 15  1  0  0  0  0
 16 15  1  0  0  0  0
 17 16  2  0  0  0  0
 18 17  1  0  0  0  0
 18 19  1  0  0  0  0
 20 18  2  0  0  0  0
 21 20  1  0  0  0  0
 15 21  2  0  0  0  0
M  END
> <ChemID>
100325

> <CAS>
510-15-6

> <Original_SMILES>
CCOC(=O)C(O)(c1ccc(Cl)cc1)c1ccc(Cl)cc1

> <preferred_name>
Chlorobenzilate

> <dsstox_substance_id>
DTXSID9020299

> <dsstox_compound_id>
DTXCID70299

> <qc_level>
DSSTox_Low

> <Canonical_QSARr>
CCOC(=O)C(O)(C1C=CC(Cl)=CC=1)C1C=CC(Cl)=CC=1

> <InChI_Code_QSARr>
InChI=1S/C16H14Cl2O3/c1-2-21-15(19)16(20,11-3-7-13(17)8-4-11)12-5-9-14(18)10-6-12/h3-10,20H,2H2,1H3

> <InChI Key_QSARr>
RAPBNVDSDCTNRC-UHFFFAOYSA-N

> <Salt_Solvent>


> <Salt_Solvent_ID>
0

> <MPID>
99599

> <KocRef>
Schuurmann-Main

> <LogKOC>
3.3

> <Tr_1_Tst_0>
1

$$$$
100326
  Mrv171c012251911022D          

  9  9  0  0  0  0            999 V2000
    2.1436   -1.2419    0.0000 C   0  0  0  0  0  0  0  0  0  0  0  0
    2.8581   -0.8294    0.0000 C   0  0  0  0  0  0  0  0  0  0  0  0
    1.4292   -0.8294    0.0000 C   0  0  0  0  0  0  0  0  0  0  0  0
    1.4292   -0.0044    0.0000 C   0  0  0  0  0  0  0  0  0  0  0  0
    0.7147   -1.2419    0.0000 C   0  0  0  0  0  0  0  0  0  0  0  0
    0.0002   -0.8294    0.0000 C   0  0  0  0  0  0  0  0  0  0  0  0
    0.7147   -2.0669    0.0000 C   0  0  0  0  0  0  0  0  0  0  0  0
    1.4292   -2.4794    0.0000 C   0  0  0  0  0  0  0  0  0  0  0  0
    2.1436   -2.0669    0.0000 C   0  0  0  0  0  0  0  0  0  0  0  0
  1  2  1  0  0  0  0
  3  1  1  0  0  0  0
  3  4  1  0  0  0  0
  5  3  2  0  0  0  0
  5  6  1  0  0  0  0
  7  5  1  0  0  0  0
  8  7  2  0  0  0  0
  9  8  1  0  0  0  0
  1  9  2  0  0  0  0
M  END
> <ChemID>
100326

> <CAS>
526-73-8

> <Original_SMILES>
Cc1c(C)cccc1C

> <preferred_name>
1,2,3-Trimethylbenzene

> <dsstox_substance_id>
DTXSID8047769

> <dsstox_compound_id>
DTXCID7027750

> <qc_level>
DSSTox_Low

> <Canonical_QSARr>
CC1C=CC=C(C)C=1C

> <InChI_Code_QSARr>
InChI=1S/C9H12/c1-7-5-4-6-8(2)9(7)3/h4-6H,1-3H3

> <InChI Key_QSARr>
FYGHSUNMUKGBRK-UHFFFAOYSA-N

> <Salt_Solvent>


> <Salt_Solvent_ID>
0

> <MPID>
99600

> <KocRef>
SRC 1992 Non-Polar

> <LogKOC>
2.8

> <Tr_1_Tst_0>
0

$$$$
100327
  Mrv171c012251911022D          

 12 12  0  0  0  0            999 V2000
    2.1378   -1.2352    0.0000 C   0  0  0  0  0  0  0  0  0  0  0  0
    2.8523   -0.8227    0.0000 N   0  0  0  0  0  0  0  0  0  0  0  0
    1.4233   -0.8227    0.0000 C   0  0  0  0  0  0  0  0  0  0  0  0
    1.4233    0.0023    0.0000 Cl  0  0  0  0  0  0  0  0  0  0  0  0
    0.7089   -1.2352    0.0000 C   0  0  0  0  0  0  0  0  0  0  0  0
   -0.0056   -0.8227    0.0000 Cl  0  0  0  0  0  0  0  0  0  0  0  0
    0.7089   -2.0602    0.0000 C   0  0  0  0  0  0  0  0  0  0  0  0
   -0.0056   -2.4727    0.0000 Cl  0  0  0  0  0  0  0  0  0  0  0  0
    1.4233   -2.4727    0.0000 C   0  0  0  0  0  0  0  0  0  0  0  0
    1.4233   -3.2977    0.0000 Cl  0  0  0  0  0  0  0  0  0  0  0  0
    2.1378   -2.0602    0.0000 C   0  0  0  0  0  0  0  0  0  0  0  0
    2.8523   -2.4727    0.0000 Cl  0  0  0  0  0  0  0  0  0  0  0  0
  1  2  1  0  0  0  0
  3  1  1  0  0  0  0
  3  4  1  0  0  0  0
  5  3  2  0  0  0  0
  5  6  1  0  0  0  0
  7  5  1  0  0  0  0
  7  8  1  0  0  0  0
  9  7  2  0  0  0  0
  9 10  1  0  0  0  0
 11  9  1  0  0  0  0
  1 11  2  0  0  0  0
 11 12  1  0  0  0  0
M  END
> <ChemID>
100327

> <CAS>
527-20-8

> <Original_SMILES>
Nc1c(Cl)c(Cl)c(Cl)c(Cl)c1Cl

> <preferred_name>
Pentachloroaniline

> <dsstox_substance_id>
DTXSID4037584

> <dsstox_compound_id>
DTXCID2017584

> <qc_level>
DSSTox_Low

> <Canonical_QSARr>
NC1C(Cl)=C(Cl)C(Cl)=C(Cl)C=1Cl

> <InChI_Code_QSARr>
InChI=1S/C6H2Cl5N/c7-1-2(8)4(10)6(12)5(11)3(1)9/h12H2

> <InChI Key_QSARr>
KHCZSJXTDDHLGJ-UHFFFAOYSA-N

> <Salt_Solvent>


> <Salt_Solvent_ID>
0

> <MPID>
99601

> <KocRef>
Schuurmann-Main

> <LogKOC>
4.62

> <Tr_1_Tst_0>
1

$$$$
100328
  Mrv171c012251911022D          

 15 15  0  0  0  0            999 V2000
    1.0955    0.5775    0.0000 C   0  0  0  0  0  0  0  0  0  0  0  0
    1.8100    0.1650    0.0000 N   0  3  0  0  0  0  0  0  0  0  0  0
    1.8100   -0.6600    0.0000 O   0  5  0  0  0  0  0  0  0  0  0  0
    2.5245    0.5775    0.0000 O   0  0  0  0  0  0  0  0  0  0  0  0
    1.0955    1.4025    0.0000 C   0  0  0  0  0  0  0  0  0  0  0  0
    0.3810    1.8150    0.0000 C   0  0  0  0  0  0  0  0  0  0  0  0
    0.3810    2.6400    0.0000 C   0  0  0  0  0  0  0  0  0  0  0  0
   -0.3334    3.0525    0.0000 O   0  0  0  0  0  0  0  0  0  0  0  0
    1.0955    3.0525    0.0000 O   0  0  0  0  0  0  0  0  0  0  0  0
   -0.3334    1.4025    0.0000 C   0  0  0  0  0  0  0  0  0  0  0  0
   -0.3334    0.5775    0.0000 C   0  0  0  0  0  0  0  0  0  0  0  0
    0.3810    0.1650    0.0000 C   0  0  0  0  0  0  0  0  0  0  0  0
    0.3810   -0.6600    0.0000 N   0  3  0  0  0  0  0  0  0  0  0  0
    1.0955   -1.0725    0.0000 O   0  5  0  0  0  0  0  0  0  0  0  0
   -0.3334   -1.0725    0.0000 O   0  0  0  0  0  0  0  0  0  0  0  0
  1  2  1  0  0  0  0
  2  3  1  0  0  0  0
  2  4  2  0  0  0  0
  5  1  1  0  0  0  0
  6  5  2  0  0  0  0
  6  7  1  0  0  0  0
  7  8  2  0  0  0  0
  7  9  1  0  0  0  0
 10  6  1  0  0  0  0
 11 10  2  0  0  0  0
 12 11  1  0  0  0  0
  1 12  2  0  0  0  0
 12 13  1  0  0  0  0
 13 14  1  0  0  0  0
 13 15  2  0  0  0  0
M  CHG  4   2   1   3  -1  13   1  14  -1
M  END
> <ChemID>
100328

> <CAS>
528-45-0

> <Original_SMILES>
[O-][N+](=O)c1ccc(cc1[N+]([O-])=O)C(O)=O

> <preferred_name>
Benzoic acid, 3,4-dinitro-

> <dsstox_substance_id>
DTXSID1060180

> <dsstox_compound_id>
DTXCID8041298

> <qc_level>
Public_High

> <Canonical_QSARr>
[O-][N+](=O)C1C=CC(=CC=1[N+]([O-])=O)C(O)=O

> <InChI_Code_QSARr>
InChI=1S/C7H4N2O6/c10-7(11)4-1-2-5(8(12)13)6(3-4)9(14)15/h1-3H,(H,10,11)

> <InChI Key_QSARr>
OMVRRHJJQILIJX-UHFFFAOYSA-N

> <Salt_Solvent>


> <Salt_Solvent_ID>
0

> <MPID>
99602

> <KocRef>
Schuurmann-Main

> <LogKOC>
1.53

> <Tr_1_Tst_0>
1

$$$$
100329
  Mrv171c012251911022D          

 11 11  0  0  0  0            999 V2000
    0.9093    0.9000    0.0000 C   0  0  0  0  0  0  0  0  0  0  0  0
    0.1948    1.3125    0.0000 N   0  0  0  0  0  0  0  0  0  0  0  0
    0.1948    2.1375    0.0000 C   0  0  0  0  0  0  0  0  0  0  0  0
   -0.5196    2.5500    0.0000 O   0  0  0  0  0  0  0  0  0  0  0  0
    0.9093    2.5500    0.0000 C   0  0  0  0  0  0  0  0  0  0  0  0
    0.9093    0.0750    0.0000 C   0  0  0  0  0  0  0  0  0  0  0  0
    1.6238   -0.3375    0.0000 C   0  0  0  0  0  0  0  0  0  0  0  0
    2.3383    0.0750    0.0000 C   0  0  0  0  0  0  0  0  0  0  0  0
    2.3383    0.9000    0.0000 C   0  0  0  0  0  0  0  0  0  0  0  0
    1.6238    1.3125    0.0000 C   0  0  0  0  0  0  0  0  0  0  0  0
    1.6238    2.1375    0.0000 Cl  0  0  0  0  0  0  0  0  0  0  0  0
  1  2  1  0  0  0  0
  2  3  1  0  0  0  0
  3  4  2  0  0  0  0
  3  5  1  0  0  0  0
  6  1  1  0  0  0  0
  7  6  2  0  0  0  0
  8  7  1  0  0  0  0
  9  8  2  0  0  0  0
 10  9  1  0  0  0  0
  1 10  2  0  0  0  0
 10 11  1  0  0  0  0
M  END
> <ChemID>
100329

> <CAS>
533-17-5

> <Original_SMILES>
CC(=O)Nc1ccccc1Cl

> <preferred_name>
Acetamide, N-(2-chlorophenyl)-

> <dsstox_substance_id>
DTXSID2060200

> <dsstox_compound_id>
DTXCID1041390

> <qc_level>
Public_High

> <Canonical_QSARr>
CC(=O)NC1C=CC=CC=1Cl

> <InChI_Code_QSARr>
InChI=1S/C8H8ClNO/c1-6(11)10-8-5-3-2-4-7(8)9/h2-5H,1H3,(H,10,11)

> <InChI Key_QSARr>
KNVQTRVKSOEHPU-UHFFFAOYSA-N

> <Salt_Solvent>


> <Salt_Solvent_ID>
0

> <MPID>
99603

> <KocRef>
Schuurmann-Main

> <LogKOC>
1.58

> <Tr_1_Tst_0>
1

$$$$
100330
  Mrv171c012251911022D          

  9  9  0  0  0  0            999 V2000
    2.8588   -0.1833    0.0000 C   0  0  0  0  0  0  0  0  0  0  0  0
    2.1443   -0.5958    0.0000 N   0  0  0  0  0  0  0  0  0  0  0  0
    1.4298   -0.1833    0.0000 C   0  0  0  0  0  0  0  0  0  0  0  0
    1.4298    0.6417    0.0000 S   0  0  0  0  0  0  0  0  0  0  0  0
    0.7153   -0.5958    0.0000 S   0  0  0  0  0  0  0  0  0  0  0  0
    0.7153   -1.4208    0.0000 C   0  0  0  0  0  0  0  0  0  0  0  0
    1.4298   -1.8333    0.0000 N   0  0  0  0  0  0  0  0  0  0  0  0
    1.4298   -2.6583    0.0000 C   0  0  0  0  0  0  0  0  0  0  0  0
    2.1443   -1.4208    0.0000 C   0  0  0  0  0  0  0  0  0  0  0  0
  1  2  1  0  0  0  0
  3  2  1  0  0  0  0
  3  4  2  0  0  0  0
  5  3  1  0  0  0  0
  6  5  1  0  0  0  0
  7  6  1  0  0  0  0
  7  8  1  0  0  0  0
  9  7  1  0  0  0  0
  2  9  1  0  0  0  0
M  END
> <ChemID>
100330

> <CAS>
533-74-4

> <Original_SMILES>
CN1CSC(=S)N(C)C1

> <preferred_name>
Dazomet

> <dsstox_substance_id>
DTXSID7024902

> <dsstox_compound_id>
DTXCID004902

> <qc_level>
DSSTox_Low

> <Canonical_QSARr>
CN1CSC(=S)N(C)C1

> <InChI_Code_QSARr>
InChI=1S/C5H10N2S2/c1-6-3-7(2)5(8)9-4-6/h3-4H2,1-2H3

> <InChI Key_QSARr>
QAYICIQNSGETAS-UHFFFAOYSA-N

> <Salt_Solvent>


> <Salt_Solvent_ID>
0

> <MPID>
99604

> <KocRef>
USDA Pest Prop DB

> <LogKOC>
1.0

> <Tr_1_Tst_0>
0

$$$$
100331
  Mrv171c012251911022D          

 14 14  0  0  0  0            999 V2000
    3.4348   -1.3674    0.0000 O   0  0  0  0  0  0  0  0  0  0  0  0
    2.7203   -1.7799    0.0000 C   0  0  0  0  0  0  0  0  0  0  0  0
    2.0059   -1.3674    0.0000 C   0  0  0  0  0  0  0  0  0  0  0  0
    2.0059   -0.5424    0.0000 N   0  3  0  0  0  0  0  0  0  0  0  0
    1.2914   -0.1299    0.0000 O   0  0  0  0  0  0  0  0  0  0  0  0
    2.7203   -0.1299    0.0000 O   0  5  0  0  0  0  0  0  0  0  0  0
    1.2914   -1.7799    0.0000 C   0  0  0  0  0  0  0  0  0  0  0  0
    1.2914   -2.6049    0.0000 C   0  0  0  0  0  0  0  0  0  0  0  0
    0.5769   -3.0174    0.0000 N   0  3  0  0  0  0  0  0  0  0  0  0
    0.5769   -3.8424    0.0000 O   0  0  0  0  0  0  0  0  0  0  0  0
   -0.1376   -2.6049    0.0000 O   0  5  0  0  0  0  0  0  0  0  0  0
    2.0059   -3.0174    0.0000 C   0  0  0  0  0  0  0  0  0  0  0  0
    2.7203   -2.6049    0.0000 C   0  0  0  0  0  0  0  0  0  0  0  0
    3.4348   -3.0174    0.0000 C   0  0  0  0  0  0  0  0  0  0  0  0
  1  2  1  0  0  0  0
  3  2  1  0  0  0  0
  3  4  1  0  0  0  0
  4  5  2  0  0  0  0
  4  6  1  0  0  0  0
  7  3  2  0  0  0  0
  8  7  1  0  0  0  0
  8  9  1  0  0  0  0
  9 10  2  0  0  0  0
  9 11  1  0  0  0  0
 12  8  2  0  0  0  0
 13 12  1  0  0  0  0
  2 13  2  0  0  0  0
 13 14  1  0  0  0  0
M  CHG  4   4   1   6  -1   9   1  11  -1
M  END
> <ChemID>
100331

> <CAS>
534-52-1

> <Original_SMILES>
Cc1cc(cc(c1O)[N+]([O-])=O)[N+]([O-])=O

> <preferred_name>
2-Methyl-4,6-dinitrophenol

> <dsstox_substance_id>
DTXSID1022053

> <dsstox_compound_id>
DTXCID902053

> <qc_level>
DSSTox_Low

> <Canonical_QSARr>
CC1C=C(C=C(C=1O)[N+]([O-])=O)[N+]([O-])=O

> <InChI_Code_QSARr>
InChI=1S/C7H6N2O5/c1-4-2-5(8(11)12)3-6(7(4)10)9(13)14/h2-3,10H,1H3

> <InChI Key_QSARr>
ZXVONLUNISGICL-UHFFFAOYSA-N

> <Salt_Solvent>


> <Salt_Solvent_ID>
0

> <MPID>
99605

> <KocRef>
SRC 1992 Validation

> <LogKOC>
2.41

> <Tr_1_Tst_0>
1

$$$$
100332
  Mrv171c012251911022D          

 11 11  0  0  0  0            999 V2000
    3.1158   -1.4243    0.0000 N   0  0  0  0  0  0  0  0  0  0  0  0
    2.4013   -1.0118    0.0000 C   0  0  0  0  0  0  0  0  0  0  0  0
    2.4013   -0.1868    0.0000 C   0  0  0  0  0  0  0  0  0  0  0  0
    1.6869    0.2257    0.0000 C   0  0  0  0  0  0  0  0  0  0  0  0
    1.6869    1.0507    0.0000 C   0  0  0  0  0  0  0  0  0  0  0  0
    0.9724   -0.1868    0.0000 C   0  0  0  0  0  0  0  0  0  0  0  0
    0.9724   -1.0118    0.0000 C   0  0  0  0  0  0  0  0  0  0  0  0
    1.6869   -1.4243    0.0000 C   0  0  0  0  0  0  0  0  0  0  0  0
    3.1158   -2.2493    0.0000 C   0  0  0  0  0  0  0  0  0  0  0  0
    3.8303   -2.6618    0.0000 O   0  0  0  0  0  0  0  0  0  0  0  0
    2.4013   -2.6618    0.0000 C   0  0  0  0  0  0  0  0  0  0  0  0
  1  2  1  0  0  0  0
  3  2  1  0  0  0  0
  4  3  2  0  0  0  0
  4  5  1  0  0  0  0
  6  4  1  0  0  0  0
  7  6  2  0  0  0  0
  8  7  1  0  0  0  0
  2  8  2  0  0  0  0
  1  9  1  0  0  0  0
  9 10  2  0  0  0  0
  9 11  1  0  0  0  0
M  END
> <ChemID>
100332

> <CAS>
537-92-8

> <Original_SMILES>
Cc1cccc(c1)NC(C)=O

> <preferred_name>
N-Acetyl-m-toluidine

> <dsstox_substance_id>
DTXSID6024412

> <dsstox_compound_id>
DTXCID304412

> <qc_level>
DSSTox_Low

> <Canonical_QSARr>
CC1C=CC=C(C=1)NC(C)=O

> <InChI_Code_QSARr>
InChI=1S/C9H11NO/c1-7-4-3-5-9(6-7)10-8(2)11/h3-6H,1-2H3,(H,10,11)

> <InChI Key_QSARr>
ALMHSXDYCFOZQD-UHFFFAOYSA-N

> <Salt_Solvent>


> <Salt_Solvent_ID>
0

> <MPID>
99606

> <KocRef>
Schuurmann-Main

> <LogKOC>
1.45

> <Tr_1_Tst_0>
1

$$$$
100333
  Mrv171c012251911022D          

  9  8  0  0  0  0            999 V2000
    2.2143   -0.8331    0.0000 C   0  0  0  0  0  0  0  0  0  0  0  0
    2.2143   -0.0081    0.0000 O   0  0  0  0  0  0  0  0  0  0  0  0
    1.4999   -1.2456    0.0000 O   0  0  0  0  0  0  0  0  0  0  0  0
    0.7854   -0.8331    0.0000 C   0  0  0  0  0  0  0  0  0  0  0  0
    0.0709   -1.2456    0.0000 C   0  0  0  0  0  0  0  0  0  0  0  0
    2.9288   -1.2456    0.0000 C   0  0  0  0  0  0  0  0  0  0  0  0
    3.6433   -0.8331    0.0000 C   0  0  0  0  0  0  0  0  0  0  0  0
    4.3577   -1.2456    0.0000 C   0  0  0  0  0  0  0  0  0  0  0  0
    5.0722   -0.8331    0.0000 C   0  0  0  0  0  0  0  0  0  0  0  0
  1  2  2  0  0  0  0
  1  3  1  0  0  0  0
  3  4  1  0  0  0  0
  4  5  1  0  0  0  0
  1  6  1  0  0  0  0
  6  7  1  0  0  0  0
  7  8  1  0  0  0  0
  8  9  1  0  0  0  0
M  END
> <ChemID>
100333

> <CAS>
539-82-2

> <Original_SMILES>
CCCCC(=O)OCC

> <preferred_name>
Ethyl valerate

> <dsstox_substance_id>
DTXSID6040161

> <dsstox_compound_id>
DTXCID4020161

> <qc_level>
DSSTox_Low

> <Canonical_QSARr>
CCCCC(=O)OCC

> <InChI_Code_QSARr>
InChI=1S/C7H14O2/c1-3-5-6-7(8)9-4-2/h3-6H2,1-2H3

> <InChI Key_QSARr>
ICMAFTSLXCXHRK-UHFFFAOYSA-N

> <Salt_Solvent>


> <Salt_Solvent_ID>
0

> <MPID>
99607

> <KocRef>
Schuurmann-Main

> <LogKOC>
1.97

> <Tr_1_Tst_0>
1

$$$$
100334
  Mrv171c012251911022D          

  4  3  0  0  0  0            999 V2000
    1.2375    0.7145    0.0000 Br  0  0  0  0  0  0  0  0  0  0  0  0
    0.8250    0.0000    0.0000 C   0  0  0  0  0  0  0  0  0  0  0  0
    0.0000    0.0000    0.0000 C   0  0  0  0  0  0  0  0  0  0  0  0
   -0.4125   -0.7145    0.0000 Br  0  0  0  0  0  0  0  0  0  0  0  0
  2  1  1  4  0  0  0
  2  3  2  0  0  0  0
  3  4  1  0  0  0  0
M  END
> <ChemID>
100334

> <CAS>
540-49-8

> <Original_SMILES>
BrC=CBr

> <preferred_name>
1,2-Dibromoethylene

> <dsstox_substance_id>
DTXSID3060241

> <dsstox_compound_id>
DTXCID5041566

> <qc_level>
Public_High

> <Canonical_QSARr>
BrC=CBr

> <InChI_Code_QSARr>
InChI=1S/C2H2Br2/c3-1-2-4/h1-2H

> <InChI Key_QSARr>
UWTUEMKLYAGTNQ-UHFFFAOYSA-N

> <Salt_Solvent>


> <Salt_Solvent_ID>
0

> <MPID>
99608

> <KocRef>
Sabljic-Ext

> <LogKOC>
1.65

> <Tr_1_Tst_0>
0

$$$$
100335
  Mrv171c012251911022D          

  8  8  0  0  0  0            999 V2000
    0.1795   -1.9594    0.0000 Cl  0  0  0  0  0  0  0  0  0  0  0  0
    0.8940   -1.5469    0.0000 C   0  0  0  0  0  0  0  0  0  0  0  0
    1.6084   -1.9594    0.0000 C   0  0  0  0  0  0  0  0  0  0  0  0
    2.3229   -1.5469    0.0000 C   0  0  0  0  0  0  0  0  0  0  0  0
    2.3229   -0.7219    0.0000 C   0  0  0  0  0  0  0  0  0  0  0  0
    1.6084   -0.3094    0.0000 C   0  0  0  0  0  0  0  0  0  0  0  0
    1.6084    0.5156    0.0000 Cl  0  0  0  0  0  0  0  0  0  0  0  0
    0.8940   -0.7219    0.0000 C   0  0  0  0  0  0  0  0  0  0  0  0
  1  2  1  0  0  0  0
  3  2  1  0  0  0  0
  4  3  2  0  0  0  0
  5  4  1  0  0  0  0
  6  5  2  0  0  0  0
  6  7  1  0  0  0  0
  8  6  1  0  0  0  0
  2  8  2  0  0  0  0
M  END
> <ChemID>
100335

> <CAS>
541-73-1

> <Original_SMILES>
Clc1cc(Cl)ccc1

> <preferred_name>
1,3-Dichlorobenzene

> <dsstox_substance_id>
DTXSID6022056

> <dsstox_compound_id>
DTXCID102056

> <qc_level>
DSSTox_Low

> <Canonical_QSARr>
ClC1=CC(Cl)=CC=C1

> <InChI_Code_QSARr>
InChI=1S/C6H4Cl2/c7-5-2-1-3-6(8)4-5/h1-4H

> <InChI Key_QSARr>
ZPQOPVIELGIULI-UHFFFAOYSA-N

> <Salt_Solvent>


> <Salt_Solvent_ID>
0

> <MPID>
99609

> <KocRef>
SRC 1992 Non-Polar

> <LogKOC>
2.58

> <Tr_1_Tst_0>
1

$$$$
100336
  Mrv171c012251911022D          

  5  4  0  0  0  0            999 V2000
    1.2375    0.7145    0.0000 Cl  0  0  0  0  0  0  0  0  0  0  0  0
    0.8250    0.0000    0.0000 C   0  0  0  0  0  0  0  0  0  0  0  0
    0.0000    0.0000    0.0000 C   0  0  0  0  0  0  0  0  0  0  0  0
   -0.4125   -0.7145    0.0000 C   0  0  0  0  0  0  0  0  0  0  0  0
    0.0000   -1.4289    0.0000 Cl  0  0  0  0  0  0  0  0  0  0  0  0
  2  1  1  4  0  0  0
  2  3  2  0  0  0  0
  3  4  1  0  0  0  0
  4  5  1  0  0  0  0
M  END
> <ChemID>
100336

> <CAS>
542-75-6|10061-02-6

> <Original_SMILES>
ClC=CCCl

> <preferred_name>
1,3-Dichloropropene|trans-1,3-Dichloropropene

> <dsstox_substance_id>
DTXSID1022057|DTXSID2042480

> <dsstox_compound_id>
DTXCID501307|DTXCID8028131

> <qc_level>
DSSTox_Low

> <Canonical_QSARr>
ClC=CCCl

> <InChI_Code_QSARr>
InChI=1S/C3H4Cl2/c4-2-1-3-5/h1-2H,3H2

> <InChI Key_QSARr>
UOORRWUZONOOLO-UHFFFAOYSA-N

> <Salt_Solvent>


> <Salt_Solvent_ID>
0

> <MPID>
99610|99798

> <KocRef>
USDA Pest Prop DB|Schuurmann-Main

> <LogKOC>
1.665

> <Tr_1_Tst_0>
1

$$$$
100337
  Mrv171c012251911022D          

  9  9  0  0  0  0            999 V2000
    2.8587   -0.1833    0.0000 Cl  0  0  0  0  0  0  0  0  0  0  0  0
    2.1442   -0.5958    0.0000 C   0  0  0  0  0  0  0  0  0  0  0  0
    1.4298   -0.1833    0.0000 C   0  0  0  0  0  0  0  0  0  0  0  0
    1.4298    0.6417    0.0000 N   0  0  0  0  0  0  0  0  0  0  0  0
    0.7153   -0.5958    0.0000 C   0  0  0  0  0  0  0  0  0  0  0  0
    0.7153   -1.4208    0.0000 C   0  0  0  0  0  0  0  0  0  0  0  0
    1.4298   -1.8333    0.0000 C   0  0  0  0  0  0  0  0  0  0  0  0
    1.4298   -2.6583    0.0000 Cl  0  0  0  0  0  0  0  0  0  0  0  0
    2.1442   -1.4208    0.0000 C   0  0  0  0  0  0  0  0  0  0  0  0
  1  2  1  0  0  0  0
  3  2  1  0  0  0  0
  3  4  1  0  0  0  0
  5  3  2  0  0  0  0
  6  5  1  0  0  0  0
  7  6  2  0  0  0  0
  7  8  1  0  0  0  0
  9  7  1  0  0  0  0
  2  9  2  0  0  0  0
M  END
> <ChemID>
100337

> <CAS>
554-00-7

> <Original_SMILES>
Nc1ccc(Cl)cc1Cl

> <preferred_name>
2,4-Dichloroaniline

> <dsstox_substance_id>
DTXSID1024966

> <dsstox_compound_id>
DTXCID404966

> <qc_level>
DSSTox_Low

> <Canonical_QSARr>
NC1=CC=C(Cl)C=C1Cl

> <InChI_Code_QSARr>
InChI=1S/C6H5Cl2N/c7-4-1-2-6(9)5(8)3-4/h1-3H,9H2

> <InChI Key_QSARr>
KQCMTOWTPBNWDB-UHFFFAOYSA-N

> <Salt_Solvent>


> <Salt_Solvent_ID>
0

> <MPID>
99611

> <KocRef>
Schuurmann-Main

> <LogKOC>
2.72

> <Tr_1_Tst_0>
1

$$$$
100338
  Mrv171c012251911022D          

 17 17  0  0  0  0            999 V2000
    2.5625   -1.4010    0.0000 C   0  0  0  0  0  0  0  0  0  0  0  0
    2.5625   -0.5760    0.0000 O   0  0  0  0  0  0  0  0  0  0  0  0
    1.8481   -1.8135    0.0000 N   0  0  0  0  0  0  0  0  0  0  0  0
    1.8481   -2.6385    0.0000 C   0  0  0  0  0  0  0  0  0  0  0  0
    1.1336   -1.4010    0.0000 C   0  0  0  0  0  0  0  0  0  0  0  0
    0.4191   -1.8135    0.0000 C   0  0  0  0  0  0  0  0  0  0  0  0
   -0.2954   -1.4010    0.0000 C   0  0  0  0  0  0  0  0  0  0  0  0
   -1.0098   -1.8135    0.0000 C   0  0  0  0  0  0  0  0  0  0  0  0
    3.2770   -1.8135    0.0000 N   0  0  0  0  0  0  0  0  0  0  0  0
    3.9915   -1.4010    0.0000 C   0  0  0  0  0  0  0  0  0  0  0  0
    4.7059   -1.8135    0.0000 C   0  0  0  0  0  0  0  0  0  0  0  0
    5.4204   -1.4010    0.0000 C   0  0  0  0  0  0  0  0  0  0  0  0
    5.4204   -0.5760    0.0000 C   0  0  0  0  0  0  0  0  0  0  0  0
    6.1349   -0.1635    0.0000 Cl  0  0  0  0  0  0  0  0  0  0  0  0
    4.7059   -0.1635    0.0000 C   0  0  0  0  0  0  0  0  0  0  0  0
    4.7059    0.6615    0.0000 Cl  0  0  0  0  0  0  0  0  0  0  0  0
    3.9915   -0.5760    0.0000 C   0  0  0  0  0  0  0  0  0  0  0  0
  1  2  2  0  0  0  0
  1  3  1  0  0  0  0
  3  4  1  0  0  0  0
  3  5  1  0  0  0  0
  5  6  1  0  0  0  0
  6  7  1  0  0  0  0
  7  8  1  0  0  0  0
  1  9  1  0  0  0  0
  9 10  1  0  0  0  0
 11 10  1  0  0  0  0
 12 11  2  0  0  0  0
 13 12  1  0  0  0  0
 13 14  1  0  0  0  0
 15 13  2  0  0  0  0
 15 16  1  0  0  0  0
 17 15  1  0  0  0  0
 10 17  2  0  0  0  0
M  END
> <ChemID>
100338

> <CAS>
555-37-3

> <Original_SMILES>
CCCCN(C)C(=O)Nc1cc(Cl)c(Cl)cc1

> <preferred_name>
Neburon

> <dsstox_substance_id>
DTXSID4042200

> <dsstox_compound_id>
DTXCID2022200

> <qc_level>
DSSTox_Low

> <Canonical_QSARr>
CCCCN(C)C(=O)NC1=CC(Cl)=C(Cl)C=C1

> <InChI_Code_QSARr>
InChI=1S/C12H16Cl2N2O/c1-3-4-7-16(2)12(17)15-9-5-6-10(13)11(14)8-9/h5-6,8H,3-4,7H2,1-2H3,(H,15,17)

> <InChI Key_QSARr>
CCGPUGMWYLICGL-UHFFFAOYSA-N

> <Salt_Solvent>


> <Salt_Solvent_ID>
0

> <MPID>
99612

> <KocRef>
Schuurmann-Main

> <LogKOC>
3.4

> <Tr_1_Tst_0>
0

$$$$
100339
  Mrv171c012251911022D          

  4  3  0  0  0  0            999 V2000
    2.0626   -1.0709    0.0000 C   0  0  0  0  0  0  0  0  0  0  0  0
    1.6501   -0.3564    0.0000 N   0  0  0  0  0  0  0  0  0  0  0  0
    0.8251   -0.3564    0.0000 C   0  0  0  0  0  0  0  0  0  0  0  0
    0.0001   -0.3564    0.0000 S   0  0  0  0  0  0  0  0  0  0  0  0
  1  2  1  0  0  0  0
  2  3  2  0  0  0  0
  3  4  2  0  0  0  0
M  END
> <ChemID>
100339

> <CAS>
556-61-6

> <Original_SMILES>
CN=C=S

> <preferred_name>
Methyl isothiocyanate

> <dsstox_substance_id>
DTXSID2027204

> <dsstox_compound_id>
DTXCID707204

> <qc_level>
DSSTox_Low

> <Canonical_QSARr>
CN=C=S

> <InChI_Code_QSARr>
InChI=1S/C2H3NS/c1-3-2-4/h1H3

> <InChI Key_QSARr>
LGDSHSYDSCRFAB-UHFFFAOYSA-N

> <Salt_Solvent>


> <Salt_Solvent_ID>
0

> <MPID>
99613

> <KocRef>
Schuurmann-Main

> <LogKOC>
0.97

> <Tr_1_Tst_0>
1

$$$$
100340
  Mrv171c012251911022D          

 19 18  0  0  0  0            999 V2000
    1.9463   -2.9011    0.0000 P   0  0  0  0  0  0  0  0  0  0  0  0
    1.2318   -3.3136    0.0000 O   0  0  0  0  0  0  0  0  0  0  0  0
    1.2318   -4.1386    0.0000 C   0  0  0  0  0  0  0  0  0  0  0  0
    0.5174   -4.5511    0.0000 C   0  0  0  0  0  0  0  0  0  0  0  0
    2.3588   -3.6155    0.0000 O   0  0  0  0  0  0  0  0  0  0  0  0
    3.1838   -3.6155    0.0000 C   0  0  0  0  0  0  0  0  0  0  0  0
    3.5963   -4.3300    0.0000 C   0  0  0  0  0  0  0  0  0  0  0  0
    1.5338   -2.1866    0.0000 S   0  0  0  0  0  0  0  0  0  0  0  0
    2.6608   -2.4886    0.0000 S   0  0  0  0  0  0  0  0  0  0  0  0
    2.6608   -1.6636    0.0000 C   0  0  0  0  0  0  0  0  0  0  0  0
    3.3752   -1.2511    0.0000 S   0  0  0  0  0  0  0  0  0  0  0  0
    3.3752   -0.4261    0.0000 P   0  0  0  0  0  0  0  0  0  0  0  0
    3.3752    0.3989    0.0000 O   0  0  0  0  0  0  0  0  0  0  0  0
    4.0897    0.8114    0.0000 C   0  0  0  0  0  0  0  0  0  0  0  0
    4.0897    1.6364    0.0000 C   0  0  0  0  0  0  0  0  0  0  0  0
    4.2002   -0.4261    0.0000 O   0  0  0  0  0  0  0  0  0  0  0  0
    4.6127    0.2884    0.0000 C   0  0  0  0  0  0  0  0  0  0  0  0
    5.4377    0.2884    0.0000 C   0  0  0  0  0  0  0  0  0  0  0  0
    2.5502   -0.4261    0.0000 S   0  0  0  0  0  0  0  0  0  0  0  0
  1  2  1  0  0  0  0
  2  3  1  0  0  0  0
  3  4  1  0  0  0  0
  1  5  1  0  0  0  0
  5  6  1  0  0  0  0
  6  7  1  0  0  0  0
  1  8  2  0  0  0  0
  1  9  1  0  0  0  0
  9 10  1  0  0  0  0
 10 11  1  0  0  0  0
 11 12  1  0  0  0  0
 12 13  1  0  0  0  0
 13 14  1  0  0  0  0
 14 15  1  0  0  0  0
 12 16  1  0  0  0  0
 16 17  1  0  0  0  0
 17 18  1  0  0  0  0
 12 19  2  0  0  0  0
M  END
> <ChemID>
100340

> <CAS>
563-12-2

> <Original_SMILES>
CCOP(=S)(OCC)SCSP(=S)(OCC)OCC

> <preferred_name>
Ethion

> <dsstox_substance_id>
DTXSID2024086

> <dsstox_compound_id>
DTXCID204086

> <qc_level>
DSSTox_High

> <Canonical_QSARr>
CCOP(=S)(OCC)SCSP(=S)(OCC)OCC

> <InChI_Code_QSARr>
InChI=1S/C9H22O4P2S4/c1-5-10-14(16,11-6-2)18-9-19-15(17,12-7-3)13-8-4/h5-9H2,1-4H3

> <InChI Key_QSARr>
RIZMRRKBZQXFOY-UHFFFAOYSA-N

> <Salt_Solvent>


> <Salt_Solvent_ID>
0

> <MPID>
99614

> <KocRef>
Schuurmann-Main

> <LogKOC>
4.06

> <Tr_1_Tst_0>
1

$$$$
100341
  Mrv171c012251911022D          

  9  9  0  0  0  0            999 V2000
    2.3959   -0.7881    0.0000 Cl  0  0  0  0  0  0  0  0  0  0  0  0
    1.6815   -1.2006    0.0000 C   0  0  0  0  0  0  0  0  0  0  0  0
    0.9670   -0.7881    0.0000 C   0  0  0  0  0  0  0  0  0  0  0  0
    0.9670    0.0369    0.0000 O   0  0  0  0  0  0  0  0  0  0  0  0
    0.2525   -1.2006    0.0000 C   0  0  0  0  0  0  0  0  0  0  0  0
    0.2525   -2.0256    0.0000 C   0  0  0  0  0  0  0  0  0  0  0  0
    0.9670   -2.4381    0.0000 C   0  0  0  0  0  0  0  0  0  0  0  0
    1.6815   -2.0256    0.0000 C   0  0  0  0  0  0  0  0  0  0  0  0
    2.3959   -2.4381    0.0000 Cl  0  0  0  0  0  0  0  0  0  0  0  0
  1  2  1  0  0  0  0
  3  2  1  0  0  0  0
  3  4  1  0  0  0  0
  5  3  2  0  0  0  0
  6  5  1  0  0  0  0
  7  6  2  0  0  0  0
  8  7  1  0  0  0  0
  2  8  2  0  0  0  0
  8  9  1  0  0  0  0
M  END
> <ChemID>
100341

> <CAS>
576-24-9

> <Original_SMILES>
Oc1cccc(Cl)c1Cl

> <preferred_name>
2,3-Dichlorophenol

> <dsstox_substance_id>
DTXSID7025001

> <dsstox_compound_id>
DTXCID905001

> <qc_level>
DSSTox_Low

> <Canonical_QSARr>
OC1=CC=CC(Cl)=C1Cl

> <InChI_Code_QSARr>
InChI=1S/C6H4Cl2O/c7-4-2-1-3-5(9)6(4)8/h1-3,9H

> <InChI Key_QSARr>
UMPSXRYVXUPCOS-UHFFFAOYSA-N

> <Salt_Solvent>


> <Salt_Solvent_ID>
0

> <MPID>
99615

> <KocRef>
Schuurmann-Main

> <LogKOC>
2.66

> <Tr_1_Tst_0>
1

$$$$
100342
  Mrv171c012251911022D          

 10 10  0  0  0  0            999 V2000
    0.7145    0.4125    0.0000 C   0  0  0  0  0  0  0  0  0  0  0  0
    1.4289    0.8250    0.0000 C   0  0  0  0  0  0  0  0  0  0  0  0
    1.4289    1.6500    0.0000 C   0  0  0  0  0  0  0  0  0  0  0  0
    0.7145    2.0625    0.0000 C   0  0  0  0  0  0  0  0  0  0  0  0
    0.7145    2.8875    0.0000 Br  0  0  0  0  0  0  0  0  0  0  0  0
   -0.0000    1.6500    0.0000 C   0  0  0  0  0  0  0  0  0  0  0  0
   -0.0000    0.8250    0.0000 C   0  0  0  0  0  0  0  0  0  0  0  0
    0.7145   -0.4125    0.0000 N   0  3  0  0  0  0  0  0  0  0  0  0
    1.4289   -0.8250    0.0000 O   0  5  0  0  0  0  0  0  0  0  0  0
   -0.0000   -0.8250    0.0000 O   0  0  0  0  0  0  0  0  0  0  0  0
  2  1  1  0  0  0  0
  3  2  2  0  0  0  0
  4  3  1  0  0  0  0
  4  5  1  0  0  0  0
  6  4  2  0  0  0  0
  7  6  1  0  0  0  0
  1  7  2  0  0  0  0
  1  8  1  0  0  0  0
  8  9  1  0  0  0  0
  8 10  2  0  0  0  0
M  CHG  2   8   1   9  -1
M  END
> <ChemID>
100342

> <CAS>
586-78-7

> <Original_SMILES>
[O-][N+](=O)c1ccc(Br)cc1

> <preferred_name>
Benzene, 1-bromo-4-nitro-

> <dsstox_substance_id>
DTXSID7060415

> <dsstox_compound_id>
DTXCID6042442

> <qc_level>
Public_High

> <Canonical_QSARr>
[O-][N+](=O)C1C=CC(Br)=CC=1

> <InChI_Code_QSARr>
InChI=1S/C6H4BrNO2/c7-5-1-3-6(4-2-5)8(9)10/h1-4H

> <InChI Key_QSARr>
ZDFBKZUDCQQKAC-UHFFFAOYSA-N

> <Salt_Solvent>


> <Salt_Solvent_ID>
0

> <MPID>
99616

> <KocRef>
Schuurmann-Main

> <LogKOC>
2.42

> <Tr_1_Tst_0>
0

$$$$
100343
  Mrv171c012251911022D          

 13 13  0  0  0  0            999 V2000
    0.6045    1.8087    0.0000 C   0  0  0  0  0  0  0  0  0  0  0  0
    1.3190    1.3962    0.0000 C   0  0  0  0  0  0  0  0  0  0  0  0
    2.0335    1.8087    0.0000 C   0  0  0  0  0  0  0  0  0  0  0  0
    2.0335    2.6337    0.0000 C   0  0  0  0  0  0  0  0  0  0  0  0
    1.3190    3.0462    0.0000 C   0  0  0  0  0  0  0  0  0  0  0  0
    1.3190    3.8712    0.0000 Cl  0  0  0  0  0  0  0  0  0  0  0  0
    0.6045    2.6337    0.0000 C   0  0  0  0  0  0  0  0  0  0  0  0
   -0.1099    1.3962    0.0000 N   0  0  0  0  0  0  0  0  0  0  0  0
   -0.1099    0.5712    0.0000 C   0  0  0  0  0  0  0  0  0  0  0  0
    0.6045    0.1587    0.0000 O   0  0  0  0  0  0  0  0  0  0  0  0
   -0.8244    0.1587    0.0000 N   0  0  0  0  0  0  0  0  0  0  0  0
   -0.8244   -0.6663    0.0000 C   0  0  0  0  0  0  0  0  0  0  0  0
   -1.5389    0.5712    0.0000 C   0  0  0  0  0  0  0  0  0  0  0  0
  2  1  1  0  0  0  0
  3  2  2  0  0  0  0
  4  3  1  0  0  0  0
  5  4  2  0  0  0  0
  5  6  1  0  0  0  0
  7  5  1  0  0  0  0
  1  7  2  0  0  0  0
  1  8  1  0  0  0  0
  8  9  1  0  0  0  0
  9 10  2  0  0  0  0
  9 11  1  0  0  0  0
 11 12  1  0  0  0  0
 11 13  1  0  0  0  0
M  END
> <ChemID>
100343

> <CAS>
587-34-8

> <Original_SMILES>
CN(C)C(=O)Nc1cccc(Cl)c1

> <preferred_name>
Urea, N'-(3-chlorophenyl)-N,N-dimethyl-

> <dsstox_substance_id>
DTXSID2074667

> <dsstox_compound_id>
DTXCID5042459

> <qc_level>
Public_High

> <Canonical_QSARr>
CN(C)C(=O)NC1C=CC=C(Cl)C=1

> <InChI_Code_QSARr>
InChI=1S/C9H11ClN2O/c1-12(2)9(13)11-8-5-3-4-7(10)6-8/h3-6H,1-2H3,(H,11,13)

> <InChI Key_QSARr>
QLQDWOFJALEHSP-UHFFFAOYSA-N

> <Salt_Solvent>


> <Salt_Solvent_ID>
0

> <MPID>
99617

> <KocRef>
Schuurmann-Main

> <LogKOC>
1.79

> <Tr_1_Tst_0>
1

$$$$
100344
  Mrv171c012251911022D          

 11 11  0  0  0  0            999 V2000
    1.1691    0.6750    0.0000 C   0  0  0  0  0  0  0  0  0  0  0  0
    0.4547    0.2625    0.0000 N   0  0  0  0  0  0  0  0  0  0  0  0
   -0.2598    0.6750    0.0000 C   0  0  0  0  0  0  0  0  0  0  0  0
   -0.9743    0.2625    0.0000 O   0  0  0  0  0  0  0  0  0  0  0  0
   -0.2598    1.5000    0.0000 C   0  0  0  0  0  0  0  0  0  0  0  0
    1.8836    0.2625    0.0000 C   0  0  0  0  0  0  0  0  0  0  0  0
    2.5981    0.6750    0.0000 C   0  0  0  0  0  0  0  0  0  0  0  0
    2.5981    1.5000    0.0000 C   0  0  0  0  0  0  0  0  0  0  0  0
    1.8836    1.9125    0.0000 C   0  0  0  0  0  0  0  0  0  0  0  0
    1.8836    2.7375    0.0000 Cl  0  0  0  0  0  0  0  0  0  0  0  0
    1.1691    1.5000    0.0000 C   0  0  0  0  0  0  0  0  0  0  0  0
  1  2  1  0  0  0  0
  2  3  1  0  0  0  0
  3  4  2  0  0  0  0
  3  5  1  0  0  0  0
  6  1  1  0  0  0  0
  7  6  2  0  0  0  0
  8  7  1  0  0  0  0
  9  8  2  0  0  0  0
  9 10  1  0  0  0  0
 11  9  1  0  0  0  0
  1 11  2  0  0  0  0
M  END
> <ChemID>
100344

> <CAS>
588-07-8

> <Original_SMILES>
CC(=O)Nc1cccc(Cl)c1

> <preferred_name>
Acetamide, N-(3-chlorophenyl)-

> <dsstox_substance_id>
DTXSID6060420

> <dsstox_compound_id>
DTXCID8042474

> <qc_level>
Public_High

> <Canonical_QSARr>
CC(=O)NC1C=CC=C(Cl)C=1

> <InChI_Code_QSARr>
InChI=1S/C8H8ClNO/c1-6(11)10-8-4-2-3-7(9)5-8/h2-5H,1H3,(H,10,11)

> <InChI Key_QSARr>
MUUQHCOAOLLHIL-UHFFFAOYSA-N

> <Salt_Solvent>


> <Salt_Solvent_ID>
0

> <MPID>
99618

> <KocRef>
SRC 1992 Polar

> <LogKOC>
1.86

> <Tr_1_Tst_0>
1

$$$$
100345
  Mrv171c012251911022D          

  9  9  0  0  0  0            999 V2000
    2.3656   -1.8422    0.0000 C   0  0  0  0  0  0  0  0  0  0  0  0
    3.0801   -2.2547    0.0000 O   0  0  0  0  0  0  0  0  0  0  0  0
    2.3656   -1.0172    0.0000 C   0  0  0  0  0  0  0  0  0  0  0  0
    1.6512   -0.6047    0.0000 C   0  0  0  0  0  0  0  0  0  0  0  0
    1.6512    0.2203    0.0000 Cl  0  0  0  0  0  0  0  0  0  0  0  0
    0.9367   -1.0172    0.0000 C   0  0  0  0  0  0  0  0  0  0  0  0
    0.9367   -1.8422    0.0000 C   0  0  0  0  0  0  0  0  0  0  0  0
    0.2222   -2.2547    0.0000 Cl  0  0  0  0  0  0  0  0  0  0  0  0
    1.6512   -2.2547    0.0000 C   0  0  0  0  0  0  0  0  0  0  0  0
  1  2  1  0  0  0  0
  3  1  2  0  0  0  0
  4  3  1  0  0  0  0
  4  5  1  0  0  0  0
  6  4  2  0  0  0  0
  7  6  1  0  0  0  0
  7  8  1  0  0  0  0
  9  7  2  0  0  0  0
  1  9  1  0  0  0  0
M  END
> <ChemID>
100345

> <CAS>
591-35-5

> <Original_SMILES>
Oc1cc(Cl)cc(Cl)c1

> <preferred_name>
3,5-Dichlorophenol

> <dsstox_substance_id>
DTXSID2025006

> <dsstox_compound_id>
DTXCID905006

> <qc_level>
DSSTox_Low

> <Canonical_QSARr>
OC1C=C(Cl)C=C(Cl)C=1

> <InChI_Code_QSARr>
InChI=1S/C6H4Cl2O/c7-4-1-5(8)3-6(9)2-4/h1-3,9H

> <InChI Key_QSARr>
VPOMSPZBQMDLTM-UHFFFAOYSA-N

> <Salt_Solvent>


> <Salt_Solvent_ID>
0

> <MPID>
99619

> <KocRef>
Schuurmann-Main

> <LogKOC>
2.83

> <Tr_1_Tst_0>
1

$$$$
100346
  Mrv171c012251911022D          

  7  7  0  0  0  0            999 V2000
    0.7145    1.2375    0.0000 C   0  0  0  0  0  0  0  0  0  0  0  0
    0.7145    2.0625    0.0000 I   0  0  0  0  0  0  0  0  0  0  0  0
   -0.0000    0.8250    0.0000 C   0  0  0  0  0  0  0  0  0  0  0  0
   -0.0000   -0.0000    0.0000 C   0  0  0  0  0  0  0  0  0  0  0  0
    0.7145   -0.4125    0.0000 C   0  0  0  0  0  0  0  0  0  0  0  0
    1.4289    0.0000    0.0000 C   0  0  0  0  0  0  0  0  0  0  0  0
    1.4289    0.8250    0.0000 C   0  0  0  0  0  0  0  0  0  0  0  0
  1  2  1  0  0  0  0
  3  1  1  0  0  0  0
  4  3  2  0  0  0  0
  5  4  1  0  0  0  0
  6  5  2  0  0  0  0
  7  6  1  0  0  0  0
  1  7  2  0  0  0  0
M  END
> <ChemID>
100346

> <CAS>
591-50-4

> <Original_SMILES>
Ic1ccccc1

> <preferred_name>
Benzene, iodo-

> <dsstox_substance_id>
DTXSID8060452

> <dsstox_compound_id>
DTXCID9042544

> <qc_level>
Public_High

> <Canonical_QSARr>
IC1C=CC=CC=1

> <InChI_Code_QSARr>
InChI=1S/C6H5I/c7-6-4-2-1-3-5-6/h1-5H

> <InChI Key_QSARr>
SNHMUERNLJLMHN-UHFFFAOYSA-N

> <Salt_Solvent>


> <Salt_Solvent_ID>
0

> <MPID>
99620

> <KocRef>
Sabljic-Ext

> <LogKOC>
3.1

> <Tr_1_Tst_0>
0

$$$$
100347
  Mrv171c012251911022D          

  7  6  0  0  0  0            999 V2000
    0.8250   -2.0625    0.0000 Cl  0  0  0  0  0  0  0  0  0  0  0  0
    0.8250   -1.2375    0.0000 C   0  0  0  0  0  0  0  0  0  0  0  0
    0.8250   -0.4125    0.0000 C   0  0  0  0  0  0  0  0  0  0  0  0
    0.1105    0.0000    0.0000 O   0  0  0  0  0  0  0  0  0  0  0  0
    1.5395   -0.0000    0.0000 N   0  0  0  0  0  0  0  0  0  0  0  0
    1.6500   -1.2375    0.0000 Cl  0  0  0  0  0  0  0  0  0  0  0  0
    0.0000   -1.2375    0.0000 Cl  0  0  0  0  0  0  0  0  0  0  0  0
  1  2  1  0  0  0  0
  2  3  1  0  0  0  0
  3  4  2  0  0  0  0
  3  5  1  0  0  0  0
  2  6  1  0  0  0  0
  2  7  1  0  0  0  0
M  END
> <ChemID>
100347

> <CAS>
594-65-0

> <Original_SMILES>
NC(=O)C(Cl)(Cl)Cl

> <preferred_name>
2,2,2-Trichloroacetamide

> <dsstox_substance_id>
DTXSID5021671

> <dsstox_compound_id>
DTXCID801671

> <qc_level>
DSSTox_Low

> <Canonical_QSARr>
NC(=O)C(Cl)(Cl)Cl

> <InChI_Code_QSARr>
InChI=1S/C2H2Cl3NO/c3-2(4,5)1(6)7/h(H2,6,7)

> <InChI Key_QSARr>
UPQQXPKAYZYUKO-UHFFFAOYSA-N

> <Salt_Solvent>


> <Salt_Solvent_ID>
0

> <MPID>
99621

> <KocRef>
Schuurmann-Main

> <LogKOC>
0.99

> <Tr_1_Tst_0>
1

$$$$
100348
  Mrv171c012251911022D          

 19 21  0  0  0  0            999 V2000
    3.1874   -3.3790    0.0000 C   0  0  0  0  0  0  0  0  0  0  0  0
    2.4729   -2.9665    0.0000 C   0  0  0  0  0  0  0  0  0  0  0  0
    2.4729   -2.1415    0.0000 N   0  0  0  0  0  0  0  0  0  0  0  0
    1.7585   -1.7290    0.0000 C   0  0  0  0  0  0  0  0  0  0  0  0
    1.7585   -0.9040    0.0000 C   0  0  0  0  0  0  0  0  0  0  0  0
    1.0440   -0.4915    0.0000 C   0  0  0  0  0  0  0  0  0  0  0  0
    0.3295   -0.9040    0.0000 C   0  0  0  0  0  0  0  0  0  0  0  0
    0.3295   -1.7290    0.0000 C   0  0  0  0  0  0  0  0  0  0  0  0
    1.0440   -2.1415    0.0000 C   0  0  0  0  0  0  0  0  0  0  0  0
    3.1874   -1.7290    0.0000 C   0  0  0  0  0  0  0  0  0  0  0  0
    3.9019   -2.1415    0.0000 C   0  0  0  0  0  0  0  0  0  0  0  0
    4.6164   -1.7290    0.0000 C   0  0  0  0  0  0  0  0  0  0  0  0
    4.6164   -0.9040    0.0000 C   0  0  0  0  0  0  0  0  0  0  0  0
    3.9019   -0.4915    0.0000 C   0  0  0  0  0  0  0  0  0  0  0  0
    3.1874   -0.9040    0.0000 C   0  0  0  0  0  0  0  0  0  0  0  0
    1.7585   -3.3790    0.0000 C   0  0  0  0  0  0  0  0  0  0  0  0
    1.7585   -4.2040    0.0000 C   0  0  0  0  0  0  0  0  0  0  0  0
    2.4729   -4.6165    0.0000 C   0  0  0  0  0  0  0  0  0  0  0  0
    3.1874   -4.2040    0.0000 C   0  0  0  0  0  0  0  0  0  0  0  0
  2  1  1  0  0  0  0
  2  3  1  0  0  0  0
  3  4  1  0  0  0  0
  5  4  1  0  0  0  0
  6  5  2  0  0  0  0
  7  6  1  0  0  0  0
  8  7  2  0  0  0  0
  9  8  1  0  0  0  0
  4  9  2  0  0  0  0
  3 10  1  0  0  0  0
 11 10  1  0  0  0  0
 12 11  2  0  0  0  0
 13 12  1  0  0  0  0
 14 13  2  0  0  0  0
 15 14  1  0  0  0  0
 10 15  2  0  0  0  0
 16  2  2  0  0  0  0
 17 16  1  0  0  0  0
 18 17  2  0  0  0  0
 19 18  1  0  0  0  0
  1 19  2  0  0  0  0
M  END
> <ChemID>
100348

> <CAS>
603-34-9

> <Original_SMILES>
c1ccccc1N(c1ccccc1)c1ccccc1

> <preferred_name>
Triphenylamine

> <dsstox_substance_id>
DTXSID4022076

> <dsstox_compound_id>
DTXCID702076

> <qc_level>
DSSTox_Low

> <Canonical_QSARr>
C1=CC=CC=C1N(C1C=CC=CC=1)C1C=CC=CC=1

> <InChI_Code_QSARr>
InChI=1S/C18H15N/c1-4-10-16(11-5-1)19(17-12-6-2-7-13-17)18-14-8-3-9-15-18/h1-15H

> <InChI Key_QSARr>
ODHXBMXNKOYIBV-UHFFFAOYSA-N

> <Salt_Solvent>


> <Salt_Solvent_ID>
0

> <MPID>
99622

> <KocRef>
Schuurmann-Main

> <LogKOC>
2.26

> <Tr_1_Tst_0>
1

$$$$
100349
  Mrv171c012251911022D          

  9  9  0  0  0  0            999 V2000
    2.5411   -0.6385    0.0000 N   0  0  0  0  0  0  0  0  0  0  0  0
    1.8266   -1.0510    0.0000 C   0  0  0  0  0  0  0  0  0  0  0  0
    1.1122   -0.6385    0.0000 C   0  0  0  0  0  0  0  0  0  0  0  0
    1.1122    0.1865    0.0000 Cl  0  0  0  0  0  0  0  0  0  0  0  0
    0.3977   -1.0510    0.0000 C   0  0  0  0  0  0  0  0  0  0  0  0
    0.3977   -1.8760    0.0000 C   0  0  0  0  0  0  0  0  0  0  0  0
    1.1122   -2.2885    0.0000 C   0  0  0  0  0  0  0  0  0  0  0  0
    1.8266   -1.8760    0.0000 C   0  0  0  0  0  0  0  0  0  0  0  0
    2.5411   -2.2885    0.0000 Cl  0  0  0  0  0  0  0  0  0  0  0  0
  1  2  1  0  0  0  0
  3  2  1  0  0  0  0
  3  4  1  0  0  0  0
  5  3  2  0  0  0  0
  6  5  1  0  0  0  0
  7  6  2  0  0  0  0
  8  7  1  0  0  0  0
  2  8  2  0  0  0  0
  8  9  1  0  0  0  0
M  END
> <ChemID>
100349

> <CAS>
608-31-1

> <Original_SMILES>
Nc1c(Cl)cccc1Cl

> <preferred_name>
2,6-Dichloroaniline

> <dsstox_substance_id>
DTXSID5044449

> <dsstox_compound_id>
DTXCID3024449

> <qc_level>
DSSTox_Low

> <Canonical_QSARr>
NC1C(Cl)=CC=CC=1Cl

> <InChI_Code_QSARr>
InChI=1S/C6H5Cl2N/c7-4-2-1-3-5(8)6(4)9/h1-3H,9H2

> <InChI Key_QSARr>
JDMFXJULNGEPOI-UHFFFAOYSA-N

> <Salt_Solvent>


> <Salt_Solvent_ID>
0

> <MPID>
99623

> <KocRef>
Schuurmann-Main

> <LogKOC>
3.25

> <Tr_1_Tst_0>
1

$$$$
100350
  Mrv171c012251911022D          

 11 11  0  0  0  0            999 V2000
    2.2661   -1.3099    0.0000 C   0  0  0  0  0  0  0  0  0  0  0  0
    2.9805   -1.7224    0.0000 Cl  0  0  0  0  0  0  0  0  0  0  0  0
    2.2661   -0.4849    0.0000 C   0  0  0  0  0  0  0  0  0  0  0  0
    1.5516   -0.0724    0.0000 C   0  0  0  0  0  0  0  0  0  0  0  0
    1.5516    0.7526    0.0000 Cl  0  0  0  0  0  0  0  0  0  0  0  0
    0.8371   -0.4849    0.0000 C   0  0  0  0  0  0  0  0  0  0  0  0
    0.1226   -0.0724    0.0000 Cl  0  0  0  0  0  0  0  0  0  0  0  0
    0.8371   -1.3099    0.0000 C   0  0  0  0  0  0  0  0  0  0  0  0
    0.1226   -1.7224    0.0000 Cl  0  0  0  0  0  0  0  0  0  0  0  0
    1.5516   -1.7224    0.0000 C   0  0  0  0  0  0  0  0  0  0  0  0
    1.5516   -2.5474    0.0000 Cl  0  0  0  0  0  0  0  0  0  0  0  0
  1  2  1  0  0  0  0
  3  1  2  0  0  0  0
  4  3  1  0  0  0  0
  4  5  1  0  0  0  0
  6  4  2  0  0  0  0
  6  7  1  0  0  0  0
  8  6  1  0  0  0  0
  8  9  1  0  0  0  0
 10  8  2  0  0  0  0
  1 10  1  0  0  0  0
 10 11  1  0  0  0  0
M  END
> <ChemID>
100350

> <CAS>
608-93-5

> <Original_SMILES>
Clc1c(Cl)c(Cl)cc(Cl)c1Cl

> <preferred_name>
Pentachlorobenzene

> <dsstox_substance_id>
DTXSID7024247

> <dsstox_compound_id>
DTXCID804247

> <qc_level>
DSSTox_Low

> <Canonical_QSARr>
ClC1=CC(Cl)=C(Cl)C(Cl)=C1Cl

> <InChI_Code_QSARr>
InChI=1S/C6HCl5/c7-2-1-3(8)5(10)6(11)4(2)9/h1H

> <InChI Key_QSARr>
CEOCDNVZRAIOQZ-UHFFFAOYSA-N

> <Salt_Solvent>


> <Salt_Solvent_ID>
0

> <MPID>
99624

> <KocRef>
SRC 1992 Non-Polar

> <LogKOC>
3.5

> <Tr_1_Tst_0>
0

$$$$
100351
  Mrv171c012251911022D          

 10 10  0  0  0  0            999 V2000
    3.0543   -2.3340    0.0000 O   0  0  0  0  0  0  0  0  0  0  0  0
    2.3399   -1.9215    0.0000 C   0  0  0  0  0  0  0  0  0  0  0  0
    2.3399   -1.0965    0.0000 C   0  0  0  0  0  0  0  0  0  0  0  0
    1.6254   -0.6840    0.0000 C   0  0  0  0  0  0  0  0  0  0  0  0
    1.6254    0.1410    0.0000 Cl  0  0  0  0  0  0  0  0  0  0  0  0
    0.9109   -1.0965    0.0000 C   0  0  0  0  0  0  0  0  0  0  0  0
    0.1965   -0.6840    0.0000 Cl  0  0  0  0  0  0  0  0  0  0  0  0
    0.9109   -1.9215    0.0000 C   0  0  0  0  0  0  0  0  0  0  0  0
    0.1965   -2.3340    0.0000 Cl  0  0  0  0  0  0  0  0  0  0  0  0
    1.6254   -2.3340    0.0000 C   0  0  0  0  0  0  0  0  0  0  0  0
  1  2  1  0  0  0  0
  3  2  1  0  0  0  0
  4  3  2  0  0  0  0
  4  5  1  0  0  0  0
  6  4  1  0  0  0  0
  6  7  1  0  0  0  0
  8  6  2  0  0  0  0
  8  9  1  0  0  0  0
 10  8  1  0  0  0  0
  2 10  2  0  0  0  0
M  END
> <ChemID>
100351

> <CAS>
609-19-8

> <Original_SMILES>
Oc1cc(Cl)c(Cl)c(Cl)c1

> <preferred_name>
3,4,5-Trichlorophenol

> <dsstox_substance_id>
DTXSID4026212

> <dsstox_compound_id>
DTXCID106212

> <qc_level>
DSSTox_High

> <Canonical_QSARr>
OC1=CC(Cl)=C(Cl)C(Cl)=C1

> <InChI_Code_QSARr>
InChI=1S/C6H3Cl3O/c7-4-1-3(10)2-5(8)6(4)9/h1-2,10H

> <InChI Key_QSARr>
GBNHEBQXJVDXSW-UHFFFAOYSA-N

> <Salt_Solvent>


> <Salt_Solvent_ID>
0

> <MPID>
99625

> <KocRef>
Schuurmann-Main

> <LogKOC>
3.56

> <Tr_1_Tst_0>
1

$$$$
100352
  Mrv171c012251911022D          

 10 10  0  0  0  0            999 V2000
    1.1417   -1.4837    0.0000 C   0  0  0  0  0  0  0  0  0  0  0  0
    0.4272   -1.0712    0.0000 C   0  0  0  0  0  0  0  0  0  0  0  0
    0.4272   -0.2462    0.0000 O   0  0  0  0  0  0  0  0  0  0  0  0
   -0.2873   -1.4837    0.0000 N   0  0  0  0  0  0  0  0  0  0  0  0
    1.1417   -2.3087    0.0000 C   0  0  0  0  0  0  0  0  0  0  0  0
    1.8561   -2.7212    0.0000 C   0  0  0  0  0  0  0  0  0  0  0  0
    2.5706   -2.3087    0.0000 C   0  0  0  0  0  0  0  0  0  0  0  0
    2.5706   -1.4837    0.0000 C   0  0  0  0  0  0  0  0  0  0  0  0
    1.8561   -1.0712    0.0000 C   0  0  0  0  0  0  0  0  0  0  0  0
    1.8561   -0.2462    0.0000 Cl  0  0  0  0  0  0  0  0  0  0  0  0
  1  2  1  0  0  0  0
  2  3  2  0  0  0  0
  2  4  1  0  0  0  0
  5  1  2  0  0  0  0
  6  5  1  0  0  0  0
  7  6  2  0  0  0  0
  8  7  1  0  0  0  0
  9  8  2  0  0  0  0
  1  9  1  0  0  0  0
  9 10  1  0  0  0  0
M  END
> <ChemID>
100352

> <CAS>
609-66-5

> <Original_SMILES>
NC(=O)c1ccccc1Cl

> <preferred_name>
2-Chlorobenzamide

> <dsstox_substance_id>
DTXSID3052278

> <dsstox_compound_id>
DTXCID7030850

> <qc_level>
DSSTox_Low

> <Canonical_QSARr>
NC(=O)C1=CC=CC=C1Cl

> <InChI_Code_QSARr>
InChI=1S/C7H6ClNO/c8-6-4-2-1-3-5(6)7(9)10/h1-4H,(H2,9,10)

> <InChI Key_QSARr>
RBGDLYUEXLWQBZ-UHFFFAOYSA-N

> <Salt_Solvent>


> <Salt_Solvent_ID>
0

> <MPID>
99626

> <KocRef>
Schuurmann-Main

> <LogKOC>
1.51

> <Tr_1_Tst_0>
1

$$$$
100353
  Mrv171c012251911022D          

 12 12  0  0  0  0            999 V2000
    2.5577   -1.6229    0.0000 C   0  0  0  0  0  0  0  0  0  0  0  0
    1.8432   -2.0354    0.0000 C   0  0  0  0  0  0  0  0  0  0  0  0
    1.1287   -1.6229    0.0000 C   0  0  0  0  0  0  0  0  0  0  0  0
    1.1287   -0.7979    0.0000 N   0  3  0  0  0  0  0  0  0  0  0  0
    0.4143   -0.3854    0.0000 O   0  5  0  0  0  0  0  0  0  0  0  0
    1.8432   -0.3854    0.0000 O   0  0  0  0  0  0  0  0  0  0  0  0
    0.4143   -2.0354    0.0000 C   0  0  0  0  0  0  0  0  0  0  0  0
    0.4143   -2.8604    0.0000 C   0  0  0  0  0  0  0  0  0  0  0  0
    1.1287   -3.2729    0.0000 C   0  0  0  0  0  0  0  0  0  0  0  0
    1.8432   -2.8604    0.0000 C   0  0  0  0  0  0  0  0  0  0  0  0
    3.2721   -2.0354    0.0000 O   0  0  0  0  0  0  0  0  0  0  0  0
    2.5577   -0.7979    0.0000 N   0  0  0  0  0  0  0  0  0  0  0  0
  1  2  1  0  0  0  0
  3  2  1  0  0  0  0
  3  4  1  0  0  0  0
  4  5  1  0  0  0  0
  4  6  2  0  0  0  0
  7  3  2  0  0  0  0
  8  7  1  0  0  0  0
  9  8  2  0  0  0  0
 10  9  1  0  0  0  0
  2 10  2  0  0  0  0
  1 11  2  0  0  0  0
  1 12  1  0  0  0  0
M  CHG  2   4   1   5  -1
M  END
> <ChemID>
100353

> <CAS>
610-15-1

> <Original_SMILES>
NC(=O)c1ccccc1[N+]([O-])=O

> <preferred_name>
2-Nitrobenzamide

> <dsstox_substance_id>
DTXSID0025733

> <dsstox_compound_id>
DTXCID005733

> <qc_level>
DSSTox_Low

> <Canonical_QSARr>
NC(=O)C1=CC=CC=C1[N+]([O-])=O

> <InChI_Code_QSARr>
InChI=1S/C7H6N2O3/c8-7(10)5-3-1-2-4-6(5)9(11)12/h1-4H,(H2,8,10)

> <InChI Key_QSARr>
KLGQWSOYKYFBTR-UHFFFAOYSA-N

> <Salt_Solvent>


> <Salt_Solvent_ID>
0

> <MPID>
99627

> <KocRef>
Schuurmann-Main

> <LogKOC>
1.45

> <Tr_1_Tst_0>
1

$$$$
100354
  Mrv171c012251911022D          

 15 15  0  0  0  0            999 V2000
    1.0955    0.5775    0.0000 C   0  0  0  0  0  0  0  0  0  0  0  0
    1.8100    0.1650    0.0000 C   0  0  0  0  0  0  0  0  0  0  0  0
    1.8100   -0.6600    0.0000 O   0  0  0  0  0  0  0  0  0  0  0  0
    2.5245    0.5775    0.0000 O   0  0  0  0  0  0  0  0  0  0  0  0
    1.0955    1.4025    0.0000 C   0  0  0  0  0  0  0  0  0  0  0  0
    0.3810    1.8150    0.0000 C   0  0  0  0  0  0  0  0  0  0  0  0
    0.3810    2.6400    0.0000 N   0  3  0  0  0  0  0  0  0  0  0  0
   -0.3334    3.0525    0.0000 O   0  5  0  0  0  0  0  0  0  0  0  0
    1.0955    3.0525    0.0000 O   0  0  0  0  0  0  0  0  0  0  0  0
   -0.3334    1.4025    0.0000 C   0  0  0  0  0  0  0  0  0  0  0  0
   -0.3334    0.5775    0.0000 C   0  0  0  0  0  0  0  0  0  0  0  0
    0.3810    0.1650    0.0000 C   0  0  0  0  0  0  0  0  0  0  0  0
    0.3810   -0.6600    0.0000 N   0  3  0  0  0  0  0  0  0  0  0  0
    1.0955   -1.0725    0.0000 O   0  5  0  0  0  0  0  0  0  0  0  0
   -0.3334   -1.0725    0.0000 O   0  0  0  0  0  0  0  0  0  0  0  0
  1  2  1  0  0  0  0
  2  3  2  0  0  0  0
  2  4  1  0  0  0  0
  5  1  1  0  0  0  0
  6  5  2  0  0  0  0
  6  7  1  0  0  0  0
  7  8  1  0  0  0  0
  7  9  2  0  0  0  0
 10  6  1  0  0  0  0
 11 10  2  0  0  0  0
 12 11  1  0  0  0  0
  1 12  2  0  0  0  0
 12 13  1  0  0  0  0
 13 14  1  0  0  0  0
 13 15  2  0  0  0  0
M  CHG  4   7   1   8  -1  13   1  14  -1
M  END
> <ChemID>
100354

> <CAS>
610-28-6

> <Original_SMILES>
[O-][N+](=O)c1ccc(cc1C(O)=O)[N+]([O-])=O

> <preferred_name>
Benzoic acid, 2,5-dinitro-

> <dsstox_substance_id>
DTXSID3060582

> <dsstox_compound_id>
DTXCID3042928

> <qc_level>
Public_High

> <Canonical_QSARr>
[O-][N+](=O)C1C=CC(=CC=1C(O)=O)[N+]([O-])=O

> <InChI_Code_QSARr>
InChI=1S/C7H4N2O6/c10-7(11)5-3-4(8(12)13)1-2-6(5)9(14)15/h1-3H,(H,10,11)

> <InChI Key_QSARr>
YKMDNKRCCODWMG-UHFFFAOYSA-N

> <Salt_Solvent>


> <Salt_Solvent_ID>
0

> <MPID>
99628

> <KocRef>
Schuurmann-Main

> <LogKOC>
2.3

> <Tr_1_Tst_0>
0

$$$$
100355
  Mrv171c012251911022D          

 11 11  0  0  0  0            999 V2000
    0.3248    1.2375    0.0000 C   0  0  0  0  0  0  0  0  0  0  0  0
   -0.3897    0.8250    0.0000 C   0  0  0  0  0  0  0  0  0  0  0  0
   -0.3897   -0.0000    0.0000 C   0  0  0  0  0  0  0  0  0  0  0  0
    0.3248   -0.4125    0.0000 C   0  0  0  0  0  0  0  0  0  0  0  0
    1.0392    0.0000    0.0000 C   0  0  0  0  0  0  0  0  0  0  0  0
    1.0392    0.8250    0.0000 C   0  0  0  0  0  0  0  0  0  0  0  0
    0.3248    2.0625    0.0000 C   0  0  0  0  0  0  0  0  0  0  0  0
   -0.3897    2.4750    0.0000 O   0  0  0  0  0  0  0  0  0  0  0  0
    1.0392    2.4750    0.0000 N   0  0  0  0  0  0  0  0  0  0  0  0
    1.0392    3.3000    0.0000 C   0  0  0  0  0  0  0  0  0  0  0  0
    1.7537    2.0625    0.0000 C   0  0  0  0  0  0  0  0  0  0  0  0
  2  1  1  0  0  0  0
  3  2  2  0  0  0  0
  4  3  1  0  0  0  0
  5  4  2  0  0  0  0
  6  5  1  0  0  0  0
  1  6  2  0  0  0  0
  1  7  1  0  0  0  0
  7  8  2  0  0  0  0
  7  9  1  0  0  0  0
  9 10  1  0  0  0  0
  9 11  1  0  0  0  0
M  END
> <ChemID>
100355

> <CAS>
611-74-5

> <Original_SMILES>
CN(C)C(=O)c1ccccc1

> <preferred_name>
Benzamide, N,N-dimethyl-

> <dsstox_substance_id>
DTXSID4060602

> <dsstox_compound_id>
DTXCID9042966

> <qc_level>
Public_High

> <Canonical_QSARr>
CN(C)C(=O)C1C=CC=CC=1

> <InChI_Code_QSARr>
InChI=1S/C9H11NO/c1-10(2)9(11)8-6-4-3-5-7-8/h3-7H,1-2H3

> <InChI Key_QSARr>
IMNDHOCGZLYMRO-UHFFFAOYSA-N

> <Salt_Solvent>


> <Salt_Solvent_ID>
0

> <MPID>
99629

> <KocRef>
Baker-Data

> <LogKOC>
1.6

> <Tr_1_Tst_0>
1

$$$$
100356
  Mrv171c012251911022D          

 15 17  0  0  0  0            999 V2000
   -0.0007   -1.6513    0.0000 N   0  0  0  0  0  0  0  0  0  0  0  0
    0.7137   -1.2388    0.0000 C   0  0  0  0  0  0  0  0  0  0  0  0
    1.4282   -1.6513    0.0000 C   0  0  0  0  0  0  0  0  0  0  0  0
    2.1427   -1.2388    0.0000 C   0  0  0  0  0  0  0  0  0  0  0  0
    2.8572   -1.6513    0.0000 C   0  0  0  0  0  0  0  0  0  0  0  0
    3.5716   -1.2388    0.0000 C   0  0  0  0  0  0  0  0  0  0  0  0
    4.2861   -1.6513    0.0000 C   0  0  0  0  0  0  0  0  0  0  0  0
    5.0006   -1.2388    0.0000 C   0  0  0  0  0  0  0  0  0  0  0  0
    5.0006   -0.4138    0.0000 C   0  0  0  0  0  0  0  0  0  0  0  0
    4.2861   -0.0013    0.0000 C   0  0  0  0  0  0  0  0  0  0  0  0
    3.5716   -0.4138    0.0000 C   0  0  0  0  0  0  0  0  0  0  0  0
    2.8572   -0.0013    0.0000 C   0  0  0  0  0  0  0  0  0  0  0  0
    2.1427   -0.4138    0.0000 C   0  0  0  0  0  0  0  0  0  0  0  0
    1.4282   -0.0013    0.0000 C   0  0  0  0  0  0  0  0  0  0  0  0
    0.7137   -0.4138    0.0000 C   0  0  0  0  0  0  0  0  0  0  0  0
  1  2  1  0  0  0  0
  3  2  1  0  0  0  0
  4  3  2  0  0  0  0
  4  5  1  0  0  0  0
  5  6  2  0  0  0  0
  7  6  1  0  0  0  0
  8  7  2  0  0  0  0
  9  8  1  0  0  0  0
 10  9  2  0  0  0  0
 11 10  1  0  0  0  0
  6 11  1  0  0  0  0
 11 12  2  0  0  0  0
 12 13  1  0  0  0  0
 13  4  1  0  0  0  0
 14 13  2  0  0  0  0
 15 14  1  0  0  0  0
  2 15  2  0  0  0  0
M  END
> <ChemID>
100356

> <CAS>
613-13-8

> <Original_SMILES>
Nc1cc2cc3ccccc3cc2cc1

> <preferred_name>
2-Aminoanthracene

> <dsstox_substance_id>
DTXSID2024458

> <dsstox_compound_id>
DTXCID904458

> <qc_level>
DSSTox_Low

> <Canonical_QSARr>
NC1C=C2C=C3C=CC=CC3=CC2=CC=1

> <InChI_Code_QSARr>
InChI=1S/C14H11N/c15-14-6-5-12-7-10-3-1-2-4-11(10)8-13(12)9-14/h1-9H,15H2

> <InChI Key_QSARr>
YCSBALJAGZKWFF-UHFFFAOYSA-N

> <Salt_Solvent>


> <Salt_Solvent_ID>
0

> <MPID>
99630

> <KocRef>
Schuurmann-Main

> <LogKOC>
4.45

> <Tr_1_Tst_0>
1

$$$$
100357
  Mrv171c012251911022D          

 10 10  0  0  0  0            999 V2000
    1.2469   -0.5005    0.0000 C   0  0  0  0  0  0  0  0  0  0  0  0
    1.2469   -1.3255    0.0000 C   0  0  0  0  0  0  0  0  0  0  0  0
    0.5324   -1.7380    0.0000 C   0  0  0  0  0  0  0  0  0  0  0  0
    0.5324   -2.5630    0.0000 C   0  0  0  0  0  0  0  0  0  0  0  0
    1.2469   -2.9755    0.0000 C   0  0  0  0  0  0  0  0  0  0  0  0
    1.9613   -2.5630    0.0000 C   0  0  0  0  0  0  0  0  0  0  0  0
    1.9613   -1.7380    0.0000 C   0  0  0  0  0  0  0  0  0  0  0  0
    1.9613   -0.0880    0.0000 N   0  0  0  0  0  0  0  0  0  0  0  0
    1.9613    0.7370    0.0000 C   0  0  0  0  0  0  0  0  0  0  0  0
    0.5324   -0.0880    0.0000 O   0  0  0  0  0  0  0  0  0  0  0  0
  1  2  1  0  0  0  0
  3  2  1  0  0  0  0
  4  3  2  0  0  0  0
  5  4  1  0  0  0  0
  6  5  2  0  0  0  0
  7  6  1  0  0  0  0
  2  7  2  0  0  0  0
  1  8  1  0  0  0  0
  8  9  1  0  0  0  0
  1 10  2  0  0  0  0
M  END
> <ChemID>
100357

> <CAS>
613-93-4

> <Original_SMILES>
CNC(=O)c1ccccc1

> <preferred_name>
N-Methylbenzamide

> <dsstox_substance_id>
DTXSID5025570

> <dsstox_compound_id>
DTXCID605570

> <qc_level>
DSSTox_Low

> <Canonical_QSARr>
CNC(=O)C1C=CC=CC=1

> <InChI_Code_QSARr>
InChI=1S/C8H9NO/c1-9-8(10)7-5-3-2-4-6-7/h2-6H,1H3,(H,9,10)

> <InChI Key_QSARr>
NCCHARWOCKOHIH-UHFFFAOYSA-N

> <Salt_Solvent>


> <Salt_Solvent_ID>
0

> <MPID>
99631

> <KocRef>
Schuurmann-Main

> <LogKOC>
1.68

> <Tr_1_Tst_0>
1

$$$$
100358
  Mrv171c012251911022D          

 17 17  0  0  0  0            999 V2000
    5.0962   -1.8198    0.0000 O   0  0  0  0  0  0  0  0  0  0  0  0
    5.8107   -2.2323    0.0000 C   0  0  0  0  0  0  0  0  0  0  0  0
    5.8107   -3.0573    0.0000 C   0  0  0  0  0  0  0  0  0  0  0  0
    5.0962   -0.9948    0.0000 C   0  0  0  0  0  0  0  0  0  0  0  0
    4.3818   -0.5823    0.0000 C   0  0  0  0  0  0  0  0  0  0  0  0
    4.3818    0.2427    0.0000 C   0  0  0  0  0  0  0  0  0  0  0  0
    3.6673    0.6552    0.0000 C   0  0  0  0  0  0  0  0  0  0  0  0
    3.6673    1.4802    0.0000 N   0  3  0  0  0  0  0  0  0  0  0  0
    2.9528    1.8927    0.0000 O   0  0  0  0  0  0  0  0  0  0  0  0
    4.3818    1.8927    0.0000 O   0  5  0  0  0  0  0  0  0  0  0  0
    2.9528    0.2427    0.0000 C   0  0  0  0  0  0  0  0  0  0  0  0
    2.9528   -0.5823    0.0000 C   0  0  0  0  0  0  0  0  0  0  0  0
    2.2384   -0.9948    0.0000 N   0  3  0  0  0  0  0  0  0  0  0  0
    2.2384   -1.8198    0.0000 O   0  0  0  0  0  0  0  0  0  0  0  0
    1.5239   -0.5823    0.0000 O   0  5  0  0  0  0  0  0  0  0  0  0
    3.6673   -0.9948    0.0000 C   0  0  0  0  0  0  0  0  0  0  0  0
    5.8107   -0.5823    0.0000 O   0  0  0  0  0  0  0  0  0  0  0  0
  1  2  1  0  0  0  0
  2  3  1  0  0  0  0
  1  4  1  0  0  0  0
  4  5  1  0  0  0  0
  6  5  1  0  0  0  0
  7  6  2  0  0  0  0
  7  8  1  0  0  0  0
  8  9  2  0  0  0  0
  8 10  1  0  0  0  0
 11  7  1  0  0  0  0
 12 11  2  0  0  0  0
 12 13  1  0  0  0  0
 13 14  2  0  0  0  0
 13 15  1  0  0  0  0
 16 12  1  0  0  0  0
  5 16  2  0  0  0  0
  4 17  2  0  0  0  0
M  CHG  4   8   1  10  -1  13   1  15  -1
M  END
> <ChemID>
100358

> <CAS>
618-71-3

> <Original_SMILES>
CCOC(=O)c1cc(cc(c1)[N+]([O-])=O)[N+]([O-])=O

> <preferred_name>
Ethyl 3,5-dinitrobenzoate

> <dsstox_substance_id>
DTXSID20210801

> <dsstox_compound_id>
DTXCID10133292

> <qc_level>
Public_Medium

> <Canonical_QSARr>
CCOC(=O)C1C=C(C=C(C=1)[N+]([O-])=O)[N+]([O-])=O

> <InChI_Code_QSARr>
InChI=1S/C9H8N2O6/c1-2-17-9(12)6-3-7(10(13)14)5-8(4-6)11(15)16/h3-5H,2H2,1H3

> <InChI Key_QSARr>
IBQREHJPMPCXQA-UHFFFAOYSA-N

> <Salt_Solvent>


> <Salt_Solvent_ID>
0

> <MPID>
99632

> <KocRef>
Schuurmann-Main

> <LogKOC>
2.74

> <Tr_1_Tst_0>
0

$$$$
100359
  Mrv171c012251911022D          

 13 13  0  0  0  0            999 V2000
    3.8548   -2.9583    0.0000 N   0  0  0  0  0  0  0  0  0  0  0  0
    3.1403   -2.5458    0.0000 C   0  0  0  0  0  0  0  0  0  0  0  0
    3.1403   -1.7208    0.0000 C   0  0  0  0  0  0  0  0  0  0  0  0
    2.4259   -1.3083    0.0000 C   0  0  0  0  0  0  0  0  0  0  0  0
    2.4259   -0.4833    0.0000 N   0  3  0  0  0  0  0  0  0  0  0  0
    3.1403   -0.0708    0.0000 O   0  0  0  0  0  0  0  0  0  0  0  0
    1.7114   -0.0708    0.0000 O   0  5  0  0  0  0  0  0  0  0  0  0
    1.7114   -1.7208    0.0000 C   0  0  0  0  0  0  0  0  0  0  0  0
    1.7114   -2.5458    0.0000 C   0  0  0  0  0  0  0  0  0  0  0  0
    0.9969   -2.9583    0.0000 N   0  3  0  0  0  0  0  0  0  0  0  0
    0.9969   -3.7833    0.0000 O   0  0  0  0  0  0  0  0  0  0  0  0
    0.2825   -2.5458    0.0000 O   0  5  0  0  0  0  0  0  0  0  0  0
    2.4259   -2.9583    0.0000 C   0  0  0  0  0  0  0  0  0  0  0  0
  1  2  1  0  0  0  0
  3  2  1  0  0  0  0
  4  3  2  0  0  0  0
  4  5  1  0  0  0  0
  5  6  2  0  0  0  0
  5  7  1  0  0  0  0
  8  4  1  0  0  0  0
  9  8  2  0  0  0  0
  9 10  1  0  0  0  0
 10 11  2  0  0  0  0
 10 12  1  0  0  0  0
 13  9  1  0  0  0  0
  2 13  2  0  0  0  0
M  CHG  4   5   1   7  -1  10   1  12  -1
M  END
> <ChemID>
100359

> <CAS>
618-87-1

> <Original_SMILES>
Nc1cc(cc(c1)[N+]([O-])=O)[N+]([O-])=O

> <preferred_name>
3,5-Dinitroaniline

> <dsstox_substance_id>
DTXSID0044151

> <dsstox_compound_id>
DTXCID8024151

> <qc_level>
DSSTox_Low

> <Canonical_QSARr>
NC1C=C(C=C(C=1)[N+]([O-])=O)[N+]([O-])=O

> <InChI_Code_QSARr>
InChI=1S/C6H5N3O4/c7-4-1-5(8(10)11)3-6(2-4)9(12)13/h1-3H,7H2

> <InChI Key_QSARr>
MPBZUKLDHPOCLS-UHFFFAOYSA-N

> <Salt_Solvent>


> <Salt_Solvent_ID>
0

> <MPID>
99633

> <KocRef>
Schuurmann-Main

> <LogKOC>
2.55

> <Tr_1_Tst_0>
1

$$$$
100360
  Mrv171c012251911022D          

 10 10  0  0  0  0            999 V2000
   -0.0000   -0.8250    0.0000 O   0  0  0  0  0  0  0  0  0  0  0  0
    0.7145   -0.4125    0.0000 C   0  0  0  0  0  0  0  0  0  0  0  0
    0.7145    0.4125    0.0000 C   0  0  0  0  0  0  0  0  0  0  0  0
    1.4289    0.8250    0.0000 C   0  0  0  0  0  0  0  0  0  0  0  0
    1.4289    1.6500    0.0000 C   0  0  0  0  0  0  0  0  0  0  0  0
    0.7145    2.0625    0.0000 C   0  0  0  0  0  0  0  0  0  0  0  0
    0.7145    2.8875    0.0000 C   0  0  0  0  0  0  0  0  0  0  0  0
   -0.0000    1.6500    0.0000 C   0  0  0  0  0  0  0  0  0  0  0  0
   -0.0000    0.8250    0.0000 C   0  0  0  0  0  0  0  0  0  0  0  0
    1.4289   -0.8250    0.0000 N   0  0  0  0  0  0  0  0  0  0  0  0
  1  2  2  0  0  0  0
  2  3  1  0  0  0  0
  4  3  1  0  0  0  0
  5  4  2  0  0  0  0
  6  5  1  0  0  0  0
  6  7  1  0  0  0  0
  8  6  2  0  0  0  0
  9  8  1  0  0  0  0
  3  9  2  0  0  0  0
  2 10  1  0  0  0  0
M  END
> <ChemID>
100360

> <CAS>
619-55-6

> <Original_SMILES>
Cc1ccc(cc1)C(N)=O

> <preferred_name>
Benzamide, 4-methyl-

> <dsstox_substance_id>
DTXSID2060705

> <dsstox_compound_id>
DTXCID6043177

> <qc_level>
Public_High

> <Canonical_QSARr>
CC1=CC=C(C=C1)C(N)=O

> <InChI_Code_QSARr>
InChI=1S/C8H9NO/c1-6-2-4-7(5-3-6)8(9)10/h2-5H,1H3,(H2,9,10)

> <InChI Key_QSARr>
UHBGYFCCKRAEHA-UHFFFAOYSA-N

> <Salt_Solvent>


> <Salt_Solvent_ID>
0

> <MPID>
99634

> <KocRef>
Schuurmann-Main

> <LogKOC>
1.78

> <Tr_1_Tst_0>
1

$$$$
100361
  Mrv171c012251911022D          

 12 12  0  0  0  0            999 V2000
    2.7787   -0.3017    0.0000 C   0  0  0  0  0  0  0  0  0  0  0  0
    2.0642    0.1108    0.0000 C   0  0  0  0  0  0  0  0  0  0  0  0
    2.0642    0.9358    0.0000 C   0  0  0  0  0  0  0  0  0  0  0  0
    1.3497    1.3483    0.0000 N   0  0  0  0  0  0  0  0  0  0  0  0
    2.7787    1.3483    0.0000 O   0  0  0  0  0  0  0  0  0  0  0  0
    1.3497   -0.3017    0.0000 C   0  0  0  0  0  0  0  0  0  0  0  0
    1.3497   -1.1267    0.0000 C   0  0  0  0  0  0  0  0  0  0  0  0
    2.0642   -1.5392    0.0000 C   0  0  0  0  0  0  0  0  0  0  0  0
    2.0642   -2.3642    0.0000 N   0  3  0  0  0  0  0  0  0  0  0  0
    2.7787   -2.7767    0.0000 O   0  0  0  0  0  0  0  0  0  0  0  0
    1.3497   -2.7767    0.0000 O   0  5  0  0  0  0  0  0  0  0  0  0
    2.7787   -1.1267    0.0000 C   0  0  0  0  0  0  0  0  0  0  0  0
  2  1  1  0  0  0  0
  2  3  1  0  0  0  0
  3  4  1  0  0  0  0
  3  5  2  0  0  0  0
  6  2  2  0  0  0  0
  7  6  1  0  0  0  0
  8  7  2  0  0  0  0
  8  9  1  0  0  0  0
  9 10  2  0  0  0  0
  9 11  1  0  0  0  0
 12  8  1  0  0  0  0
  1 12  2  0  0  0  0
M  CHG  2   9   1  11  -1
M  END
> <ChemID>
100361

> <CAS>
619-80-7

> <Original_SMILES>
NC(=O)c1ccc(cc1)[N+]([O-])=O

> <preferred_name>
4-Nitrobenzamide

> <dsstox_substance_id>
DTXSID8022086

> <dsstox_compound_id>
DTXCID002086

> <qc_level>
DSSTox_Low

> <Canonical_QSARr>
NC(=O)C1C=CC(=CC=1)[N+]([O-])=O

> <InChI_Code_QSARr>
InChI=1S/C7H6N2O3/c8-7(10)5-1-3-6(4-2-5)9(11)12/h1-4H,(H2,8,10)

> <InChI Key_QSARr>
ZESWUEBPRPGMTP-UHFFFAOYSA-N

> <Salt_Solvent>


> <Salt_Solvent_ID>
0

> <MPID>
99635

> <KocRef>
Schuurmann-Main

> <LogKOC>
1.93

> <Tr_1_Tst_0>
1

$$$$
100362
  Mrv171c012251911022D          

 11 11  0  0  0  0            999 V2000
    1.6499   -1.8563    0.0000 Br  0  0  0  0  0  0  0  0  0  0  0  0
    2.3644   -1.4438    0.0000 C   0  0  0  0  0  0  0  0  0  0  0  0
    3.0789   -1.8563    0.0000 C   0  0  0  0  0  0  0  0  0  0  0  0
    3.7933   -1.4438    0.0000 C   0  0  0  0  0  0  0  0  0  0  0  0
    3.7933   -0.6188    0.0000 C   0  0  0  0  0  0  0  0  0  0  0  0
    3.0789   -0.2063    0.0000 C   0  0  0  0  0  0  0  0  0  0  0  0
    3.0789    0.6187    0.0000 N   0  0  0  0  0  0  0  0  0  0  0  0
    3.7933    1.0312    0.0000 C   0  0  0  0  0  0  0  0  0  0  0  0
    3.7933    1.8562    0.0000 C   0  0  0  0  0  0  0  0  0  0  0  0
    4.5078    0.6187    0.0000 O   0  0  0  0  0  0  0  0  0  0  0  0
    2.3644   -0.6188    0.0000 C   0  0  0  0  0  0  0  0  0  0  0  0
  1  2  1  0  0  0  0
  3  2  2  0  0  0  0
  4  3  1  0  0  0  0
  5  4  2  0  0  0  0
  6  5  1  0  0  0  0
  6  7  1  0  0  0  0
  7  8  1  0  0  0  0
  8  9  1  0  0  0  0
  8 10  2  0  0  0  0
 11  6  2  0  0  0  0
  2 11  1  0  0  0  0
M  END
> <ChemID>
100362

> <CAS>
621-38-5

> <Original_SMILES>
CC(=O)Nc1cccc(Br)c1

> <preferred_name>
Acetamide, N-(3-bromophenyl)- (9CI)

> <dsstox_substance_id>
DTXSID50211149

> <dsstox_compound_id>
DTXCID00133640

> <qc_level>
Public_Medium

> <Canonical_QSARr>
CC(=O)NC1C=CC=C(Br)C=1

> <InChI_Code_QSARr>
InChI=1S/C8H8BrNO/c1-6(11)10-8-4-2-3-7(9)5-8/h2-5H,1H3,(H,10,11)

> <InChI Key_QSARr>
XXHOHJTVFUJJMT-UHFFFAOYSA-N

> <Salt_Solvent>


> <Salt_Solvent_ID>
0

> <MPID>
99636

> <KocRef>
Schuurmann-Main

> <LogKOC>
2.01

> <Tr_1_Tst_0>
0

$$$$
100363
  Mrv171c012251911022D          

  9  9  0  0  0  0            999 V2000
    2.8607   -2.4795    0.0000 N   0  0  0  0  0  0  0  0  0  0  0  0
    2.1462   -2.0670    0.0000 C   0  0  0  0  0  0  0  0  0  0  0  0
    2.1462   -1.2420    0.0000 C   0  0  0  0  0  0  0  0  0  0  0  0
    1.4318   -0.8295    0.0000 C   0  0  0  0  0  0  0  0  0  0  0  0
    1.4318   -0.0045    0.0000 Cl  0  0  0  0  0  0  0  0  0  0  0  0
    0.7173   -1.2420    0.0000 C   0  0  0  0  0  0  0  0  0  0  0  0
    0.7173   -2.0670    0.0000 C   0  0  0  0  0  0  0  0  0  0  0  0
    0.0028   -2.4795    0.0000 Cl  0  0  0  0  0  0  0  0  0  0  0  0
    1.4318   -2.4795    0.0000 C   0  0  0  0  0  0  0  0  0  0  0  0
  1  2  1  0  0  0  0
  3  2  1  0  0  0  0
  4  3  2  0  0  0  0
  4  5  1  0  0  0  0
  6  4  1  0  0  0  0
  7  6  2  0  0  0  0
  7  8  1  0  0  0  0
  9  7  1  0  0  0  0
  2  9  2  0  0  0  0
M  END
> <ChemID>
100363

> <CAS>
626-43-7

> <Original_SMILES>
Nc1cc(Cl)cc(Cl)c1

> <preferred_name>
3,5-Dichloroaniline

> <dsstox_substance_id>
DTXSID7030307

> <dsstox_compound_id>
DTXCID5010307

> <qc_level>
DSSTox_Low

> <Canonical_QSARr>
NC1C=C(Cl)C=C(Cl)C=1

> <InChI_Code_QSARr>
InChI=1S/C6H5Cl2N/c7-4-1-5(8)3-6(9)2-4/h1-3H,9H2

> <InChI Key_QSARr>
UQRLKWGPEVNVHT-UHFFFAOYSA-N

> <Salt_Solvent>


> <Salt_Solvent_ID>
0

> <MPID>
99637

> <KocRef>
Schuurmann-Main

> <LogKOC>
2.49

> <Tr_1_Tst_0>
1

$$$$
100364
  Mrv171c012251911022D          

 16 16  0  0  0  0            999 V2000
    1.2057    1.2117    0.0000 C   0  0  0  0  0  0  0  0  0  0  0  0
    1.9201    1.6242    0.0000 C   0  0  0  0  0  0  0  0  0  0  0  0
    2.6346    1.2117    0.0000 O   0  0  0  0  0  0  0  0  0  0  0  0
    1.9201    2.4492    0.0000 O   0  0  0  0  0  0  0  0  0  0  0  0
    0.4912    1.6242    0.0000 C   0  0  0  0  0  0  0  0  0  0  0  0
    0.4912    2.4492    0.0000 Cl  0  0  0  0  0  0  0  0  0  0  0  0
   -0.2233    1.2117    0.0000 C   0  0  0  0  0  0  0  0  0  0  0  0
   -0.9378    1.6242    0.0000 Cl  0  0  0  0  0  0  0  0  0  0  0  0
   -0.2233    0.3867    0.0000 C   0  0  0  0  0  0  0  0  0  0  0  0
   -0.9378   -0.0258    0.0000 Cl  0  0  0  0  0  0  0  0  0  0  0  0
    0.4912   -0.0258    0.0000 C   0  0  0  0  0  0  0  0  0  0  0  0
    0.4912   -0.8508    0.0000 Cl  0  0  0  0  0  0  0  0  0  0  0  0
    1.2057    0.3867    0.0000 C   0  0  0  0  0  0  0  0  0  0  0  0
    1.9201   -0.0258    0.0000 C   0  0  0  0  0  0  0  0  0  0  0  0
    2.6346    0.3867    0.0000 O   0  0  0  0  0  0  0  0  0  0  0  0
    1.9201   -0.8508    0.0000 O   0  0  0  0  0  0  0  0  0  0  0  0
  1  2  1  0  0  0  0
  2  3  2  0  0  0  0
  2  4  1  0  0  0  0
  5  1  1  0  0  0  0
  5  6  1  0  0  0  0
  7  5  2  0  0  0  0
  7  8  1  0  0  0  0
  9  7  1  0  0  0  0
  9 10  1  0  0  0  0
 11  9  2  0  0  0  0
 11 12  1  0  0  0  0
 13 11  1  0  0  0  0
  1 13  2  0  0  0  0
 13 14  1  0  0  0  0
 14 15  2  0  0  0  0
 14 16  1  0  0  0  0
M  END
> <ChemID>
100364

> <CAS>
632-58-6

> <Original_SMILES>
OC(=O)c1c(c(Cl)c(Cl)c(Cl)c1Cl)C(O)=O

> <preferred_name>
Tetrachlorophthalic acid

> <dsstox_substance_id>
DTXSID6060896

> <dsstox_compound_id>
DTXCID6043753

> <qc_level>
Public_High

> <Canonical_QSARr>
OC(=O)C1=C(C(Cl)=C(Cl)C(Cl)=C1Cl)C(O)=O

> <InChI_Code_QSARr>
InChI=1S/C8H2Cl4O4/c9-3-1(7(13)14)2(8(15)16)4(10)6(12)5(3)11/h(H,13,14)(H,15,16)

> <InChI Key_QSARr>
WZHHYIOUKQNLQM-UHFFFAOYSA-N

> <Salt_Solvent>


> <Salt_Solvent_ID>
0

> <MPID>
99638

> <KocRef>
Schuurmann-Main

> <LogKOC>
3.3

> <Tr_1_Tst_0>
1

$$$$
100365
  Mrv171c012251911022D          

 10 10  0  0  0  0            999 V2000
    2.9360   -0.5675    0.0000 Cl  0  0  0  0  0  0  0  0  0  0  0  0
    2.2215   -0.9800    0.0000 C   0  0  0  0  0  0  0  0  0  0  0  0
    1.5071   -0.5675    0.0000 C   0  0  0  0  0  0  0  0  0  0  0  0
    1.5071    0.2575    0.0000 Cl  0  0  0  0  0  0  0  0  0  0  0  0
    0.7926   -0.9800    0.0000 C   0  0  0  0  0  0  0  0  0  0  0  0
    0.0781   -0.5675    0.0000 Cl  0  0  0  0  0  0  0  0  0  0  0  0
    0.7926   -1.8050    0.0000 C   0  0  0  0  0  0  0  0  0  0  0  0
    1.5071   -2.2175    0.0000 C   0  0  0  0  0  0  0  0  0  0  0  0
    2.2215   -1.8050    0.0000 C   0  0  0  0  0  0  0  0  0  0  0  0
    2.9360   -2.2175    0.0000 Cl  0  0  0  0  0  0  0  0  0  0  0  0
  1  2  1  0  0  0  0
  3  2  1  0  0  0  0
  3  4  1  0  0  0  0
  5  3  2  0  0  0  0
  5  6  1  0  0  0  0
  7  5  1  0  0  0  0
  8  7  2  0  0  0  0
  9  8  1  0  0  0  0
  2  9  2  0  0  0  0
  9 10  1  0  0  0  0
M  END
> <ChemID>
100365

> <CAS>
634-66-2

> <Original_SMILES>
Clc1ccc(Cl)c(Cl)c1Cl

> <preferred_name>
1,2,3,4-Tetrachlorobenzene

> <dsstox_substance_id>
DTXSID6026088

> <dsstox_compound_id>
DTXCID206088

> <qc_level>
DSSTox_Low

> <Canonical_QSARr>
ClC1C=CC(Cl)=C(Cl)C=1Cl

> <InChI_Code_QSARr>
InChI=1S/C6H2Cl4/c7-3-1-2-4(8)6(10)5(3)9/h1-2H

> <InChI Key_QSARr>
GBDZXPJXOMHESU-UHFFFAOYSA-N

> <Salt_Solvent>


> <Salt_Solvent_ID>
0

> <MPID>
99639

> <KocRef>
Nguyen-Add

> <LogKOC>
3.84

> <Tr_1_Tst_0>
1

$$$$
100366
  Mrv171c012251911022D          

 10 10  0  0  0  0            999 V2000
    1.9357   -2.7950    0.0000 N   0  0  0  0  0  0  0  0  0  0  0  0
    1.9357   -1.9700    0.0000 C   0  0  0  0  0  0  0  0  0  0  0  0
    2.6502   -1.5575    0.0000 C   0  0  0  0  0  0  0  0  0  0  0  0
    2.6502   -0.7325    0.0000 C   0  0  0  0  0  0  0  0  0  0  0  0
    1.9357   -0.3200    0.0000 C   0  0  0  0  0  0  0  0  0  0  0  0
    1.9357    0.5050    0.0000 Cl  0  0  0  0  0  0  0  0  0  0  0  0
    1.2213   -0.7325    0.0000 C   0  0  0  0  0  0  0  0  0  0  0  0
    0.5068   -0.3200    0.0000 Cl  0  0  0  0  0  0  0  0  0  0  0  0
    1.2213   -1.5575    0.0000 C   0  0  0  0  0  0  0  0  0  0  0  0
    0.5068   -1.9700    0.0000 Cl  0  0  0  0  0  0  0  0  0  0  0  0
  1  2  1  0  0  0  0
  3  2  1  0  0  0  0
  4  3  2  0  0  0  0
  5  4  1  0  0  0  0
  5  6  1  0  0  0  0
  7  5  2  0  0  0  0
  7  8  1  0  0  0  0
  9  7  1  0  0  0  0
  2  9  2  0  0  0  0
  9 10  1  0  0  0  0
M  END
> <ChemID>
100366

> <CAS>
634-67-3

> <Original_SMILES>
Nc1ccc(Cl)c(Cl)c1Cl

> <preferred_name>
2,3,4-Trichloroaniline

> <dsstox_substance_id>
DTXSID2022098

> <dsstox_compound_id>
DTXCID102098

> <qc_level>
DSSTox_Low

> <Canonical_QSARr>
NC1C=CC(Cl)=C(Cl)C=1Cl

> <InChI_Code_QSARr>
InChI=1S/C6H4Cl3N/c7-3-1-2-4(10)6(9)5(3)8/h1-2H,10H2

> <InChI Key_QSARr>
RRJUYQOFOMFVQS-UHFFFAOYSA-N

> <Salt_Solvent>


> <Salt_Solvent_ID>
0

> <MPID>
99640

> <KocRef>
Schuurmann-Main

> <LogKOC>
2.6

> <Tr_1_Tst_0>
0

$$$$
100367
  Mrv171c012251911022D          

 11 11  0  0  0  0            999 V2000
    4.3779    0.4721    0.0000 Cl  0  0  0  0  0  0  0  0  0  0  0  0
    3.6634    0.0596    0.0000 C   0  0  0  0  0  0  0  0  0  0  0  0
    2.9490    0.4721    0.0000 C   0  0  0  0  0  0  0  0  0  0  0  0
    2.9490    1.2971    0.0000 Cl  0  0  0  0  0  0  0  0  0  0  0  0
    2.2345    0.0596    0.0000 C   0  0  0  0  0  0  0  0  0  0  0  0
    1.5200    0.4721    0.0000 Cl  0  0  0  0  0  0  0  0  0  0  0  0
    2.2345   -0.7654    0.0000 C   0  0  0  0  0  0  0  0  0  0  0  0
    1.5200   -1.1779    0.0000 Cl  0  0  0  0  0  0  0  0  0  0  0  0
    2.9490   -1.1779    0.0000 C   0  0  0  0  0  0  0  0  0  0  0  0
    3.6634   -0.7654    0.0000 C   0  0  0  0  0  0  0  0  0  0  0  0
    4.3779   -1.1779    0.0000 N   0  0  0  0  0  0  0  0  0  0  0  0
  1  2  1  0  0  0  0
  3  2  2  0  0  0  0
  3  4  1  0  0  0  0
  5  3  1  0  0  0  0
  5  6  1  0  0  0  0
  7  5  2  0  0  0  0
  7  8  1  0  0  0  0
  9  7  1  0  0  0  0
 10  9  2  0  0  0  0
  2 10  1  0  0  0  0
 10 11  1  0  0  0  0
M  END
> <ChemID>
100367

> <CAS>
634-83-3

> <Original_SMILES>
Nc1cc(Cl)c(Cl)c(Cl)c1Cl

> <preferred_name>
2,3,4,5-Tetrachloroaniline

> <dsstox_substance_id>
DTXSID70212810

> <dsstox_compound_id>
DTXCID00135301

> <qc_level>
Public_Medium

> <Canonical_QSARr>
NC1=CC(Cl)=C(Cl)C(Cl)=C1Cl

> <InChI_Code_QSARr>
InChI=1S/C6H3Cl4N/c7-2-1-3(11)5(9)6(10)4(2)8/h1H,11H2

> <InChI Key_QSARr>
GBKZRUCVLTWAML-UHFFFAOYSA-N

> <Salt_Solvent>


> <Salt_Solvent_ID>
0

> <MPID>
99641

> <KocRef>
Schuurmann-Main

> <LogKOC>
3.03

> <Tr_1_Tst_0>
1

$$$$
100368
  Mrv171c012251911022D          

 10 10  0  0  0  0            999 V2000
    3.0980   -0.6840    0.0000 Cl  0  0  0  0  0  0  0  0  0  0  0  0
    2.3835   -1.0965    0.0000 C   0  0  0  0  0  0  0  0  0  0  0  0
    1.6691   -0.6840    0.0000 C   0  0  0  0  0  0  0  0  0  0  0  0
    1.6691    0.1410    0.0000 Cl  0  0  0  0  0  0  0  0  0  0  0  0
    0.9546   -1.0965    0.0000 C   0  0  0  0  0  0  0  0  0  0  0  0
    0.9546   -1.9215    0.0000 C   0  0  0  0  0  0  0  0  0  0  0  0
    0.2401   -2.3340    0.0000 Cl  0  0  0  0  0  0  0  0  0  0  0  0
    1.6691   -2.3340    0.0000 C   0  0  0  0  0  0  0  0  0  0  0  0
    2.3835   -1.9215    0.0000 C   0  0  0  0  0  0  0  0  0  0  0  0
    3.0980   -2.3340    0.0000 Cl  0  0  0  0  0  0  0  0  0  0  0  0
  1  2  1  0  0  0  0
  3  2  1  0  0  0  0
  3  4  1  0  0  0  0
  5  3  2  0  0  0  0
  6  5  1  0  0  0  0
  6  7  1  0  0  0  0
  8  6  2  0  0  0  0
  9  8  1  0  0  0  0
  2  9  2  0  0  0  0
  9 10  1  0  0  0  0
M  END
> <ChemID>
100368

> <CAS>
634-90-2

> <Original_SMILES>
Clc1cc(Cl)c(Cl)c(Cl)c1

> <preferred_name>
1,2,3,5-Tetrachlorobenzene

> <dsstox_substance_id>
DTXSID1026089

> <dsstox_compound_id>
DTXCID606089

> <qc_level>
DSSTox_Low

> <Canonical_QSARr>
ClC1C=C(Cl)C=C(Cl)C=1Cl

> <InChI_Code_QSARr>
InChI=1S/C6H2Cl4/c7-3-1-4(8)6(10)5(9)2-3/h1-2H

> <InChI Key_QSARr>
QZYNWJQFTJXIRN-UHFFFAOYSA-N

> <Salt_Solvent>


> <Salt_Solvent_ID>
0

> <MPID>
99642

> <KocRef>
Sabljic-Ext

> <LogKOC>
3.2

> <Tr_1_Tst_0>
1

$$$$
100369
  Mrv171c012251911022D          

 12 12  0  0  0  0            999 V2000
    3.1536   -2.3694    0.0000 C   0  0  0  0  0  0  0  0  0  0  0  0
    2.4391   -1.9569    0.0000 C   0  0  0  0  0  0  0  0  0  0  0  0
    2.4391   -1.1319    0.0000 C   0  0  0  0  0  0  0  0  0  0  0  0
    1.7246   -0.7194    0.0000 C   0  0  0  0  0  0  0  0  0  0  0  0
    1.7246    0.1056    0.0000 N   0  3  0  0  0  0  0  0  0  0  0  0
    1.0102    0.5181    0.0000 O   0  5  0  0  0  0  0  0  0  0  0  0
    2.4391    0.5181    0.0000 O   0  0  0  0  0  0  0  0  0  0  0  0
    1.0102   -1.1319    0.0000 C   0  0  0  0  0  0  0  0  0  0  0  0
    1.0102   -1.9569    0.0000 C   0  0  0  0  0  0  0  0  0  0  0  0
    1.7246   -2.3694    0.0000 C   0  0  0  0  0  0  0  0  0  0  0  0
    3.8680   -1.9569    0.0000 O   0  0  0  0  0  0  0  0  0  0  0  0
    3.1536   -3.1944    0.0000 N   0  0  0  0  0  0  0  0  0  0  0  0
  1  2  1  0  0  0  0
  3  2  1  0  0  0  0
  4  3  2  0  0  0  0
  4  5  1  0  0  0  0
  5  6  1  0  0  0  0
  5  7  2  0  0  0  0
  8  4  1  0  0  0  0
  9  8  2  0  0  0  0
 10  9  1  0  0  0  0
  2 10  2  0  0  0  0
  1 11  2  0  0  0  0
  1 12  1  0  0  0  0
M  CHG  2   5   1   6  -1
M  END
> <ChemID>
100369

> <CAS>
645-09-0

> <Original_SMILES>
NC(=O)c1cc(ccc1)[N+]([O-])=O

> <preferred_name>
3-Nitrobenzamide

> <dsstox_substance_id>
DTXSID5025732

> <dsstox_compound_id>
DTXCID605732

> <qc_level>
DSSTox_Low

> <Canonical_QSARr>
NC(=O)C1C=C(C=CC=1)[N+]([O-])=O

> <InChI_Code_QSARr>
InChI=1S/C7H6N2O3/c8-7(10)5-2-1-3-6(4-5)9(11)12/h1-4H,(H2,8,10)

> <InChI Key_QSARr>
KWAYEPXDGHYGRW-UHFFFAOYSA-N

> <Salt_Solvent>


> <Salt_Solvent_ID>
0

> <MPID>
99643

> <KocRef>
Schuurmann-Main

> <LogKOC>
1.95

> <Tr_1_Tst_0>
1

$$$$
100370
  Mrv171c012251911022D          

 15 15  0  0  0  0            999 V2000
    4.1744    0.6050    0.0000 S   0  0  0  0  0  0  0  0  0  0  0  0
    4.8889    1.0175    0.0000 C   0  0  0  0  0  0  0  0  0  0  0  0
    3.4600    0.1925    0.0000 C   0  0  0  0  0  0  0  0  0  0  0  0
    2.7455    0.6050    0.0000 C   0  0  0  0  0  0  0  0  0  0  0  0
    2.7455    1.4300    0.0000 F   0  0  0  0  0  0  0  0  0  0  0  0
    2.0310    0.1925    0.0000 C   0  0  0  0  0  0  0  0  0  0  0  0
    1.3165    0.6050    0.0000 F   0  0  0  0  0  0  0  0  0  0  0  0
    2.0310   -0.6325    0.0000 C   0  0  0  0  0  0  0  0  0  0  0  0
    1.3165   -1.0450    0.0000 F   0  0  0  0  0  0  0  0  0  0  0  0
    2.7455   -1.0450    0.0000 C   0  0  0  0  0  0  0  0  0  0  0  0
    2.7455   -1.8700    0.0000 F   0  0  0  0  0  0  0  0  0  0  0  0
    3.4600   -0.6325    0.0000 C   0  0  0  0  0  0  0  0  0  0  0  0
    4.1744   -1.0450    0.0000 F   0  0  0  0  0  0  0  0  0  0  0  0
    3.7619    1.3195    0.0000 O   0  0  0  0  0  0  0  0  0  0  0  0
    4.5869   -0.1095    0.0000 O   0  0  0  0  0  0  0  0  0  0  0  0
  1  2  1  0  0  0  0
  1  3  1  0  0  0  0
  4  3  1  0  0  0  0
  4  5  1  0  0  0  0
  6  4  2  0  0  0  0
  6  7  1  0  0  0  0
  8  6  1  0  0  0  0
  8  9  1  0  0  0  0
 10  8  2  0  0  0  0
 10 11  1  0  0  0  0
 12 10  1  0  0  0  0
  3 12  2  0  0  0  0
 12 13  1  0  0  0  0
  1 14  2  0  0  0  0
  1 15  2  0  0  0  0
M  END
> <ChemID>
100370

> <CAS>
651-85-4

> <Original_SMILES>
CS(=O)(=O)c1c(F)c(F)c(F)c(F)c1F

> <preferred_name>
Sulfone, methyl pentafluorophenyl

> <dsstox_substance_id>
DTXSID30215403

> <dsstox_compound_id>
DTXCID90137894

> <qc_level>
Public_Medium

> <Canonical_QSARr>
CS(=O)(=O)C1C(F)=C(F)C(F)=C(F)C=1F

> <InChI_Code_QSARr>
InChI=1S/C7H3F5O2S/c1-15(13,14)7-5(11)3(9)2(8)4(10)6(7)12/h1H3

> <InChI Key_QSARr>
WFYROSQTNAJIIF-UHFFFAOYSA-N

> <Salt_Solvent>


> <Salt_Solvent_ID>
0

> <MPID>
99644

> <KocRef>
Schuurmann-Main

> <LogKOC>
1.46

> <Tr_1_Tst_0>
0

$$$$
100371
  Mrv171c012251911022D          

 11 11  0  0  0  0            999 V2000
    1.6499   -0.3341    0.0000 F   0  0  0  0  0  0  0  0  0  0  0  0
    2.3644   -0.7466    0.0000 C   0  0  0  0  0  0  0  0  0  0  0  0
    2.3644   -1.5716    0.0000 C   0  0  0  0  0  0  0  0  0  0  0  0
    3.0789   -1.9841    0.0000 C   0  0  0  0  0  0  0  0  0  0  0  0
    3.7933   -1.5716    0.0000 C   0  0  0  0  0  0  0  0  0  0  0  0
    3.7933   -0.7466    0.0000 C   0  0  0  0  0  0  0  0  0  0  0  0
    3.0789   -0.3341    0.0000 C   0  0  0  0  0  0  0  0  0  0  0  0
    3.0789    0.4909    0.0000 N   0  0  0  0  0  0  0  0  0  0  0  0
    3.7933    0.9034    0.0000 C   0  0  0  0  0  0  0  0  0  0  0  0
    3.7933    1.7284    0.0000 N   0  0  0  0  0  0  0  0  0  0  0  0
    4.5078    0.4909    0.0000 O   0  0  0  0  0  0  0  0  0  0  0  0
  1  2  1  0  0  0  0
  3  2  2  0  0  0  0
  4  3  1  0  0  0  0
  5  4  2  0  0  0  0
  6  5  1  0  0  0  0
  7  6  2  0  0  0  0
  2  7  1  0  0  0  0
  7  8  1  0  0  0  0
  8  9  1  0  0  0  0
  9 10  1  0  0  0  0
  9 11  2  0  0  0  0
M  END
> <ChemID>
100371

> <CAS>
656-31-5

> <Original_SMILES>
NC(=O)Nc1ccccc1F

> <preferred_name>
(2-Fluorophenyl)urea

> <dsstox_substance_id>
DTXSID00215854

> <dsstox_compound_id>
DTXCID30138345

> <qc_level>
Public_Medium

> <Canonical_QSARr>
NC(=O)NC1=CC=CC=C1F

> <InChI_Code_QSARr>
InChI=1S/C7H7FN2O/c8-5-3-1-2-4-6(5)10-7(9)11/h1-4H,(H3,9,10,11)

> <InChI Key_QSARr>
PAWVOCWEWJXILY-UHFFFAOYSA-N

> <Salt_Solvent>


> <Salt_Solvent_ID>
0

> <MPID>
99645

> <KocRef>
Schuurmann-Main

> <LogKOC>
1.32

> <Tr_1_Tst_0>
1

$$$$
100372
  Mrv171c012251911022D          

 11 11  0  0  0  0            999 V2000
    2.3643   -2.3966    0.0000 F   0  0  0  0  0  0  0  0  0  0  0  0
    2.3643   -1.5716    0.0000 C   0  0  0  0  0  0  0  0  0  0  0  0
    3.0788   -1.1591    0.0000 C   0  0  0  0  0  0  0  0  0  0  0  0
    3.0788   -0.3341    0.0000 C   0  0  0  0  0  0  0  0  0  0  0  0
    2.3643    0.0784    0.0000 C   0  0  0  0  0  0  0  0  0  0  0  0
    2.3643    0.9034    0.0000 N   0  0  0  0  0  0  0  0  0  0  0  0
    3.0788    1.3159    0.0000 C   0  0  0  0  0  0  0  0  0  0  0  0
    3.0788    2.1409    0.0000 N   0  0  0  0  0  0  0  0  0  0  0  0
    3.7933    0.9034    0.0000 O   0  0  0  0  0  0  0  0  0  0  0  0
    1.6499   -0.3341    0.0000 C   0  0  0  0  0  0  0  0  0  0  0  0
    1.6499   -1.1591    0.0000 C   0  0  0  0  0  0  0  0  0  0  0  0
  1  2  1  0  0  0  0
  3  2  1  0  0  0  0
  4  3  2  0  0  0  0
  5  4  1  0  0  0  0
  5  6  1  0  0  0  0
  6  7  1  0  0  0  0
  7  8  1  0  0  0  0
  7  9  2  0  0  0  0
 10  5  2  0  0  0  0
 11 10  1  0  0  0  0
  2 11  2  0  0  0  0
M  END
> <ChemID>
100372

> <CAS>
659-30-3

> <Original_SMILES>
NC(=O)Nc1ccc(F)cc1

> <preferred_name>
Urea, 1-(p-fluorophenyl)-

> <dsstox_substance_id>
DTXSID20216106

> <dsstox_compound_id>
DTXCID80138597

> <qc_level>
Public_Medium

> <Canonical_QSARr>
NC(=O)NC1C=CC(F)=CC=1

> <InChI_Code_QSARr>
InChI=1S/C7H7FN2O/c8-5-1-3-6(4-2-5)10-7(9)11/h1-4H,(H3,9,10,11)

> <InChI Key_QSARr>
IQZBVVPYTDHTIP-UHFFFAOYSA-N

> <Salt_Solvent>


> <Salt_Solvent_ID>
0

> <MPID>
99646

> <KocRef>
Schuurmann-Main

> <LogKOC>
1.52

> <Tr_1_Tst_0>
1

$$$$
100373
  Mrv171c012251911022D          

 14 14  0  0  0  0            999 V2000
    4.4840   -3.8783    0.0000 C   0  0  0  0  0  0  0  0  0  0  0  0
    4.4840   -3.0533    0.0000 O   0  0  0  0  0  0  0  0  0  0  0  0
    3.7695   -2.6408    0.0000 C   0  0  0  0  0  0  0  0  0  0  0  0
    3.7695   -1.8158    0.0000 N   0  0  0  0  0  0  0  0  0  0  0  0
    3.0550   -1.4033    0.0000 C   0  0  0  0  0  0  0  0  0  0  0  0
    3.0550   -0.5783    0.0000 N   0  0  0  0  0  0  0  0  0  0  0  0
    3.7695   -0.1658    0.0000 C   0  0  0  0  0  0  0  0  0  0  0  0
    3.7695    0.6592    0.0000 C   0  0  0  0  0  0  0  0  0  0  0  0
    2.3406   -1.8158    0.0000 N   0  0  0  0  0  0  0  0  0  0  0  0
    2.3406   -2.6408    0.0000 C   0  0  0  0  0  0  0  0  0  0  0  0
    1.6261   -3.0533    0.0000 N   0  0  0  0  0  0  0  0  0  0  0  0
    0.9116   -2.6408    0.0000 C   0  0  0  0  0  0  0  0  0  0  0  0
    0.1971   -3.0533    0.0000 C   0  0  0  0  0  0  0  0  0  0  0  0
    3.0550   -3.0533    0.0000 N   0  0  0  0  0  0  0  0  0  0  0  0
  1  2  1  0  0  0  0
  2  3  1  0  0  0  0
  4  3  2  0  0  0  0
  5  4  1  0  0  0  0
  5  6  1  0  0  0  0
  6  7  1  0  0  0  0
  7  8  1  0  0  0  0
  9  5  2  0  0  0  0
 10  9  1  0  0  0  0
 10 11  1  0  0  0  0
 11 12  1  0  0  0  0
 12 13  1  0  0  0  0
 14 10  2  0  0  0  0
  3 14  1  0  0  0  0
M  END
> <ChemID>
100373

> <CAS>
673-04-1

> <Original_SMILES>
COc1[n]c(NCC)[n]c(NCC)[n]1

> <preferred_name>
Simetone

> <dsstox_substance_id>
DTXSID9042388

> <dsstox_compound_id>
DTXCID7022388

> <qc_level>
DSSTox_High

> <Canonical_QSARr>
COC1N=C(NCC)N=C(NCC)N=1

> <InChI_Code_QSARr>
InChI=1S/C8H15N5O/c1-4-9-6-11-7(10-5-2)13-8(12-6)14-3/h4-5H2,1-3H3,(H2,9,10,11,12,13)

> <InChI Key_QSARr>
HKAMKLBXTLTVCN-UHFFFAOYSA-N

> <Salt_Solvent>


> <Salt_Solvent_ID>
0

> <MPID>
99647

> <KocRef>
Schuurmann-Main

> <LogKOC>
2.34

> <Tr_1_Tst_0>
1

$$$$
100374
  Mrv171c012251911022D          

  8  7  0  0  0  0            999 V2000
    1.3939    0.0880    0.0000 C   0  0  0  0  0  0  0  0  0  0  0  0
    0.9814   -0.6265    0.0000 C   0  0  0  0  0  0  0  0  0  0  0  0
    1.3939   -1.3409    0.0000 N   0  0  0  0  0  0  0  0  0  0  0  0
    0.9814   -2.0554    0.0000 C   0  0  0  0  0  0  0  0  0  0  0  0
    1.3939   -2.7699    0.0000 C   0  0  0  0  0  0  0  0  0  0  0  0
    2.2189   -1.3409    0.0000 C   0  0  0  0  0  0  0  0  0  0  0  0
    2.6314   -2.0554    0.0000 C   0  0  0  0  0  0  0  0  0  0  0  0
    0.1564   -0.6265    0.0000 O   0  0  0  0  0  0  0  0  0  0  0  0
  1  2  1  0  0  0  0
  2  3  1  0  0  0  0
  3  4  1  0  0  0  0
  4  5  1  0  0  0  0
  3  6  1  0  0  0  0
  6  7  1  0  0  0  0
  2  8  2  0  0  0  0
M  END
> <ChemID>
100374

> <CAS>
685-91-6

> <Original_SMILES>
CC(=O)N(CC)CC

> <preferred_name>
Diethylacetamide

> <dsstox_substance_id>
DTXSID9020459

> <dsstox_compound_id>
DTXCID10459

> <qc_level>
DSSTox_Low

> <Canonical_QSARr>
CC(=O)N(CC)CC

> <InChI_Code_QSARr>
InChI=1S/C6H13NO/c1-4-7(5-2)6(3)8/h4-5H2,1-3H3

> <InChI Key_QSARr>
AJFDBNQQDYLMJN-UHFFFAOYSA-N

> <Salt_Solvent>


> <Salt_Solvent_ID>
0

> <MPID>
99648

> <KocRef>
Schuurmann-Main

> <LogKOC>
1.84

> <Tr_1_Tst_0>
0

$$$$
100375
  Mrv171c012251911022D          

 10 10  0  0  0  0            999 V2000
    2.2729   -1.8019    0.0000 C   0  0  0  0  0  0  0  0  0  0  0  0
    2.2729   -0.9769    0.0000 C   0  0  0  0  0  0  0  0  0  0  0  0
    1.5584   -0.5644    0.0000 C   0  0  0  0  0  0  0  0  0  0  0  0
    1.5584    0.2606    0.0000 C   0  0  0  0  0  0  0  0  0  0  0  0
    0.8440   -0.9769    0.0000 C   0  0  0  0  0  0  0  0  0  0  0  0
    0.8440   -1.8019    0.0000 C   0  0  0  0  0  0  0  0  0  0  0  0
    0.1295   -2.2144    0.0000 C   0  0  0  0  0  0  0  0  0  0  0  0
    1.5584   -2.2144    0.0000 C   0  0  0  0  0  0  0  0  0  0  0  0
    1.5584   -3.0394    0.0000 C   0  0  0  0  0  0  0  0  0  0  0  0
    2.9874   -2.2144    0.0000 O   0  0  0  0  0  0  0  0  0  0  0  0
  2  1  1  0  0  0  0
  3  2  2  0  0  0  0
  3  4  1  0  0  0  0
  5  3  1  0  0  0  0
  6  5  2  0  0  0  0
  6  7  1  0  0  0  0
  8  6  1  0  0  0  0
  1  8  2  0  0  0  0
  8  9  1  0  0  0  0
  1 10  1  0  0  0  0
M  END
> <ChemID>
100375

> <CAS>
697-82-5

> <Original_SMILES>
Cc1cc(O)c(C)c(C)c1

> <preferred_name>
2,3,5-Trimethylphenol

> <dsstox_substance_id>
DTXSID3047184

> <dsstox_compound_id>
DTXCID1027184

> <qc_level>
DSSTox_High

> <Canonical_QSARr>
CC1C=C(C)C(C)=C(O)C=1

> <InChI_Code_QSARr>
InChI=1S/C9H12O/c1-6-4-7(2)8(3)9(10)5-6/h4-5,10H,1-3H3

> <InChI Key_QSARr>
OGRAOKJKVGDSFR-UHFFFAOYSA-N

> <Salt_Solvent>


> <Salt_Solvent_ID>
0

> <MPID>
99649

> <KocRef>
SRC 1992 NonPolar Val

> <LogKOC>
3.61

> <Tr_1_Tst_0>
1

$$$$
100376
  Mrv171c012251911022D          

 13 13  0  0  0  0            999 V2000
    3.0246   -1.3646    0.0000 C   0  0  0  0  0  0  0  0  0  0  0  0
    2.3101   -0.9521    0.0000 C   0  0  0  0  0  0  0  0  0  0  0  0
    2.3101   -0.1271    0.0000 N   0  0  0  0  0  0  0  0  0  0  0  0
    1.5957    0.2854    0.0000 C   0  0  0  0  0  0  0  0  0  0  0  0
    1.5957    1.1104    0.0000 C   0  0  0  0  0  0  0  0  0  0  0  0
    0.8812    1.5229    0.0000 C   0  0  0  0  0  0  0  0  0  0  0  0
    0.8812   -0.1271    0.0000 O   0  0  0  0  0  0  0  0  0  0  0  0
    1.5957   -1.3646    0.0000 C   0  0  0  0  0  0  0  0  0  0  0  0
    1.5957   -2.1896    0.0000 C   0  0  0  0  0  0  0  0  0  0  0  0
    2.3101   -2.6021    0.0000 C   0  0  0  0  0  0  0  0  0  0  0  0
    2.3101   -3.4271    0.0000 Cl  0  0  0  0  0  0  0  0  0  0  0  0
    3.0246   -2.1896    0.0000 C   0  0  0  0  0  0  0  0  0  0  0  0
    3.7391   -2.6021    0.0000 Cl  0  0  0  0  0  0  0  0  0  0  0  0
  2  1  1  0  0  0  0
  2  3  1  0  0  0  0
  3  4  1  0  0  0  0
  4  5  1  0  0  0  0
  5  6  1  0  0  0  0
  4  7  2  0  0  0  0
  8  2  2  0  0  0  0
  9  8  1  0  0  0  0
 10  9  2  0  0  0  0
 10 11  1  0  0  0  0
 12 10  1  0  0  0  0
  1 12  2  0  0  0  0
 12 13  1  0  0  0  0
M  END
> <ChemID>
100376

> <CAS>
709-98-8

> <Original_SMILES>
CCC(=O)Nc1cc(Cl)c(Cl)cc1

> <preferred_name>
Propanil

> <dsstox_substance_id>
DTXSID8022111

> <dsstox_compound_id>
DTXCID102111

> <qc_level>
DSSTox_Low

> <Canonical_QSARr>
CCC(=O)NC1C=C(Cl)C(Cl)=CC=1

> <InChI_Code_QSARr>
InChI=1S/C9H9Cl2NO/c1-2-9(13)12-6-3-4-7(10)8(11)5-6/h3-5H,2H2,1H3,(H,12,13)

> <InChI Key_QSARr>
LFULEKSKNZEWOE-UHFFFAOYSA-N

> <Salt_Solvent>


> <Salt_Solvent_ID>
0

> <MPID>
99650

> <KocRef>
Schuurmann-Main

> <LogKOC>
2.17

> <Tr_1_Tst_0>
1

$$$$
100377
  Mrv171c012251911022D          

 17 19  0  0  0  0            999 V2000
    4.2830   -0.9687    0.0000 C   0  0  0  0  0  0  0  0  0  0  0  0
    3.5685   -0.5562    0.0000 C   0  0  0  0  0  0  0  0  0  0  0  0
    2.8540   -0.9687    0.0000 C   0  0  0  0  0  0  0  0  0  0  0  0
    2.8540   -1.7937    0.0000 C   0  0  0  0  0  0  0  0  0  0  0  0
    2.1396   -2.2062    0.0000 C   0  0  0  0  0  0  0  0  0  0  0  0
    2.1396   -3.0312    0.0000 C   0  0  0  0  0  0  0  0  0  0  0  0
    1.4251   -3.4437    0.0000 O   0  0  0  0  0  0  0  0  0  0  0  0
    2.8540   -3.4437    0.0000 O   0  0  0  0  0  0  0  0  0  0  0  0
    1.4251   -1.7937    0.0000 C   0  0  0  0  0  0  0  0  0  0  0  0
    1.4251   -0.9687    0.0000 C   0  0  0  0  0  0  0  0  0  0  0  0
    2.1396   -0.5562    0.0000 C   0  0  0  0  0  0  0  0  0  0  0  0
    0.7106   -0.5562    0.0000 C   0  0  0  0  0  0  0  0  0  0  0  0
   -0.0039   -0.9687    0.0000 C   0  0  0  0  0  0  0  0  0  0  0  0
   -0.0039   -1.7937    0.0000 C   0  0  0  0  0  0  0  0  0  0  0  0
    0.7106   -2.2062    0.0000 C   0  0  0  0  0  0  0  0  0  0  0  0
    3.5685   -2.2062    0.0000 C   0  0  0  0  0  0  0  0  0  0  0  0
    4.2830   -1.7937    0.0000 C   0  0  0  0  0  0  0  0  0  0  0  0
  2  1  2  0  0  0  0
  3  2  1  0  0  0  0
  3  4  1  0  0  0  0
  4  5  2  0  0  0  0
  5  6  1  0  0  0  0
  6  7  1  0  0  0  0
  6  8  2  0  0  0  0
  5  9  1  0  0  0  0
 10  9  1  0  0  0  0
 10 11  1  0  0  0  0
 11  3  2  0  0  0  0
 12 10  2  0  0  0  0
 13 12  1  0  0  0  0
 14 13  2  0  0  0  0
 15 14  1  0  0  0  0
  9 15  2  0  0  0  0
 16  4  1  0  0  0  0
 17 16  2  0  0  0  0
  1 17  1  0  0  0  0
M  END
> <ChemID>
100377

> <CAS>
723-62-6

> <Original_SMILES>
OC(=O)c1c2ccccc2cc2ccccc21

> <preferred_name>
9-Anthracenecarboxylic acid

> <dsstox_substance_id>
DTXSID7049427

> <dsstox_compound_id>
DTXCID6029387

> <qc_level>
DSSTox_Low

> <Canonical_QSARr>
OC(=O)C1C2=CC=CC=C2C=C2C=CC=CC2=1

> <InChI_Code_QSARr>
InChI=1S/C15H10O2/c16-15(17)14-12-7-3-1-5-10(12)9-11-6-2-4-8-13(11)14/h1-9H,(H,16,17)

> <InChI Key_QSARr>
XGWFJBFNAQHLEF-UHFFFAOYSA-N

> <Salt_Solvent>


> <Salt_Solvent_ID>
0

> <MPID>
99651

> <KocRef>
Schuurmann-Main

> <LogKOC>
2.74

> <Tr_1_Tst_0>
1

$$$$
100378
  Mrv171c012251911022D          

 19 20  0  0  0  0            999 V2000
    3.3031   -0.9383    0.0000 N   0  0  0  0  0  0  0  0  0  0  0  0
    2.4781   -0.9383    0.0000 C   0  0  0  0  0  0  0  0  0  0  0  0
    2.0656   -1.6528    0.0000 S   0  0  0  0  0  0  0  0  0  0  0  0
    1.2406   -1.6528    0.0000 P   0  0  0  0  0  0  0  0  0  0  0  0
    0.4156   -1.6528    0.0000 O   0  0  0  0  0  0  0  0  0  0  0  0
    0.0031   -2.3673    0.0000 C   0  0  0  0  0  0  0  0  0  0  0  0
    1.2406   -2.4778    0.0000 O   0  0  0  0  0  0  0  0  0  0  0  0
    0.5261   -2.8903    0.0000 C   0  0  0  0  0  0  0  0  0  0  0  0
    1.2406   -0.8278    0.0000 S   0  0  0  0  0  0  0  0  0  0  0  0
    3.7880   -0.2709    0.0000 C   0  0  0  0  0  0  0  0  0  0  0  0
    3.5331    0.5137    0.0000 O   0  0  0  0  0  0  0  0  0  0  0  0
    4.5726   -0.5258    0.0000 C   0  0  0  0  0  0  0  0  0  0  0  0
    5.2871   -0.1133    0.0000 C   0  0  0  0  0  0  0  0  0  0  0  0
    6.0016   -0.5258    0.0000 C   0  0  0  0  0  0  0  0  0  0  0  0
    6.0016   -1.3508    0.0000 C   0  0  0  0  0  0  0  0  0  0  0  0
    5.2871   -1.7633    0.0000 C   0  0  0  0  0  0  0  0  0  0  0  0
    4.5726   -1.3508    0.0000 C   0  0  0  0  0  0  0  0  0  0  0  0
    3.7880   -1.6058    0.0000 C   0  0  0  0  0  0  0  0  0  0  0  0
    3.5331   -2.3904    0.0000 O   0  0  0  0  0  0  0  0  0  0  0  0
  1  2  1  0  0  0  0
  2  3  1  0  0  0  0
  3  4  1  0  0  0  0
  4  5  1  0  0  0  0
  5  6  1  0  0  0  0
  4  7  1  0  0  0  0
  7  8  1  0  0  0  0
  4  9  2  0  0  0  0
 10  1  1  0  0  0  0
 10 11  2  0  0  0  0
 12 10  1  0  0  0  0
 12 13  1  0  0  0  0
 13 14  2  0  0  0  0
 14 15  1  0  0  0  0
 15 16  2  0  0  0  0
 16 17  1  0  0  0  0
 17 12  2  0  0  0  0
 18 17  1  0  0  0  0
  1 18  1  0  0  0  0
 18 19  2  0  0  0  0
M  END
> <ChemID>
100378

> <CAS>
732-11-6

> <Original_SMILES>
COP(=S)(OC)SCN1C(=O)c2ccccc2C1=O

> <preferred_name>
Phosmet

> <dsstox_substance_id>
DTXSID5024261

> <dsstox_compound_id>
DTXCID004261

> <qc_level>
DSSTox_Low

> <Canonical_QSARr>
COP(=S)(OC)SCN1C(=O)C2C=CC=CC=2C1=O

> <InChI_Code_QSARr>
InChI=1S/C11H12NO4PS2/c1-15-17(18,16-2)19-7-12-10(13)8-5-3-4-6-9(8)11(12)14/h3-6H,7H2,1-2H3

> <InChI Key_QSARr>
LMNZTLDVJIUSHT-UHFFFAOYSA-N

> <Salt_Solvent>


> <Salt_Solvent_ID>
0

> <MPID>
99652

> <KocRef>
Schuurmann-Main

> <LogKOC>
2.91

> <Tr_1_Tst_0>
0

$$$$
100379
  Mrv171c012251911022D          

 23 23  0  0  0  0            999 V2000
    4.8556    0.0363    0.0000 P   0  0  0  0  0  0  0  0  0  0  0  0
    4.8556   -0.7887    0.0000 S   0  0  0  0  0  0  0  0  0  0  0  0
    4.1411   -1.2012    0.0000 C   0  0  0  0  0  0  0  0  0  0  0  0
    4.1411   -2.0262    0.0000 C   0  0  0  0  0  0  0  0  0  0  0  0
    3.4267   -2.4387    0.0000 N   0  0  0  0  0  0  0  0  0  0  0  0
    3.4267   -3.2637    0.0000 S   0  0  0  0  0  0  0  0  0  0  0  0
    3.4267   -4.0887    0.0000 C   0  0  0  0  0  0  0  0  0  0  0  0
    2.7122   -4.5012    0.0000 C   0  0  0  0  0  0  0  0  0  0  0  0
    2.7122   -5.3262    0.0000 C   0  0  0  0  0  0  0  0  0  0  0  0
    3.4267   -5.7387    0.0000 C   0  0  0  0  0  0  0  0  0  0  0  0
    4.1411   -5.3262    0.0000 C   0  0  0  0  0  0  0  0  0  0  0  0
    4.1411   -4.5012    0.0000 C   0  0  0  0  0  0  0  0  0  0  0  0
    4.2517   -3.2637    0.0000 O   0  0  0  0  0  0  0  0  0  0  0  0
    2.6017   -3.2637    0.0000 O   0  0  0  0  0  0  0  0  0  0  0  0
    5.6806    0.0363    0.0000 S   0  0  0  0  0  0  0  0  0  0  0  0
    4.8556    0.8613    0.0000 O   0  0  0  0  0  0  0  0  0  0  0  0
    5.5701    1.2738    0.0000 C   0  0  0  0  0  0  0  0  0  0  0  0
    5.5701    2.0988    0.0000 C   0  0  0  0  0  0  0  0  0  0  0  0
    6.2845    0.8613    0.0000 C   0  0  0  0  0  0  0  0  0  0  0  0
    4.0306    0.0363    0.0000 O   0  0  0  0  0  0  0  0  0  0  0  0
    3.6181    0.7508    0.0000 C   0  0  0  0  0  0  0  0  0  0  0  0
    4.0306    1.4653    0.0000 C   0  0  0  0  0  0  0  0  0  0  0  0
    2.7931    0.7508    0.0000 C   0  0  0  0  0  0  0  0  0  0  0  0
  1  2  1  0  0  0  0
  2  3  1  0  0  0  0
  3  4  1  0  0  0  0
  4  5  1  0  0  0  0
  5  6  1  0  0  0  0
  6  7  1  0  0  0  0
  8  7  1  0  0  0  0
  9  8  2  0  0  0  0
 10  9  1  0  0  0  0
 11 10  2  0  0  0  0
 12 11  1  0  0  0  0
  7 12  2  0  0  0  0
  6 13  2  0  0  0  0
  6 14  2  0  0  0  0
  1 15  2  0  0  0  0
  1 16  1  0  0  0  0
 16 17  1  0  0  0  0
 17 18  1  0  0  0  0
 17 19  1  0  0  0  0
  1 20  1  0  0  0  0
 20 21  1  0  0  0  0
 21 22  1  0  0  0  0
 21 23  1  0  0  0  0
M  END
> <ChemID>
100379

> <CAS>
741-58-2

> <Original_SMILES>
CC(C)OP(=S)(OC(C)C)SCCNS(=O)(=O)c1ccccc1

> <preferred_name>
Bensulide

> <dsstox_substance_id>
DTXSID9032329

> <dsstox_compound_id>
DTXCID7012329

> <qc_level>
DSSTox_High

> <Canonical_QSARr>
CC(C)OP(=S)(OC(C)C)SCCNS(=O)(=O)C1C=CC=CC=1

> <InChI_Code_QSARr>
InChI=1S/C14H24NO4PS3/c1-12(2)18-20(21,19-13(3)4)22-11-10-15-23(16,17)14-8-6-5-7-9-14/h5-9,12-13,15H,10-11H2,1-4H3

> <InChI Key_QSARr>
RRNIZKPFKNDSRS-UHFFFAOYSA-N

> <Salt_Solvent>


> <Salt_Solvent_ID>
0

> <MPID>
99653

> <KocRef>
Schuurmann-Main

> <LogKOC>
3.0

> <Tr_1_Tst_0>
1

$$$$
100380
  Mrv171c012251911022D          

 12 11  0  0  0  0            999 V2000
    1.0218   -1.3728    0.0000 C   0  0  0  0  0  0  0  0  0  0  0  0
    0.6093   -2.0873    0.0000 S   0  0  0  0  0  0  0  0  0  0  0  0
   -0.2157   -2.0873    0.0000 C   0  0  0  0  0  0  0  0  0  0  0  0
   -0.6282   -2.8017    0.0000 C   0  0  0  0  0  0  0  0  0  0  0  0
    0.6093   -0.6583    0.0000 O   0  0  0  0  0  0  0  0  0  0  0  0
    1.8468   -1.3728    0.0000 N   0  0  0  0  0  0  0  0  0  0  0  0
    2.2593   -0.6583    0.0000 C   0  0  0  0  0  0  0  0  0  0  0  0
    3.0843   -0.6583    0.0000 C   0  0  0  0  0  0  0  0  0  0  0  0
    3.4968    0.0561    0.0000 C   0  0  0  0  0  0  0  0  0  0  0  0
    2.2593   -2.0873    0.0000 C   0  0  0  0  0  0  0  0  0  0  0  0
    3.0843   -2.0873    0.0000 C   0  0  0  0  0  0  0  0  0  0  0  0
    3.4968   -2.8017    0.0000 C   0  0  0  0  0  0  0  0  0  0  0  0
  1  2  1  0  0  0  0
  2  3  1  0  0  0  0
  3  4  1  0  0  0  0
  1  5  2  0  0  0  0
  1  6  1  0  0  0  0
  6  7  1  0  0  0  0
  7  8  1  0  0  0  0
  8  9  1  0  0  0  0
  6 10  1  0  0  0  0
 10 11  1  0  0  0  0
 11 12  1  0  0  0  0
M  END
> <ChemID>
100380

> <CAS>
759-94-4

> <Original_SMILES>
CCSC(=O)N(CCC)CCC

> <preferred_name>
EPTC

> <dsstox_substance_id>
DTXSID1024091

> <dsstox_compound_id>
DTXCID504091

> <qc_level>
DSSTox_Low

> <Canonical_QSARr>
CCSC(=O)N(CCC)CCC

> <InChI_Code_QSARr>
InChI=1S/C9H19NOS/c1-4-7-10(8-5-2)9(11)12-6-3/h4-8H2,1-3H3

> <InChI Key_QSARr>
GUVLYNGULCJVDO-UHFFFAOYSA-N

> <Salt_Solvent>


> <Salt_Solvent_ID>
0

> <MPID>
99654

> <KocRef>
Schuurmann-Main

> <LogKOC>
2.38

> <Tr_1_Tst_0>
1

$$$$
100381
  Mrv171c012251911022D          

 11 11  0  0  0  0            999 V2000
    1.6499   -1.9841    0.0000 F   0  0  0  0  0  0  0  0  0  0  0  0
    2.3644   -1.5716    0.0000 C   0  0  0  0  0  0  0  0  0  0  0  0
    3.0789   -1.9841    0.0000 C   0  0  0  0  0  0  0  0  0  0  0  0
    3.7933   -1.5716    0.0000 C   0  0  0  0  0  0  0  0  0  0  0  0
    3.7933   -0.7466    0.0000 C   0  0  0  0  0  0  0  0  0  0  0  0
    3.0789   -0.3341    0.0000 C   0  0  0  0  0  0  0  0  0  0  0  0
    3.0789    0.4909    0.0000 N   0  0  0  0  0  0  0  0  0  0  0  0
    3.7933    0.9034    0.0000 C   0  0  0  0  0  0  0  0  0  0  0  0
    3.7933    1.7284    0.0000 N   0  0  0  0  0  0  0  0  0  0  0  0
    4.5078    0.4909    0.0000 O   0  0  0  0  0  0  0  0  0  0  0  0
    2.3644   -0.7466    0.0000 C   0  0  0  0  0  0  0  0  0  0  0  0
  1  2  1  0  0  0  0
  3  2  2  0  0  0  0
  4  3  1  0  0  0  0
  5  4  2  0  0  0  0
  6  5  1  0  0  0  0
  6  7  1  0  0  0  0
  7  8  1  0  0  0  0
  8  9  1  0  0  0  0
  8 10  2  0  0  0  0
 11  6  2  0  0  0  0
  2 11  1  0  0  0  0
M  END
> <ChemID>
100381

> <CAS>
770-19-4

> <Original_SMILES>
NC(=O)Nc1cccc(F)c1

> <preferred_name>
Urea, (m-fluorophenyl)-

> <dsstox_substance_id>
DTXSID40227815

> <dsstox_compound_id>
DTXCID90150306

> <qc_level>
Public_Medium

> <Canonical_QSARr>
NC(=O)NC1C=CC=C(F)C=1

> <InChI_Code_QSARr>
InChI=1S/C7H7FN2O/c8-5-2-1-3-6(4-5)10-7(9)11/h1-4H,(H3,9,10,11)

> <InChI Key_QSARr>
OLVWURSZQFCLCZ-UHFFFAOYSA-N

> <Salt_Solvent>


> <Salt_Solvent_ID>
0

> <MPID>
99655

> <KocRef>
Schuurmann-Main

> <LogKOC>
1.77

> <Tr_1_Tst_0>
1

$$$$
100382
  Mrv171c012251911022D          

 15 17  0  0  0  0            999 V2000
    2.8579   -0.2200    0.0000 C   0  0  0  0  0  0  0  0  0  0  0  0
    3.5724   -0.6325    0.0000 C   0  0  0  0  0  0  0  0  0  0  0  0
    4.2868   -0.2200    0.0000 C   0  0  0  0  0  0  0  0  0  0  0  0
    4.2868    0.6050    0.0000 C   0  0  0  0  0  0  0  0  0  0  0  0
    3.5724    1.0175    0.0000 C   0  0  0  0  0  0  0  0  0  0  0  0
    2.8579    0.6050    0.0000 C   0  0  0  0  0  0  0  0  0  0  0  0
    2.1434    1.0175    0.0000 C   0  0  0  0  0  0  0  0  0  0  0  0
    2.1434    1.8425    0.0000 C   0  0  0  0  0  0  0  0  0  0  0  0
    1.4289    0.6050    0.0000 C   0  0  0  0  0  0  0  0  0  0  0  0
    1.4289   -0.2200    0.0000 C   0  0  0  0  0  0  0  0  0  0  0  0
    0.7145   -0.6325    0.0000 C   0  0  0  0  0  0  0  0  0  0  0  0
    0.0000   -0.2200    0.0000 C   0  0  0  0  0  0  0  0  0  0  0  0
    0.0000    0.6050    0.0000 C   0  0  0  0  0  0  0  0  0  0  0  0
    0.7145    1.0175    0.0000 C   0  0  0  0  0  0  0  0  0  0  0  0
    2.1434   -0.6325    0.0000 C   0  0  0  0  0  0  0  0  0  0  0  0
  2  1  1  0  0  0  0
  3  2  2  0  0  0  0
  4  3  1  0  0  0  0
  5  4  2  0  0  0  0
  6  5  1  0  0  0  0
  6  1  1  0  0  0  0
  7  6  2  0  0  0  0
  7  8  1  0  0  0  0
  9  7  1  0  0  0  0
  9 10  1  0  0  0  0
 10 11  2  0  0  0  0
 11 12  1  0  0  0  0
 12 13  2  0  0  0  0
 13 14  1  0  0  0  0
 14  9  2  0  0  0  0
 15 10  1  0  0  0  0
  1 15  2  0  0  0  0
M  END
> <ChemID>
100382

> <CAS>
779-02-2

> <Original_SMILES>
Cc1c2ccccc2cc2ccccc21

> <preferred_name>
9-Methylanthracene

> <dsstox_substance_id>
DTXSID3061134

> <dsstox_compound_id>
DTXCID2048080

> <qc_level>
Public_High

> <Canonical_QSARr>
CC1C2=CC=CC=C2C=C2C=CC=CC2=1

> <InChI_Code_QSARr>
InChI=1S/C15H12/c1-11-14-8-4-2-6-12(14)10-13-7-3-5-9-15(11)13/h2-10H,1H3

> <InChI Key_QSARr>
CPGPAVAKSZHMBP-UHFFFAOYSA-N

> <Salt_Solvent>


> <Salt_Solvent_ID>
0

> <MPID>
99656

> <KocRef>
Schuurmann-Main

> <LogKOC>
4.81

> <Tr_1_Tst_0>
0

$$$$
100383
  Mrv171c012251911022D          

 18 18  0  0  0  0            999 V2000
    4.5441   -5.1204    0.0000 Cl  0  0  0  0  0  0  0  0  0  0  0  0
    4.5441   -4.2954    0.0000 C   0  0  0  0  0  0  0  0  0  0  0  0
    5.2586   -3.8829    0.0000 C   0  0  0  0  0  0  0  0  0  0  0  0
    5.2586   -3.0579    0.0000 C   0  0  0  0  0  0  0  0  0  0  0  0
    4.5441   -2.6454    0.0000 C   0  0  0  0  0  0  0  0  0  0  0  0
    4.5441   -1.8204    0.0000 S   0  0  0  0  0  0  0  0  0  0  0  0
    3.8297   -1.4079    0.0000 C   0  0  0  0  0  0  0  0  0  0  0  0
    3.8297   -0.5829    0.0000 S   0  0  0  0  0  0  0  0  0  0  0  0
    3.1152   -0.1704    0.0000 P   0  0  0  0  0  0  0  0  0  0  0  0
    2.4007    0.2421    0.0000 O   0  0  0  0  0  0  0  0  0  0  0  0
    2.4007    1.0671    0.0000 C   0  0  0  0  0  0  0  0  0  0  0  0
    1.6862    1.4796    0.0000 C   0  0  0  0  0  0  0  0  0  0  0  0
    3.5277    0.5441    0.0000 O   0  0  0  0  0  0  0  0  0  0  0  0
    3.1152    1.2586    0.0000 C   0  0  0  0  0  0  0  0  0  0  0  0
    3.5277    1.9731    0.0000 C   0  0  0  0  0  0  0  0  0  0  0  0
    2.7027   -0.8848    0.0000 S   0  0  0  0  0  0  0  0  0  0  0  0
    3.8297   -3.0579    0.0000 C   0  0  0  0  0  0  0  0  0  0  0  0
    3.8297   -3.8829    0.0000 C   0  0  0  0  0  0  0  0  0  0  0  0
  1  2  1  0  0  0  0
  3  2  1  0  0  0  0
  4  3  2  0  0  0  0
  5  4  1  0  0  0  0
  5  6  1  0  0  0  0
  6  7  1  0  0  0  0
  7  8  1  0  0  0  0
  8  9  1  0  0  0  0
  9 10  1  0  0  0  0
 10 11  1  0  0  0  0
 11 12  1  0  0  0  0
  9 13  1  0  0  0  0
 13 14  1  0  0  0  0
 14 15  1  0  0  0  0
  9 16  2  0  0  0  0
 17  5  2  0  0  0  0
 18 17  1  0  0  0  0
  2 18  2  0  0  0  0
M  END
> <ChemID>
100383

> <CAS>
786-19-6

> <Original_SMILES>
CCOP(=S)(OCC)SCSc1ccc(Cl)cc1

> <preferred_name>
Carbophenothion

> <dsstox_substance_id>
DTXSID7022120

> <dsstox_compound_id>
DTXCID002120

> <qc_level>
DSSTox_Low

> <Canonical_QSARr>
CCOP(=S)(OCC)SCSC1C=CC(Cl)=CC=1

> <InChI_Code_QSARr>
InChI=1S/C11H16ClO2PS3/c1-3-13-15(16,14-4-2)18-9-17-11-7-5-10(12)6-8-11/h5-8H,3-4,9H2,1-2H3

> <InChI Key_QSARr>
VEDTXTNSFWUXGQ-UHFFFAOYSA-N

> <Salt_Solvent>


> <Salt_Solvent_ID>
0

> <MPID>
99657

> <KocRef>
Schuurmann-Main

> <LogKOC>
4.66

> <Tr_1_Tst_0>
1

$$$$
100384
  Mrv171c012251911022D          

 15 15  0  0  0  0            999 V2000
    5.4413   -2.8859    0.0000 C   0  0  0  0  0  0  0  0  0  0  0  0
    4.7269   -2.4734    0.0000 C   0  0  0  0  0  0  0  0  0  0  0  0
    4.0124   -2.8859    0.0000 N   0  0  0  0  0  0  0  0  0  0  0  0
    3.2979   -2.4734    0.0000 C   0  0  0  0  0  0  0  0  0  0  0  0
    3.2979   -1.6484    0.0000 N   0  0  0  0  0  0  0  0  0  0  0  0
    2.5834   -1.2359    0.0000 C   0  0  0  0  0  0  0  0  0  0  0  0
    2.5834   -0.4109    0.0000 S   0  0  0  0  0  0  0  0  0  0  0  0
    1.8690    0.0016    0.0000 C   0  0  0  0  0  0  0  0  0  0  0  0
    1.8690   -1.6484    0.0000 N   0  0  0  0  0  0  0  0  0  0  0  0
    1.8690   -2.4734    0.0000 C   0  0  0  0  0  0  0  0  0  0  0  0
    1.1545   -2.8859    0.0000 N   0  0  0  0  0  0  0  0  0  0  0  0
    0.4400   -2.4734    0.0000 C   0  0  0  0  0  0  0  0  0  0  0  0
   -0.2744   -2.8859    0.0000 C   0  0  0  0  0  0  0  0  0  0  0  0
    2.5834   -2.8859    0.0000 N   0  0  0  0  0  0  0  0  0  0  0  0
    4.7269   -1.6484    0.0000 C   0  0  0  0  0  0  0  0  0  0  0  0
  1  2  1  0  0  0  0
  2  3  1  0  0  0  0
  3  4  1  0  0  0  0
  5  4  1  0  0  0  0
  6  5  2  0  0  0  0
  6  7  1  0  0  0  0
  7  8  1  0  0  0  0
  9  6  1  0  0  0  0
 10  9  2  0  0  0  0
 10 11  1  0  0  0  0
 11 12  1  0  0  0  0
 12 13  1  0  0  0  0
 14 10  1  0  0  0  0
  4 14  2  0  0  0  0
  2 15  1  0  0  0  0
M  END
> <ChemID>
100384

> <CAS>
834-12-8

> <Original_SMILES>
CCNc1[n]c(NC(C)C)[n]c([n]1)SC

> <preferred_name>
Ametryn

> <dsstox_substance_id>
DTXSID1023869

> <dsstox_compound_id>
DTXCID303869

> <qc_level>
DSSTox_Low

> <Canonical_QSARr>
CCNC1N=C(NC(C)C)N=C(N=1)SC

> <InChI_Code_QSARr>
InChI=1S/C9H17N5S/c1-5-10-7-12-8(11-6(2)3)14-9(13-7)15-4/h6H,5H2,1-4H3,(H2,10,11,12,13,14)

> <InChI Key_QSARr>
RQVYBGPQFYCBGX-UHFFFAOYSA-N

> <Salt_Solvent>


> <Salt_Solvent_ID>
0

> <MPID>
99658

> <KocRef>
Schuurmann-Main

> <LogKOC>
2.59

> <Tr_1_Tst_0>
1

$$$$
100385
  Mrv171c012251911022D          

 19 21  0  0  0  0            999 V2000
    0.0000   -1.6500    0.0000 O   0  0  0  0  0  0  0  0  0  0  0  0
    0.7145   -1.2375    0.0000 C   0  0  0  0  0  0  0  0  0  0  0  0
    0.7145   -0.4125    0.0000 C   0  0  0  0  0  0  0  0  0  0  0  0
    1.4289    0.0000    0.0000 C   0  0  0  0  0  0  0  0  0  0  0  0
    2.1434   -0.4125    0.0000 C   0  0  0  0  0  0  0  0  0  0  0  0
    2.8579    0.0000    0.0000 C   0  0  0  0  0  0  0  0  0  0  0  0
    3.5724   -0.4125    0.0000 C   0  0  0  0  0  0  0  0  0  0  0  0
    3.5724   -1.2375    0.0000 C   0  0  0  0  0  0  0  0  0  0  0  0
    2.8579   -1.6500    0.0000 C   0  0  0  0  0  0  0  0  0  0  0  0
    2.1434   -1.2375    0.0000 C   0  0  0  0  0  0  0  0  0  0  0  0
    1.4289   -1.6500    0.0000 C   0  0  0  0  0  0  0  0  0  0  0  0
    1.4289   -2.4750    0.0000 N   0  0  0  0  0  0  0  0  0  0  0  0
    2.1434   -2.8875    0.0000 N   0  0  0  0  0  0  0  0  0  0  0  0
    2.1434   -3.7125    0.0000 C   0  0  0  0  0  0  0  0  0  0  0  0
    2.8579   -4.1250    0.0000 C   0  0  0  0  0  0  0  0  0  0  0  0
    2.8579   -4.9500    0.0000 C   0  0  0  0  0  0  0  0  0  0  0  0
    2.1434   -5.3625    0.0000 C   0  0  0  0  0  0  0  0  0  0  0  0
    1.4289   -4.9500    0.0000 C   0  0  0  0  0  0  0  0  0  0  0  0
    1.4289   -4.1250    0.0000 C   0  0  0  0  0  0  0  0  0  0  0  0
  1  2  1  0  0  0  0
  2  3  2  0  0  0  0
  3  4  1  0  0  0  0
  4  5  2  0  0  0  0
  5  6  1  0  0  0  0
  6  7  2  0  0  0  0
  7  8  1  0  0  0  0
  8  9  2  0  0  0  0
  9 10  1  0  0  0  0
  5 10  1  0  0  0  0
 10 11  2  0  0  0  0
  2 11  1  0  0  0  0
 12 11  1  4  0  0  0
 12 13  2  0  0  0  0
 13 14  1  0  0  0  0
 14 15  1  0  0  0  0
 15 16  2  0  0  0  0
 16 17  1  0  0  0  0
 17 18  2  0  0  0  0
 18 19  1  0  0  0  0
 14 19  2  0  0  0  0
M  END
> <ChemID>
100385

> <CAS>
40339-35-3

> <Original_SMILES>
Oc1ccc2ccccc2c1/N=N/c1ccccc1

> <preferred_name>
C.I. Solvent Yellow 14

> <dsstox_substance_id>
DTXSID90873447

> <dsstox_compound_id>
DTXCID201135

> <qc_level>
DSSTox_Low

> <Canonical_QSARr>
OC1=CC=C2C=CC=CC2=C1N=NC1C=CC=CC=1

> <InChI_Code_QSARr>
InChI=1S/C16H12N2O/c19-15-11-10-12-6-4-5-9-14(12)16(15)18-17-13-7-2-1-3-8-13/h1-11,19H

> <InChI Key_QSARr>
MRQIXHXHHPWVIL-UHFFFAOYSA-N

> <Salt_Solvent>


> <Salt_Solvent_ID>
0

> <MPID>
99659

> <KocRef>
Schuurmann-Main

> <LogKOC>
3.58

> <Tr_1_Tst_0>
1

$$$$
100386
  Mrv171c012251911022D          

 13 13  0  0  0  0            999 V2000
    3.0693   -0.9344    0.0000 N   0  3  0  0  0  0  0  0  0  0  0  0
    2.3549   -1.3469    0.0000 C   0  0  0  0  0  0  0  0  0  0  0  0
    1.6404   -0.9344    0.0000 C   0  0  0  0  0  0  0  0  0  0  0  0
    1.6404   -0.1094    0.0000 Cl  0  0  0  0  0  0  0  0  0  0  0  0
    0.9259   -1.3469    0.0000 C   0  0  0  0  0  0  0  0  0  0  0  0
    0.2114   -0.9344    0.0000 Cl  0  0  0  0  0  0  0  0  0  0  0  0
    0.9259   -2.1719    0.0000 C   0  0  0  0  0  0  0  0  0  0  0  0
    0.2114   -2.5844    0.0000 Cl  0  0  0  0  0  0  0  0  0  0  0  0
    1.6404   -2.5844    0.0000 C   0  0  0  0  0  0  0  0  0  0  0  0
    1.6404   -3.4094    0.0000 Cl  0  0  0  0  0  0  0  0  0  0  0  0
    2.3549   -2.1719    0.0000 C   0  0  0  0  0  0  0  0  0  0  0  0
    3.0693   -0.1094    0.0000 O   0  5  0  0  0  0  0  0  0  0  0  0
    3.7838   -1.3469    0.0000 O   0  0  0  0  0  0  0  0  0  0  0  0
  1  2  1  0  0  0  0
  3  2  1  0  0  0  0
  3  4  1  0  0  0  0
  5  3  2  0  0  0  0
  5  6  1  0  0  0  0
  7  5  1  0  0  0  0
  7  8  1  0  0  0  0
  9  7  2  0  0  0  0
  9 10  1  0  0  0  0
 11  9  1  0  0  0  0
  2 11  2  0  0  0  0
  1 12  1  0  0  0  0
  1 13  2  0  0  0  0
M  CHG  2   1   1  12  -1
M  END
> <ChemID>
100386

> <CAS>
879-39-0

> <Original_SMILES>
[O-][N+](=O)c1cc(Cl)c(Cl)c(Cl)c1Cl

> <preferred_name>
2,3,4,5-Tetrachloronitrobenzene

> <dsstox_substance_id>
DTXSID5026097

> <dsstox_compound_id>
DTXCID106097

> <qc_level>
DSSTox_Low

> <Canonical_QSARr>
[O-][N+](=O)C1=CC(Cl)=C(Cl)C(Cl)=C1Cl

> <InChI_Code_QSARr>
InChI=1S/C6HCl4NO2/c7-2-1-3(11(12)13)5(9)6(10)4(2)8/h1H

> <InChI Key_QSARr>
MTBYTWZDRVOMBR-UHFFFAOYSA-N

> <Salt_Solvent>


> <Salt_Solvent_ID>
0

> <MPID>
99660

> <KocRef>
Schuurmann-Main

> <LogKOC>
4.23

> <Tr_1_Tst_0>
0

$$$$
100387
  Mrv171c012251911022D          

 16 16  0  0  0  0            999 V2000
    5.1711   -2.0503    0.0000 C   0  0  0  0  0  0  0  0  0  0  0  0
    4.4566   -2.4628    0.0000 C   0  0  0  0  0  0  0  0  0  0  0  0
    3.7421   -2.8753    0.0000 N   0  0  0  0  0  0  0  0  0  0  0  0
    3.0277   -2.4628    0.0000 C   0  0  0  0  0  0  0  0  0  0  0  0
    3.0277   -1.6378    0.0000 N   0  0  0  0  0  0  0  0  0  0  0  0
    2.3132   -1.2253    0.0000 C   0  0  0  0  0  0  0  0  0  0  0  0
    2.3132   -0.4003    0.0000 S   0  0  0  0  0  0  0  0  0  0  0  0
    1.5987    0.0122    0.0000 C   0  0  0  0  0  0  0  0  0  0  0  0
    1.5987   -1.6378    0.0000 N   0  0  0  0  0  0  0  0  0  0  0  0
    1.5987   -2.4628    0.0000 C   0  0  0  0  0  0  0  0  0  0  0  0
    0.8842   -2.8753    0.0000 N   0  0  0  0  0  0  0  0  0  0  0  0
    0.1698   -2.4628    0.0000 C   0  0  0  0  0  0  0  0  0  0  0  0
   -0.5447   -2.8753    0.0000 C   0  0  0  0  0  0  0  0  0  0  0  0
    2.3132   -2.8753    0.0000 N   0  0  0  0  0  0  0  0  0  0  0  0
    4.0441   -1.7483    0.0000 C   0  0  0  0  0  0  0  0  0  0  0  0
    4.8691   -3.1772    0.0000 C   0  0  0  0  0  0  0  0  0  0  0  0
  1  2  1  0  0  0  0
  2  3  1  0  0  0  0
  3  4  1  0  0  0  0
  5  4  1  0  0  0  0
  6  5  2  0  0  0  0
  6  7  1  0  0  0  0
  7  8  1  0  0  0  0
  9  6  1  0  0  0  0
 10  9  2  0  0  0  0
 10 11  1  0  0  0  0
 11 12  1  0  0  0  0
 12 13  1  0  0  0  0
 14 10  1  0  0  0  0
  4 14  2  0  0  0  0
  2 15  1  0  0  0  0
  2 16  1  0  0  0  0
M  END
> <ChemID>
100387

> <CAS>
886-50-0

> <Original_SMILES>
CCNc1[n]c(NC(C)(C)C)[n]c([n]1)SC

> <preferred_name>
Terbutryn

> <dsstox_substance_id>
DTXSID3024318

> <dsstox_compound_id>
DTXCID504318

> <qc_level>
DSSTox_Low

> <Canonical_QSARr>
CCNC1N=C(NC(C)(C)C)N=C(N=1)SC

> <InChI_Code_QSARr>
InChI=1S/C10H19N5S/c1-6-11-7-12-8(15-10(2,3)4)14-9(13-7)16-5/h6H2,1-5H3,(H2,11,12,13,14,15)

> <InChI Key_QSARr>
IROINLKCQGIITA-UHFFFAOYSA-N

> <Salt_Solvent>


> <Salt_Solvent_ID>
0

> <MPID>
99661

> <KocRef>
Schuurmann-Main

> <LogKOC>
2.85

> <Tr_1_Tst_0>
1

$$$$
100388
  Mrv171c012251911022D          

 16 17  0  0  0  0            999 V2000
    2.9974   -1.7083    0.0000 C   0  0  0  0  0  0  0  0  0  0  0  0
    3.7119   -2.1208    0.0000 N   0  0  0  0  0  0  0  0  0  0  0  0
    3.7119   -2.9458    0.0000 C   0  0  0  0  0  0  0  0  0  0  0  0
    2.9974   -3.3583    0.0000 C   0  0  0  0  0  0  0  0  0  0  0  0
    2.9974   -4.1833    0.0000 C   0  0  0  0  0  0  0  0  0  0  0  0
    3.7119   -4.5958    0.0000 C   0  0  0  0  0  0  0  0  0  0  0  0
    4.4263   -4.1833    0.0000 C   0  0  0  0  0  0  0  0  0  0  0  0
    4.4263   -3.3583    0.0000 C   0  0  0  0  0  0  0  0  0  0  0  0
    2.9974   -0.8833    0.0000 N   0  0  0  0  0  0  0  0  0  0  0  0
    2.2829   -0.4708    0.0000 C   0  0  0  0  0  0  0  0  0  0  0  0
    2.2829    0.3542    0.0000 C   0  0  0  0  0  0  0  0  0  0  0  0
    1.5684    0.7667    0.0000 C   0  0  0  0  0  0  0  0  0  0  0  0
    0.8540    0.3542    0.0000 C   0  0  0  0  0  0  0  0  0  0  0  0
    0.8540   -0.4708    0.0000 C   0  0  0  0  0  0  0  0  0  0  0  0
    1.5684   -0.8833    0.0000 C   0  0  0  0  0  0  0  0  0  0  0  0
    2.2829   -2.1208    0.0000 O   0  0  0  0  0  0  0  0  0  0  0  0
  1  2  1  0  0  0  0
  2  3  1  0  0  0  0
  4  3  1  0  0  0  0
  5  4  2  0  0  0  0
  6  5  1  0  0  0  0
  7  6  2  0  0  0  0
  8  7  1  0  0  0  0
  3  8  2  0  0  0  0
  1  9  1  0  0  0  0
  9 10  1  0  0  0  0
 11 10  1  0  0  0  0
 12 11  1  0  0  0  0
 13 12  1  0  0  0  0
 14 13  1  0  0  0  0
 15 14  1  0  0  0  0
 10 15  1  0  0  0  0
  1 16  2  0  0  0  0
M  END
> <ChemID>
100388

> <CAS>
886-59-9

> <Original_SMILES>
O=C(Nc1ccccc1)NC1CCCCC1

> <preferred_name>


> <dsstox_substance_id>
DTXSID90877268

> <dsstox_compound_id>
DTXCID201015347

> <qc_level>


> <Canonical_QSARr>
O=C(NC1C=CC=CC=1)NC1CCCCC1

> <InChI_Code_QSARr>
InChI=1S/C13H18N2O/c16-13(14-11-7-3-1-4-8-11)15-12-9-5-2-6-10-12/h1,3-4,7-8,12H,2,5-6,9-10H2,(H2,14,15,16)

> <InChI Key_QSARr>
WPLYTRWMCWBZEN-UHFFFAOYSA-N

> <Salt_Solvent>


> <Salt_Solvent_ID>
0

> <MPID>
99662

> <KocRef>
Schuurmann-Main

> <LogKOC>
2.07

> <Tr_1_Tst_0>
1

$$$$
100389
  Mrv171c012251911022D          

 12 11  0  0  0  0            999 V2000
    2.6115   -0.0176    0.0000 P   0  0  0  0  0  0  0  0  0  0  0  0
    2.6115   -0.8426    0.0000 S   0  0  0  0  0  0  0  0  0  0  0  0
    3.3260   -1.2551    0.0000 C   0  0  0  0  0  0  0  0  0  0  0  0
    3.3260   -2.0801    0.0000 C   0  0  0  0  0  0  0  0  0  0  0  0
    4.0404   -2.4926    0.0000 S   0  0  0  0  0  0  0  0  0  0  0  0
    4.0404   -3.3176    0.0000 C   0  0  0  0  0  0  0  0  0  0  0  0
    4.7549   -3.7301    0.0000 C   0  0  0  0  0  0  0  0  0  0  0  0
    2.6115    0.8074    0.0000 O   0  0  0  0  0  0  0  0  0  0  0  0
    1.8970    1.2199    0.0000 C   0  0  0  0  0  0  0  0  0  0  0  0
    3.4365   -0.0176    0.0000 O   0  0  0  0  0  0  0  0  0  0  0  0
    3.8490    0.6968    0.0000 C   0  0  0  0  0  0  0  0  0  0  0  0
    1.7865   -0.0176    0.0000 O   0  0  0  0  0  0  0  0  0  0  0  0
  1  2  1  0  0  0  0
  2  3  1  0  0  0  0
  3  4  1  0  0  0  0
  4  5  1  0  0  0  0
  5  6  1  0  0  0  0
  6  7  1  0  0  0  0
  1  8  1  0  0  0  0
  8  9  1  0  0  0  0
  1 10  1  0  0  0  0
 10 11  1  0  0  0  0
  1 12  2  0  0  0  0
M  END
> <ChemID>
100389

> <CAS>
919-86-8

> <Original_SMILES>
CCSCCSP(=O)(OC)OC

> <preferred_name>
Demeton-S-methyl

> <dsstox_substance_id>
DTXSID5037521

> <dsstox_compound_id>
DTXCID3017521

> <qc_level>
DSSTox_Low

> <Canonical_QSARr>
CCSCCSP(=O)(OC)OC

> <InChI_Code_QSARr>
InChI=1S/C6H15O3PS2/c1-4-11-5-6-12-10(7,8-2)9-3/h4-6H2,1-3H3

> <InChI Key_QSARr>
WEBQKRLKWNIYKK-UHFFFAOYSA-N

> <Salt_Solvent>


> <Salt_Solvent_ID>
0

> <MPID>
99663

> <KocRef>
Schuurmann-Main

> <LogKOC>
1.49

> <Tr_1_Tst_0>
1

$$$$
100390
  Mrv171c012251911022D          

 10 10  0  0  0  0            999 V2000
    3.2409   -0.7665    0.0000 O   0  0  0  0  0  0  0  0  0  0  0  0
    2.5264   -1.1790    0.0000 C   0  0  0  0  0  0  0  0  0  0  0  0
    1.8119   -0.7665    0.0000 C   0  0  0  0  0  0  0  0  0  0  0  0
    1.8119    0.0585    0.0000 Cl  0  0  0  0  0  0  0  0  0  0  0  0
    1.0975   -1.1790    0.0000 C   0  0  0  0  0  0  0  0  0  0  0  0
    0.3830   -0.7665    0.0000 Cl  0  0  0  0  0  0  0  0  0  0  0  0
    1.0975   -2.0040    0.0000 C   0  0  0  0  0  0  0  0  0  0  0  0
    1.8119   -2.4165    0.0000 C   0  0  0  0  0  0  0  0  0  0  0  0
    1.8119   -3.2415    0.0000 Cl  0  0  0  0  0  0  0  0  0  0  0  0
    2.5264   -2.0040    0.0000 C   0  0  0  0  0  0  0  0  0  0  0  0
  1  2  1  0  0  0  0
  3  2  1  0  0  0  0
  3  4  1  0  0  0  0
  5  3  2  0  0  0  0
  5  6  1  0  0  0  0
  7  5  1  0  0  0  0
  8  7  2  0  0  0  0
  8  9  1  0  0  0  0
 10  8  1  0  0  0  0
  2 10  2  0  0  0  0
M  END
> <ChemID>
100390

> <CAS>
933-78-8

> <Original_SMILES>
Oc1cc(Cl)cc(Cl)c1Cl

> <preferred_name>
2,3,5-Trichlorophenol

> <dsstox_substance_id>
DTXSID0026208

> <dsstox_compound_id>
DTXCID206208

> <qc_level>
DSSTox_High

> <Canonical_QSARr>
OC1=CC(Cl)=CC(Cl)=C1Cl

> <InChI_Code_QSARr>
InChI=1S/C6H3Cl3O/c7-3-1-4(8)6(9)5(10)2-3/h1-2,10H

> <InChI Key_QSARr>
WWGQHTJIFOQAOC-UHFFFAOYSA-N

> <Salt_Solvent>


> <Salt_Solvent_ID>
0

> <MPID>
99664

> <KocRef>
Schuurmann-Main

> <LogKOC>
3.61

> <Tr_1_Tst_0>
0

$$$$
100391
  Mrv171c012251911022D          

 12 13  0  0  0  0            999 V2000
   -0.0000   -0.8250    0.0000 C   0  0  0  0  0  0  0  0  0  0  0  0
   -0.7145   -0.4125    0.0000 C   0  0  0  0  0  0  0  0  0  0  0  0
   -1.4289   -0.8250    0.0000 C   0  0  0  0  0  0  0  0  0  0  0  0
   -1.4289   -1.6500    0.0000 C   0  0  0  0  0  0  0  0  0  0  0  0
   -0.7145   -2.0625    0.0000 C   0  0  0  0  0  0  0  0  0  0  0  0
   -0.0000   -1.6500    0.0000 C   0  0  0  0  0  0  0  0  0  0  0  0
    0.7145   -2.0625    0.0000 C   0  0  0  0  0  0  0  0  0  0  0  0
    1.4289   -1.6500    0.0000 C   0  0  0  0  0  0  0  0  0  0  0  0
    1.4289   -0.8250    0.0000 C   0  0  0  0  0  0  0  0  0  0  0  0
    2.1434   -0.4125    0.0000 C   0  0  0  0  0  0  0  0  0  0  0  0
    2.1434    0.4125    0.0000 C   0  0  0  0  0  0  0  0  0  0  0  0
    0.7145   -0.4125    0.0000 C   0  0  0  0  0  0  0  0  0  0  0  0
  2  1  1  0  0  0  0
  3  2  2  0  0  0  0
  4  3  1  0  0  0  0
  5  4  2  0  0  0  0
  6  5  1  0  0  0  0
  6  1  1  0  0  0  0
  7  6  2  0  0  0  0
  8  7  1  0  0  0  0
  9  8  2  0  0  0  0
  9 10  1  0  0  0  0
 10 11  1  0  0  0  0
 12  9  1  0  0  0  0
  1 12  2  0  0  0  0
M  END
> <ChemID>
100391

> <CAS>
939-27-5

> <Original_SMILES>
CCc1cc2ccccc2cc1

> <preferred_name>
2-Ethylnaphthalene

> <dsstox_substance_id>
DTXSID9061330

> <dsstox_compound_id>
DTXCID1048887

> <qc_level>
Public_High

> <Canonical_QSARr>
CCC1C=C2C=CC=CC2=CC=1

> <InChI_Code_QSARr>
InChI=1S/C12H12/c1-2-10-7-8-11-5-3-4-6-12(11)9-10/h3-9H,2H2,1H3

> <InChI Key_QSARr>
RJTJVVYSTUQWNI-UHFFFAOYSA-N

> <Salt_Solvent>


> <Salt_Solvent_ID>
0

> <MPID>
99665

> <KocRef>
SRC 1992 NonPolar Val

> <LogKOC>
3.76

> <Tr_1_Tst_0>
1

$$$$
100392
  Mrv171c012251911022D          

 14 14  0  0  0  0            999 V2000
    2.5770   -0.6358    0.0000 P   0  0  0  0  0  0  0  0  0  0  0  0
    2.1645    0.0787    0.0000 S   0  0  0  0  0  0  0  0  0  0  0  0
    2.9895   -1.3502    0.0000 C   0  0  0  0  0  0  0  0  0  0  0  0
    3.8145   -1.3502    0.0000 C   0  0  0  0  0  0  0  0  0  0  0  0
    3.2914   -0.2233    0.0000 O   0  0  0  0  0  0  0  0  0  0  0  0
    3.2914    0.6017    0.0000 C   0  0  0  0  0  0  0  0  0  0  0  0
    4.0059    1.0142    0.0000 C   0  0  0  0  0  0  0  0  0  0  0  0
    1.8625   -1.0483    0.0000 S   0  0  0  0  0  0  0  0  0  0  0  0
    1.8625   -1.8733    0.0000 C   0  0  0  0  0  0  0  0  0  0  0  0
    1.1480   -2.2858    0.0000 C   0  0  0  0  0  0  0  0  0  0  0  0
    1.1480   -3.1108    0.0000 C   0  0  0  0  0  0  0  0  0  0  0  0
    1.8625   -3.5233    0.0000 C   0  0  0  0  0  0  0  0  0  0  0  0
    2.5770   -3.1108    0.0000 C   0  0  0  0  0  0  0  0  0  0  0  0
    2.5770   -2.2858    0.0000 C   0  0  0  0  0  0  0  0  0  0  0  0
  1  2  2  0  0  0  0
  1  3  1  0  0  0  0
  3  4  1  0  0  0  0
  1  5  1  0  0  0  0
  5  6  1  0  0  0  0
  6  7  1  0  0  0  0
  1  8  1  0  0  0  0
  8  9  1  0  0  0  0
 10  9  1  0  0  0  0
 11 10  2  0  0  0  0
 12 11  1  0  0  0  0
 13 12  2  0  0  0  0
 14 13  1  0  0  0  0
  9 14  2  0  0  0  0
M  END
> <ChemID>
100392

> <CAS>
944-22-9

> <Original_SMILES>
CCP(=S)(OCC)Sc1ccccc1

> <preferred_name>
Fonofos

> <dsstox_substance_id>
DTXSID2024113

> <dsstox_compound_id>
DTXCID104113

> <qc_level>
DSSTox_Low

> <Canonical_QSARr>
CCP(=S)(OCC)SC1C=CC=CC=1

> <InChI_Code_QSARr>
InChI=1S/C10H15OPS2/c1-3-11-12(13,4-2)14-10-8-6-5-7-9-10/h5-9H,3-4H2,1-2H3

> <InChI Key_QSARr>
KVGLBTYUCJYMND-UHFFFAOYSA-N

> <Salt_Solvent>


> <Salt_Solvent_ID>
0

> <MPID>
99666

> <KocRef>
Schuurmann-Main

> <LogKOC>
2.94

> <Tr_1_Tst_0>
1

$$$$
100393
  Mrv171c012251911022D          

 16 16  0  0  0  0            999 V2000
    3.1108   -3.1397    0.0000 S   0  0  0  0  0  0  0  0  0  0  0  0
    3.7783   -2.6548    0.0000 P   0  0  0  0  0  0  0  0  0  0  0  0
    4.2632   -3.3222    0.0000 O   0  0  0  0  0  0  0  0  0  0  0  0
    3.9276   -4.0759    0.0000 C   0  0  0  0  0  0  0  0  0  0  0  0
    4.4457   -2.1698    0.0000 O   0  0  0  0  0  0  0  0  0  0  0  0
    5.1994   -2.5054    0.0000 C   0  0  0  0  0  0  0  0  0  0  0  0
    3.2934   -1.9873    0.0000 S   0  0  0  0  0  0  0  0  0  0  0  0
    3.6289   -1.2336    0.0000 C   0  0  0  0  0  0  0  0  0  0  0  0
    3.1440   -0.5662    0.0000 N   0  0  0  0  0  0  0  0  0  0  0  0
    3.3989    0.2184    0.0000 N   0  0  0  0  0  0  0  0  0  0  0  0
    2.7315    0.7033    0.0000 C   0  0  0  0  0  0  0  0  0  0  0  0
    2.7315    1.5283    0.0000 O   0  0  0  0  0  0  0  0  0  0  0  0
    2.0170    1.9408    0.0000 C   0  0  0  0  0  0  0  0  0  0  0  0
    2.0641    0.2184    0.0000 S   0  0  0  0  0  0  0  0  0  0  0  0
    2.3190   -0.5662    0.0000 C   0  0  0  0  0  0  0  0  0  0  0  0
    1.8341   -1.2336    0.0000 O   0  0  0  0  0  0  0  0  0  0  0  0
  1  2  2  0  0  0  0
  2  3  1  0  0  0  0
  3  4  1  0  0  0  0
  2  5  1  0  0  0  0
  5  6  1  0  0  0  0
  2  7  1  0  0  0  0
  7  8  1  0  0  0  0
  8  9  1  0  0  0  0
 10  9  1  0  0  0  0
 11 10  2  0  0  0  0
 11 12  1  0  0  0  0
 12 13  1  0  0  0  0
 14 11  1  0  0  0  0
 15 14  1  0  0  0  0
  9 15  1  0  0  0  0
 15 16  2  0  0  0  0
M  END
> <ChemID>
100393

> <CAS>
950-37-8

> <Original_SMILES>
COC1=NN(CSP(=S)(OC)OC)C(=O)S1

> <preferred_name>
Methidathion

> <dsstox_substance_id>
DTXSID5020819

> <dsstox_compound_id>
DTXCID70819

> <qc_level>
DSSTox_Low

> <Canonical_QSARr>
COC1=NN(CSP(=S)(OC)OC)C(=O)S1

> <InChI_Code_QSARr>
InChI=1S/C6H11N2O4PS3/c1-10-5-7-8(6(9)16-5)4-15-13(14,11-2)12-3/h4H2,1-3H3

> <InChI Key_QSARr>
MEBQXILRKZHVCX-UHFFFAOYSA-N

> <Salt_Solvent>


> <Salt_Solvent_ID>
0

> <MPID>
99667

> <KocRef>
Schuurmann-Main

> <LogKOC>
1.53

> <Tr_1_Tst_0>
1

$$$$
100394
  Mrv171c012251911022D          

 16 16  0  0  0  0            999 V2000
    1.9210   -4.4874    0.0000 C   0  0  0  0  0  0  0  0  0  0  0  0
    1.9210   -3.6624    0.0000 O   0  0  0  0  0  0  0  0  0  0  0  0
    2.6355   -3.2499    0.0000 P   0  0  0  0  0  0  0  0  0  0  0  0
    3.3500   -2.8374    0.0000 S   0  0  0  0  0  0  0  0  0  0  0  0
    3.3500   -2.0124    0.0000 C   0  0  0  0  0  0  0  0  0  0  0  0
    4.0645   -1.5999    0.0000 S   0  0  0  0  0  0  0  0  0  0  0  0
    4.0645   -0.7749    0.0000 C   0  0  0  0  0  0  0  0  0  0  0  0
    4.7789   -0.3624    0.0000 C   0  0  0  0  0  0  0  0  0  0  0  0
    4.7789    0.4626    0.0000 C   0  0  0  0  0  0  0  0  0  0  0  0
    4.0645    0.8751    0.0000 C   0  0  0  0  0  0  0  0  0  0  0  0
    4.0645    1.7001    0.0000 Cl  0  0  0  0  0  0  0  0  0  0  0  0
    3.3500    0.4626    0.0000 C   0  0  0  0  0  0  0  0  0  0  0  0
    3.3500   -0.3624    0.0000 C   0  0  0  0  0  0  0  0  0  0  0  0
    3.0480   -3.9643    0.0000 S   0  0  0  0  0  0  0  0  0  0  0  0
    2.2230   -2.5354    0.0000 O   0  0  0  0  0  0  0  0  0  0  0  0
    2.6355   -1.8209    0.0000 C   0  0  0  0  0  0  0  0  0  0  0  0
  1  2  1  0  0  0  0
  2  3  1  0  0  0  0
  3  4  1  0  0  0  0
  4  5  1  0  0  0  0
  5  6  1  0  0  0  0
  6  7  1  0  0  0  0
  8  7  1  0  0  0  0
  9  8  2  0  0  0  0
 10  9  1  0  0  0  0
 10 11  1  0  0  0  0
 12 10  2  0  0  0  0
 13 12  1  0  0  0  0
  7 13  2  0  0  0  0
  3 14  2  0  0  0  0
  3 15  1  0  0  0  0
 15 16  1  0  0  0  0
M  END
> <ChemID>
100394

> <CAS>
953-17-3

> <Original_SMILES>
COP(=S)(OC)SCSc1ccc(Cl)cc1

> <preferred_name>
Methyl trithion

> <dsstox_substance_id>
DTXSID3040275

> <dsstox_compound_id>
DTXCID1020275

> <qc_level>
DSSTox_Low

> <Canonical_QSARr>
COP(=S)(OC)SCSC1C=CC(Cl)=CC=1

> <InChI_Code_QSARr>
InChI=1S/C9H12ClO2PS3/c1-11-13(14,12-2)16-7-15-9-5-3-8(10)4-6-9/h3-6H,7H2,1-2H3

> <InChI Key_QSARr>
OUCCVXVYGFBXSV-UHFFFAOYSA-N

> <Salt_Solvent>


> <Salt_Solvent_ID>
0

> <MPID>
99668

> <KocRef>
Schuurmann-Main

> <LogKOC>
4.67

> <Tr_1_Tst_0>
0

$$$$
100395
  Mrv171c012251911022D          

 18 19  0  0  0  0            999 V2000
    1.0699   -1.8672    0.0000 C   0  0  0  0  0  0  0  0  0  0  0  0
    0.3554   -2.2797    0.0000 O   0  0  0  0  0  0  0  0  0  0  0  0
    1.0699   -1.0422    0.0000 N   0  0  0  0  0  0  0  0  0  0  0  0
    1.7843   -0.6297    0.0000 C   0  0  0  0  0  0  0  0  0  0  0  0
    0.3554   -0.6297    0.0000 C   0  0  0  0  0  0  0  0  0  0  0  0
    1.7843   -2.2797    0.0000 C   0  0  0  0  0  0  0  0  0  0  0  0
    1.7843   -3.1047    0.0000 C   0  0  0  0  0  0  0  0  0  0  0  0
    1.0699   -3.5172    0.0000 C   0  0  0  0  0  0  0  0  0  0  0  0
    1.0699   -4.3422    0.0000 C   0  0  0  0  0  0  0  0  0  0  0  0
    1.7843   -4.7547    0.0000 C   0  0  0  0  0  0  0  0  0  0  0  0
    2.4988   -4.3422    0.0000 C   0  0  0  0  0  0  0  0  0  0  0  0
    2.4988   -3.5172    0.0000 C   0  0  0  0  0  0  0  0  0  0  0  0
    2.4988   -1.8672    0.0000 C   0  0  0  0  0  0  0  0  0  0  0  0
    3.2133   -2.2797    0.0000 C   0  0  0  0  0  0  0  0  0  0  0  0
    3.9278   -1.8672    0.0000 C   0  0  0  0  0  0  0  0  0  0  0  0
    3.9278   -1.0422    0.0000 C   0  0  0  0  0  0  0  0  0  0  0  0
    3.2133   -0.6297    0.0000 C   0  0  0  0  0  0  0  0  0  0  0  0
    2.4988   -1.0422    0.0000 C   0  0  0  0  0  0  0  0  0  0  0  0
  1  2  2  0  0  0  0
  1  3  1  0  0  0  0
  3  4  1  0  0  0  0
  3  5  1  0  0  0  0
  1  6  1  0  0  0  0
  6  7  1  0  0  0  0
  8  7  1  0  0  0  0
  9  8  2  0  0  0  0
 10  9  1  0  0  0  0
 11 10  2  0  0  0  0
 12 11  1  0  0  0  0
  7 12  2  0  0  0  0
  6 13  1  0  0  0  0
 14 13  2  0  0  0  0
 15 14  1  0  0  0  0
 16 15  2  0  0  0  0
 17 16  1  0  0  0  0
 18 17  2  0  0  0  0
 13 18  1  0  0  0  0
M  END
> <ChemID>
100395

> <CAS>
957-51-7

> <Original_SMILES>
CN(C)C(=O)C(c1ccccc1)c1ccccc1

> <preferred_name>
Diphenamid

> <dsstox_substance_id>
DTXSID8024072

> <dsstox_compound_id>
DTXCID304072

> <qc_level>
DSSTox_Low

> <Canonical_QSARr>
CN(C)C(=O)C(C1C=CC=CC=1)C1C=CC=CC=1

> <InChI_Code_QSARr>
InChI=1S/C16H17NO/c1-17(2)16(18)15(13-9-5-3-6-10-13)14-11-7-4-8-12-14/h3-12,15H,1-2H3

> <InChI Key_QSARr>
QAHFOPIILNICLA-UHFFFAOYSA-N

> <Salt_Solvent>


> <Salt_Solvent_ID>
0

> <MPID>
99669

> <KocRef>
Schuurmann-Main

> <LogKOC>
2.32

> <Tr_1_Tst_0>
1

$$$$
100397
  Mrv171c012251911022D          

 19 19  0  0  0  0            999 V2000
   -0.7145    4.5375    0.0000 C   0  0  0  0  0  0  0  0  0  0  0  0
    0.0000    4.1250    0.0000 O   0  0  0  0  0  0  0  0  0  0  0  0
    0.0000    3.3000    0.0000 P   0  0  0  0  0  0  0  0  0  0  0  0
   -0.8250    3.3000    0.0000 O   0  0  0  0  0  0  0  0  0  0  0  0
    0.0000    2.4750    0.0000 O   0  0  0  0  0  0  0  0  0  0  0  0
    0.7145    2.0625    0.0000 C   0  0  0  0  0  0  0  0  0  0  0  0
    1.4289    2.4750    0.0000 C   0  0  0  0  0  0  0  0  0  0  0  0
    2.1434    2.0625    0.0000 Cl  0  0  0  0  0  0  0  0  0  0  0  0
    0.7145    1.2375    0.0000 C   0  0  0  0  0  0  0  0  0  0  0  0
    1.4289    0.8250    0.0000 C   0  0  0  0  0  0  0  0  0  0  0  0
    1.4289   -0.0000    0.0000 C   0  0  0  0  0  0  0  0  0  0  0  0
    2.1434   -0.4125    0.0000 Cl  0  0  0  0  0  0  0  0  0  0  0  0
    0.7145   -0.4125    0.0000 C   0  0  0  0  0  0  0  0  0  0  0  0
    0.7145   -1.2375    0.0000 Cl  0  0  0  0  0  0  0  0  0  0  0  0
    0.0000    0.0000    0.0000 C   0  0  0  0  0  0  0  0  0  0  0  0
    0.0000    0.8250    0.0000 C   0  0  0  0  0  0  0  0  0  0  0  0
   -0.7145    1.2375    0.0000 Cl  0  0  0  0  0  0  0  0  0  0  0  0
    0.8250    3.3000    0.0000 O   0  0  0  0  0  0  0  0  0  0  0  0
    1.2375    4.0145    0.0000 C   0  0  0  0  0  0  0  0  0  0  0  0
  1  2  1  0  0  0  0
  2  3  1  0  0  0  0
  3  4  2  0  0  0  0
  3  5  1  0  0  0  0
  5  6  1  0  0  0  0
  6  7  2  0  0  0  0
  7  8  1  4  0  0  0
  6  9  1  0  0  0  0
  9 10  1  0  0  0  0
 10 11  2  0  0  0  0
 11 12  1  0  0  0  0
 11 13  1  0  0  0  0
 13 14  1  0  0  0  0
 13 15  2  0  0  0  0
 15 16  1  0  0  0  0
  9 16  2  0  0  0  0
 16 17  1  0  0  0  0
  3 18  1  0  0  0  0
 18 19  1  0  0  0  0
M  END
> <ChemID>
100397

> <CAS>
961-11-5|22248-79-9

> <Original_SMILES>
COP(=O)(OC(=CCl)c1cc(Cl)c(Cl)cc1Cl)OC

> <preferred_name>
Tetrachlorovinphos|Z-Tetrachlorvinphos

> <dsstox_substance_id>
DTXSID1021320|DTXSID1032648

> <dsstox_compound_id>
DTXCID301320|DTXCID3028132

> <qc_level>
DSSTox_High

> <Canonical_QSARr>
COP(=O)(OC(=CCl)C1C=C(Cl)C(Cl)=CC=1Cl)OC

> <InChI_Code_QSARr>
InChI=1S/C10H9Cl4O4P/c1-16-19(15,17-2)18-10(5-11)6-3-8(13)9(14)4-7(6)12/h3-5H,1-2H3

> <InChI Key_QSARr>
UBCKGWBNUIFUST-UHFFFAOYSA-N

> <Salt_Solvent>


> <Salt_Solvent_ID>
0

> <MPID>
99671|99839

> <KocRef>
Schuurmann-Main|USDA Pest Prop DB

> <LogKOC>
3.01

> <Tr_1_Tst_0>
1

$$$$
100398
  Mrv171c012251911022D          

 11 11  0  0  0  0            999 V2000
    0.7145    1.2375    0.0000 C   0  0  0  0  0  0  0  0  0  0  0  0
   -0.0000    0.8250    0.0000 C   0  0  0  0  0  0  0  0  0  0  0  0
   -0.0000    0.0000    0.0000 C   0  0  0  0  0  0  0  0  0  0  0  0
    0.7145   -0.4125    0.0000 C   0  0  0  0  0  0  0  0  0  0  0  0
    1.4289    0.0000    0.0000 C   0  0  0  0  0  0  0  0  0  0  0  0
    1.4289    0.8250    0.0000 C   0  0  0  0  0  0  0  0  0  0  0  0
    0.7145    2.0625    0.0000 N   0  0  0  0  0  0  0  0  0  0  0  0
   -0.0000    2.4750    0.0000 C   0  0  0  0  0  0  0  0  0  0  0  0
   -0.7145    2.0625    0.0000 O   0  0  0  0  0  0  0  0  0  0  0  0
   -0.0000    3.3000    0.0000 N   0  0  0  0  0  0  0  0  0  0  0  0
   -0.7145    3.7125    0.0000 C   0  0  0  0  0  0  0  0  0  0  0  0
  2  1  1  0  0  0  0
  3  2  2  0  0  0  0
  4  3  1  0  0  0  0
  5  4  2  0  0  0  0
  6  5  1  0  0  0  0
  1  6  2  0  0  0  0
  1  7  1  0  0  0  0
  7  8  1  0  0  0  0
  8  9  2  0  0  0  0
  8 10  1  0  0  0  0
 10 11  1  0  0  0  0
M  END
> <ChemID>
100398

> <CAS>
1007-36-9

> <Original_SMILES>
CNC(=O)Nc1ccccc1

> <preferred_name>
N-Methyl-N'-phenylurea

> <dsstox_substance_id>
DTXSID1074416

> <dsstox_compound_id>
DTXCID7032555

> <qc_level>
Public_High

> <Canonical_QSARr>
CNC(=O)NC1=CC=CC=C1

> <InChI_Code_QSARr>
InChI=1S/C8H10N2O/c1-9-8(11)10-7-5-3-2-4-6-7/h2-6H,1H3,(H2,9,10,11)

> <InChI Key_QSARr>
SQBHGDSDVWCPHN-UHFFFAOYSA-N

> <Salt_Solvent>


> <Salt_Solvent_ID>
0

> <MPID>
99672

> <KocRef>
Schuurmann-Main

> <LogKOC>
1.29

> <Tr_1_Tst_0>
1

$$$$
100399
  Mrv171c012251911022D          

 14 14  0  0  0  0            999 V2000
    3.5611   -1.6467    0.0000 N   0  0  0  0  0  0  0  0  0  0  0  0
    2.8466   -1.2342    0.0000 C   0  0  0  0  0  0  0  0  0  0  0  0
    2.8466   -0.4092    0.0000 N   0  0  0  0  0  0  0  0  0  0  0  0
    2.1321    0.0033    0.0000 C   0  0  0  0  0  0  0  0  0  0  0  0
    2.1321    0.8283    0.0000 C   0  0  0  0  0  0  0  0  0  0  0  0
    2.1321   -1.6467    0.0000 N   0  0  0  0  0  0  0  0  0  0  0  0
    2.1321   -2.4717    0.0000 C   0  0  0  0  0  0  0  0  0  0  0  0
    1.4176   -2.8842    0.0000 S   0  0  0  0  0  0  0  0  0  0  0  0
    1.4176   -3.7092    0.0000 C   0  0  0  0  0  0  0  0  0  0  0  0
    2.8466   -2.8842    0.0000 N   0  0  0  0  0  0  0  0  0  0  0  0
    3.5611   -2.4717    0.0000 C   0  0  0  0  0  0  0  0  0  0  0  0
    4.2755   -2.8842    0.0000 N   0  0  0  0  0  0  0  0  0  0  0  0
    4.2755   -3.7092    0.0000 C   0  0  0  0  0  0  0  0  0  0  0  0
    4.9900   -4.1217    0.0000 C   0  0  0  0  0  0  0  0  0  0  0  0
  2  1  1  0  0  0  0
  2  3  1  0  0  0  0
  3  4  1  0  0  0  0
  4  5  1  0  0  0  0
  6  2  2  0  0  0  0
  7  6  1  0  0  0  0
  7  8  1  0  0  0  0
  8  9  1  0  0  0  0
 10  7  2  0  0  0  0
 11 10  1  0  0  0  0
  1 11  2  0  0  0  0
 11 12  1  0  0  0  0
 12 13  1  0  0  0  0
 13 14  1  0  0  0  0
M  END
> <ChemID>
100399

> <CAS>
1014-70-6

> <Original_SMILES>
CSc1[n]c(NCC)[n]c(NCC)[n]1

> <preferred_name>
Simetryn

> <dsstox_substance_id>
DTXSID8037596

> <dsstox_compound_id>
DTXCID6017596

> <qc_level>
DSSTox_Low

> <Canonical_QSARr>
CSC1N=C(NCC)N=C(NCC)N=1

> <InChI_Code_QSARr>
InChI=1S/C8H15N5S/c1-4-9-6-11-7(10-5-2)13-8(12-6)14-3/h4-5H2,1-3H3,(H2,9,10,11,12,13)

> <InChI Key_QSARr>
MGLWZSOBALDPEK-UHFFFAOYSA-N

> <Salt_Solvent>


> <Salt_Solvent_ID>
0

> <MPID>
99673

> <KocRef>
USDA Pest Prop DB

> <LogKOC>
2.3

> <Tr_1_Tst_0>
0

$$$$
100400
  Mrv171c012251911022D          

 18 21  0  0  0  0            999 V2000
    0.7055   -1.5210    0.0000 C   0  0  0  0  0  0  0  0  0  0  0  0
   -0.0401   -2.1469    0.0000 Cl  0  0  0  0  0  0  0  0  0  0  0  0
    0.8732   -0.7133    0.0000 C   0  0  0  0  0  0  0  0  0  0  0  0
    0.4951    0.0945    0.0000 Cl  0  0  0  0  0  0  0  0  0  0  0  0
    1.7608   -0.5071    0.0000 C   0  0  0  0  0  0  0  0  0  0  0  0
    2.0172    0.3274    0.0000 Cl  0  0  0  0  0  0  0  0  0  0  0  0
    1.7951   -1.3568    0.0000 C   0  0  0  0  0  0  0  0  0  0  0  0
    1.2885   -0.6285    0.0000 Cl  0  0  0  0  0  0  0  0  0  0  0  0
    0.9657   -1.8961    0.0000 Cl  0  0  0  0  0  0  0  0  0  0  0  0
    1.4254   -2.1226    0.0000 C   0  0  0  0  0  0  0  0  0  0  0  0
    1.2909   -2.9902    0.0000 Cl  0  0  0  0  0  0  0  0  0  0  0  0
    2.2088   -1.8639    0.0000 C   0  0  0  0  0  0  0  0  0  0  0  0
    2.9253   -2.2730    0.0000 C   0  0  0  0  0  0  0  0  0  0  0  0
    3.1303   -3.1035    0.0000 Cl  0  0  0  0  0  0  0  0  0  0  0  0
    3.5357   -1.7181    0.0000 C   0  0  0  0  0  0  0  0  0  0  0  0
    4.0175   -1.0483    0.0000 O   0  0  0  0  0  0  0  0  0  0  0  0
    3.1966   -0.9660    0.0000 C   0  0  0  0  0  0  0  0  0  0  0  0
    2.3765   -1.0562    0.0000 C   0  0  0  0  0  0  0  0  0  0  0  0
  1  2  1  0  0  0  0
  3  1  2  0  0  0  0
  3  4  1  0  0  0  0
  5  3  1  0  0  0  0
  5  6  1  0  0  0  0
  5  7  1  0  0  0  0
  7  8  1  0  0  0  0
  7  9  1  0  0  0  0
  7 10  1  0  0  0  0
  1 10  1  0  0  0  0
 10 11  1  0  0  0  0
 10 12  1  0  0  0  0
 13 12  1  0  0  0  0
 13 14  1  0  0  0  0
 15 13  1  0  0  0  0
 15 16  1  0  0  0  0
 16 17  1  0  0  0  0
 17 15  1  0  0  0  0
 18 17  1  0  0  0  0
 12 18  1  0  0  0  0
 18  5  1  0  0  0  0
M  END
> <ChemID>
100400

> <CAS>
1024-57-3

> <Original_SMILES>
ClC1(Cl)C2(Cl)C3C4OC4C(Cl)C3C1(Cl)C(Cl)=C2Cl

> <preferred_name>
Heptachlor epoxide

> <dsstox_substance_id>
DTXSID1024126

> <dsstox_compound_id>
DTXCID001436335

> <qc_level>
DSSTox_High

> <Canonical_QSARr>
ClC1(Cl)C2(Cl)C3C4OC4C(Cl)C3C1(Cl)C(Cl)=C2Cl

> <InChI_Code_QSARr>
InChI=1S/C10H5Cl7O/c11-3-1-2(4-5(3)18-4)9(15)7(13)6(12)8(1,14)10(9,16)17/h1-5H

> <InChI Key_QSARr>
ZXFXBSWRVIQKOD-UHFFFAOYSA-N

> <Salt_Solvent>


> <Salt_Solvent_ID>
0

> <MPID>
99674

> <KocRef>
Schuurmann-Main

> <LogKOC>
4.02

> <Tr_1_Tst_0>
1

$$$$
100401
  Mrv171c012251911022D          

 10  9  0  0  0  0            999 V2000
    1.6432   -1.9352    0.0000 P   0  0  0  0  0  0  0  0  0  0  0  0
    1.6432   -2.7602    0.0000 O   0  0  0  0  0  0  0  0  0  0  0  0
    2.4682   -1.9352    0.0000 O   0  0  0  0  0  0  0  0  0  0  0  0
    1.6432   -1.1102    0.0000 C   0  0  0  0  0  0  0  0  0  0  0  0
    2.3576   -0.6977    0.0000 N   0  0  0  0  0  0  0  0  0  0  0  0
    2.3576    0.1273    0.0000 C   0  0  0  0  0  0  0  0  0  0  0  0
    3.0721    0.5398    0.0000 C   0  0  0  0  0  0  0  0  0  0  0  0
    3.0721    1.3648    0.0000 O   0  0  0  0  0  0  0  0  0  0  0  0
    3.7866    0.1273    0.0000 O   0  0  0  0  0  0  0  0  0  0  0  0
    0.8182   -1.9352    0.0000 O   0  0  0  0  0  0  0  0  0  0  0  0
  1  2  1  0  0  0  0
  1  3  1  0  0  0  0
  1  4  1  0  0  0  0
  4  5  1  0  0  0  0
  5  6  1  0  0  0  0
  6  7  1  0  0  0  0
  7  8  1  0  0  0  0
  7  9  2  0  0  0  0
  1 10  2  0  0  0  0
M  END
> <ChemID>
100401

> <CAS>
1071-83-6

> <Original_SMILES>
OC(=O)CNCP(O)(O)=O

> <preferred_name>
Glyphosate

> <dsstox_substance_id>
DTXSID1024122

> <dsstox_compound_id>
DTXCID004122

> <qc_level>
DSSTox_Low

> <Canonical_QSARr>
OC(=O)CNCP(O)(O)=O

> <InChI_Code_QSARr>
InChI=1S/C3H8NO5P/c5-3(6)1-4-2-10(7,8)9/h4H,1-2H2,(H,5,6)(H2,7,8,9)

> <InChI Key_QSARr>
XDDAORKBJWWYJS-UHFFFAOYSA-N

> <Salt_Solvent>


> <Salt_Solvent_ID>
0

> <MPID>
99675

> <KocRef>
USDA Pest Prop DB

> <LogKOC>
3.32

> <Tr_1_Tst_0>
1

$$$$
100402
  Mrv171c012251911022D          

 13 12  0  0  0  0            999 V2000
    1.2726   -3.9974    0.0000 O   0  0  0  0  0  0  0  0  0  0  0  0
    1.2726   -3.1724    0.0000 C   0  0  0  0  0  0  0  0  0  0  0  0
    0.5581   -2.7599    0.0000 S   0  0  0  0  0  0  0  0  0  0  0  0
   -0.1564   -3.1724    0.0000 C   0  0  0  0  0  0  0  0  0  0  0  0
   -0.8708   -2.7599    0.0000 C   0  0  0  0  0  0  0  0  0  0  0  0
   -1.5853   -3.1724    0.0000 C   0  0  0  0  0  0  0  0  0  0  0  0
    1.9870   -2.7599    0.0000 N   0  0  0  0  0  0  0  0  0  0  0  0
    1.9870   -1.9349    0.0000 C   0  0  0  0  0  0  0  0  0  0  0  0
    2.7015   -1.5224    0.0000 C   0  0  0  0  0  0  0  0  0  0  0  0
    2.7015   -3.1724    0.0000 C   0  0  0  0  0  0  0  0  0  0  0  0
    3.4160   -2.7599    0.0000 C   0  0  0  0  0  0  0  0  0  0  0  0
    4.1305   -3.1724    0.0000 C   0  0  0  0  0  0  0  0  0  0  0  0
    4.8449   -2.7599    0.0000 C   0  0  0  0  0  0  0  0  0  0  0  0
  1  2  2  0  0  0  0
  2  3  1  0  0  0  0
  3  4  1  0  0  0  0
  4  5  1  0  0  0  0
  5  6  1  0  0  0  0
  2  7  1  0  0  0  0
  7  8  1  0  0  0  0
  8  9  1  0  0  0  0
  7 10  1  0  0  0  0
 10 11  1  0  0  0  0
 11 12  1  0  0  0  0
 12 13  1  0  0  0  0
M  END
> <ChemID>
100402

> <CAS>
1114-71-2

> <Original_SMILES>
CCN(CCCC)C(=O)SCCC

> <preferred_name>
Pebulate

> <dsstox_substance_id>
DTXSID8021199

> <dsstox_compound_id>
DTXCID601199

> <qc_level>
DSSTox_Low

> <Canonical_QSARr>
CCN(CCCC)C(=O)SCCC

> <InChI_Code_QSARr>
InChI=1S/C10H21NOS/c1-4-7-8-11(6-3)10(12)13-9-5-2/h4-9H2,1-3H3

> <InChI Key_QSARr>
SGEJQUSYQTVSIU-UHFFFAOYSA-N

> <Salt_Solvent>


> <Salt_Solvent_ID>
0

> <MPID>
99676

> <KocRef>
Schuurmann-Main

> <LogKOC>
2.8

> <Tr_1_Tst_0>
1

$$$$
100403
  Mrv171c012251911022D          

 12 13  0  0  0  0            999 V2000
    1.6626   -1.6460    0.0000 C   0  0  0  0  0  0  0  0  0  0  0  0
    0.9481   -1.2335    0.0000 C   0  0  0  0  0  0  0  0  0  0  0  0
    0.9481   -0.4085    0.0000 C   0  0  0  0  0  0  0  0  0  0  0  0
    0.2337    0.0040    0.0000 C   0  0  0  0  0  0  0  0  0  0  0  0
    0.2337   -1.6460    0.0000 C   0  0  0  0  0  0  0  0  0  0  0  0
    0.2337   -2.4710    0.0000 C   0  0  0  0  0  0  0  0  0  0  0  0
    0.9481   -2.8835    0.0000 C   0  0  0  0  0  0  0  0  0  0  0  0
    1.6626   -2.4710    0.0000 C   0  0  0  0  0  0  0  0  0  0  0  0
    2.3771   -2.8835    0.0000 C   0  0  0  0  0  0  0  0  0  0  0  0
    3.0916   -2.4710    0.0000 C   0  0  0  0  0  0  0  0  0  0  0  0
    3.0916   -1.6460    0.0000 C   0  0  0  0  0  0  0  0  0  0  0  0
    2.3771   -1.2335    0.0000 C   0  0  0  0  0  0  0  0  0  0  0  0
  2  1  1  0  0  0  0
  2  3  1  0  0  0  0
  3  4  1  0  0  0  0
  5  2  2  0  0  0  0
  6  5  1  0  0  0  0
  7  6  2  0  0  0  0
  8  7  1  0  0  0  0
  8  1  2  0  0  0  0
  9  8  1  0  0  0  0
 10  9  2  0  0  0  0
 11 10  1  0  0  0  0
 12 11  2  0  0  0  0
  1 12  1  0  0  0  0
M  END
> <ChemID>
100403

> <CAS>
1127-76-0

> <Original_SMILES>
CCc1cccc2ccccc21

> <preferred_name>


> <dsstox_substance_id>
DTXSID10870852

> <dsstox_compound_id>
DTXCID50818536

> <qc_level>


> <Canonical_QSARr>
CCC1=CC=CC2C=CC=CC=21

> <InChI_Code_QSARr>
InChI=1S/C12H12/c1-2-10-7-5-8-11-6-3-4-9-12(10)11/h3-9H,2H2,1H3

> <InChI Key_QSARr>
ZMXIYERNXPIYFR-UHFFFAOYSA-N

> <Salt_Solvent>


> <Salt_Solvent_ID>
0

> <MPID>
99677

> <KocRef>
SRC 1992 NonPolar Val

> <LogKOC>
3.78

> <Tr_1_Tst_0>
0

$$$$
100404
  Mrv171c012251911022D          

 12 12  0  0  0  0            999 V2000
    0.0000   -1.3062    0.0000 C   0  0  0  0  0  0  0  0  0  0  0  0
   -0.7145   -0.8937    0.0000 C   0  0  0  0  0  0  0  0  0  0  0  0
   -1.4289   -1.3063    0.0000 C   0  0  0  0  0  0  0  0  0  0  0  0
   -1.4289   -2.1313    0.0000 C   0  0  0  0  0  0  0  0  0  0  0  0
   -0.7145   -2.5438    0.0000 C   0  0  0  0  0  0  0  0  0  0  0  0
    0.0000   -2.1312    0.0000 C   0  0  0  0  0  0  0  0  0  0  0  0
    0.7145   -0.8937    0.0000 N   0  0  0  0  0  0  0  0  0  0  0  0
    1.4290   -1.3062    0.0000 C   0  0  0  0  0  0  0  0  0  0  0  0
    1.4290   -2.1312    0.0000 O   0  0  0  0  0  0  0  0  0  0  0  0
    2.1434   -0.8937    0.0000 C   0  0  0  0  0  0  0  0  0  0  0  0
    2.8579   -1.3062    0.0000 C   0  0  0  0  0  0  0  0  0  0  0  0
    3.5724   -0.8937    0.0000 C   0  0  0  0  0  0  0  0  0  0  0  0
  2  1  1  0  0  0  0
  3  2  2  0  0  0  0
  4  3  1  0  0  0  0
  5  4  2  0  0  0  0
  6  5  1  0  0  0  0
  1  6  2  0  0  0  0
  1  7  1  0  0  0  0
  7  8  1  0  0  0  0
  8  9  2  0  0  0  0
  8 10  1  0  0  0  0
 10 11  1  0  0  0  0
 11 12  1  0  0  0  0
M  END
> <ChemID>
100404

> <CAS>
1129-50-6

> <Original_SMILES>
CCCC(=O)Nc1ccccc1

> <preferred_name>
Butanamide, N-phenyl-

> <dsstox_substance_id>
DTXSID9061544

> <dsstox_compound_id>
DTXCID8033308

> <qc_level>
Public_High

> <Canonical_QSARr>
CCCC(=O)NC1C=CC=CC=1

> <InChI_Code_QSARr>
InChI=1S/C10H13NO/c1-2-6-10(12)11-9-7-4-3-5-8-9/h3-5,7-8H,2,6H2,1H3,(H,11,12)

> <InChI Key_QSARr>
UHANVDZCDNSILX-UHFFFAOYSA-N

> <Salt_Solvent>


> <Salt_Solvent_ID>
0

> <MPID>
99678

> <KocRef>
Schuurmann-Main

> <LogKOC>
1.71

> <Tr_1_Tst_0>
1

$$$$
100405
  Mrv171c012251911022D          

 14 14  0  0  0  0            999 V2000
    3.0417   -1.3774    0.0000 C   0  0  0  0  0  0  0  0  0  0  0  0
    2.2167   -1.3774    0.0000 N   0  0  0  0  0  0  0  0  0  0  0  0
    1.8042   -0.6629    0.0000 C   0  0  0  0  0  0  0  0  0  0  0  0
    2.2167    0.0516    0.0000 C   0  0  0  0  0  0  0  0  0  0  0  0
    1.8042   -2.0919    0.0000 C   0  0  0  0  0  0  0  0  0  0  0  0
    0.9792   -2.0919    0.0000 C   0  0  0  0  0  0  0  0  0  0  0  0
    0.5667   -2.8063    0.0000 C   0  0  0  0  0  0  0  0  0  0  0  0
    0.9792   -3.5208    0.0000 C   0  0  0  0  0  0  0  0  0  0  0  0
    1.8042   -3.5208    0.0000 C   0  0  0  0  0  0  0  0  0  0  0  0
    2.2167   -2.8063    0.0000 C   0  0  0  0  0  0  0  0  0  0  0  0
    3.4542   -0.6629    0.0000 S   0  0  0  0  0  0  0  0  0  0  0  0
    4.2792   -0.6629    0.0000 C   0  0  0  0  0  0  0  0  0  0  0  0
    4.6917    0.0516    0.0000 C   0  0  0  0  0  0  0  0  0  0  0  0
    3.4542   -2.0919    0.0000 O   0  0  0  0  0  0  0  0  0  0  0  0
  1  2  1  0  0  0  0
  2  3  1  0  0  0  0
  3  4  1  0  0  0  0
  2  5  1  0  0  0  0
  6  5  1  0  0  0  0
  7  6  1  0  0  0  0
  8  7  1  0  0  0  0
  9  8  1  0  0  0  0
 10  9  1  0  0  0  0
  5 10  1  0  0  0  0
  1 11  1  0  0  0  0
 11 12  1  0  0  0  0
 12 13  1  0  0  0  0
  1 14  2  0  0  0  0
M  END
> <ChemID>
100405

> <CAS>
1134-23-2

> <Original_SMILES>
CCN(C1CCCCC1)C(=O)SCC

> <preferred_name>
Cycloate

> <dsstox_substance_id>
DTXSID6032356

> <dsstox_compound_id>
DTXCID4012356

> <qc_level>
DSSTox_Low

> <Canonical_QSARr>
CCN(C1CCCCC1)C(=O)SCC

> <InChI_Code_QSARr>
InChI=1S/C11H21NOS/c1-3-12(11(13)14-4-2)10-8-6-5-7-9-10/h10H,3-9H2,1-2H3

> <InChI Key_QSARr>
DFCAFRGABIXSDS-UHFFFAOYSA-N

> <Salt_Solvent>


> <Salt_Solvent_ID>
0

> <MPID>
99679

> <KocRef>
Schuurmann-Main

> <LogKOC>
2.54

> <Tr_1_Tst_0>
1

$$$$
100406
  Mrv171c012251911022D          

 10 10  0  0  0  0            999 V2000
    1.6461   -1.7710    0.0000 C   0  0  0  0  0  0  0  0  0  0  0  0
    0.9317   -1.3585    0.0000 C   0  0  0  0  0  0  0  0  0  0  0  0
    0.9317   -0.5335    0.0000 Cl  0  0  0  0  0  0  0  0  0  0  0  0
    0.2172   -1.7710    0.0000 C   0  0  0  0  0  0  0  0  0  0  0  0
    0.2172   -2.5960    0.0000 C   0  0  0  0  0  0  0  0  0  0  0  0
    0.9317   -3.0085    0.0000 C   0  0  0  0  0  0  0  0  0  0  0  0
    1.6461   -2.5960    0.0000 C   0  0  0  0  0  0  0  0  0  0  0  0
    2.3606   -3.0085    0.0000 Cl  0  0  0  0  0  0  0  0  0  0  0  0
    2.3606   -1.3585    0.0000 C   0  0  0  0  0  0  0  0  0  0  0  0
    3.0751   -0.9460    0.0000 N   0  0  0  0  0  0  0  0  0  0  0  0
  2  1  2  0  0  0  0
  2  3  1  0  0  0  0
  4  2  1  0  0  0  0
  5  4  2  0  0  0  0
  6  5  1  0  0  0  0
  7  6  2  0  0  0  0
  1  7  1  0  0  0  0
  7  8  1  0  0  0  0
  1  9  1  0  0  0  0
  9 10  3  0  0  0  0
M  END
> <ChemID>
100406

> <CAS>
1194-65-6

> <Original_SMILES>
N#Cc1c(Cl)cccc1Cl

> <preferred_name>
Dichlobenil

> <dsstox_substance_id>
DTXSID5032365

> <dsstox_compound_id>
DTXCID3012365

> <qc_level>
DSSTox_Low

> <Canonical_QSARr>
N#CC1C(Cl)=CC=CC=1Cl

> <InChI_Code_QSARr>
InChI=1S/C7H3Cl2N/c8-6-2-1-3-7(9)5(6)4-10/h1-3H

> <InChI Key_QSARr>
YOYAIZYFCNQIRF-UHFFFAOYSA-N

> <Salt_Solvent>


> <Salt_Solvent_ID>
0

> <MPID>
99680

> <KocRef>
Schuurm-SRC-USDA

> <LogKOC>
2.5

> <Tr_1_Tst_0>
1

$$$$
100407
  Mrv171c012251911022D          

  6  7  0  0  0  0            999 V2000
    1.1228   -0.8234    0.0000 C   0  0  0  0  0  0  0  0  0  0  0  0
    1.1228    0.0016    0.0000 C   0  0  0  0  0  0  0  0  0  0  0  0
    1.5353    0.7161    0.0000 O   0  0  0  0  0  0  0  0  0  0  0  0
    0.7103    0.7161    0.0000 C   0  0  0  0  0  0  0  0  0  0  0  0
    0.7103   -1.5379    0.0000 O   0  0  0  0  0  0  0  0  0  0  0  0
    1.5353   -1.5379    0.0000 C   0  0  0  0  0  0  0  0  0  0  0  0
  1  2  1  0  0  0  0
  3  2  1  0  0  0  0
  4  3  1  0  0  0  0
  2  4  1  0  0  0  0
  5  1  1  0  0  0  0
  6  5  1  0  0  0  0
  1  6  1  0  0  0  0
M  END
> <ChemID>
100407

> <CAS>
1464-53-5

> <Original_SMILES>
C1OC1C1CO1

> <preferred_name>
2,2'-Bioxirane

> <dsstox_substance_id>
DTXSID0041307

> <dsstox_compound_id>
DTXCID90455

> <qc_level>
DSSTox_High

> <Canonical_QSARr>
C1OC1C1CO1

> <InChI_Code_QSARr>
InChI=1S/C4H6O2/c1-3(5-1)4-2-6-4/h3-4H,1-2H2

> <InChI Key_QSARr>
ZFIVKAOQEXOYFY-UHFFFAOYSA-N

> <Salt_Solvent>


> <Salt_Solvent_ID>
0

> <MPID>
99681

> <KocRef>
Schuurmann-Main

> <LogKOC>
0.4

> <Tr_1_Tst_0>
0

$$$$
100408
  Mrv171c012251911022D          

 16 18  0  0  0  0            999 V2000
    4.2848   -1.1859    0.0000 C   0  0  0  0  0  0  0  0  0  0  0  0
    3.5703   -0.7734    0.0000 C   0  0  0  0  0  0  0  0  0  0  0  0
    2.8559   -1.1859    0.0000 C   0  0  0  0  0  0  0  0  0  0  0  0
    2.8559   -2.0109    0.0000 C   0  0  0  0  0  0  0  0  0  0  0  0
    2.1414   -2.4234    0.0000 C   0  0  0  0  0  0  0  0  0  0  0  0
    1.4269   -2.0109    0.0000 C   0  0  0  0  0  0  0  0  0  0  0  0
    1.4269   -1.1859    0.0000 C   0  0  0  0  0  0  0  0  0  0  0  0
    2.1414   -0.7734    0.0000 C   0  0  0  0  0  0  0  0  0  0  0  0
    0.7124   -0.7734    0.0000 C   0  0  0  0  0  0  0  0  0  0  0  0
   -0.0020   -1.1859    0.0000 C   0  0  0  0  0  0  0  0  0  0  0  0
   -0.0020   -2.0109    0.0000 C   0  0  0  0  0  0  0  0  0  0  0  0
    0.7124   -2.4234    0.0000 C   0  0  0  0  0  0  0  0  0  0  0  0
    2.1414   -3.2484    0.0000 C   0  0  0  0  0  0  0  0  0  0  0  0
    1.4269   -3.6609    0.0000 O   0  0  0  0  0  0  0  0  0  0  0  0
    3.5703   -2.4234    0.0000 C   0  0  0  0  0  0  0  0  0  0  0  0
    4.2848   -2.0109    0.0000 C   0  0  0  0  0  0  0  0  0  0  0  0
  2  1  2  0  0  0  0
  3  2  1  0  0  0  0
  3  4  1  0  0  0  0
  4  5  2  0  0  0  0
  5  6  1  0  0  0  0
  7  6  1  0  0  0  0
  7  8  1  0  0  0  0
  8  3  2  0  0  0  0
  9  7  2  0  0  0  0
 10  9  1  0  0  0  0
 11 10  2  0  0  0  0
 12 11  1  0  0  0  0
  6 12  2  0  0  0  0
  5 13  1  0  0  0  0
 13 14  1  0  0  0  0
 15  4  1  0  0  0  0
 16 15  2  0  0  0  0
  1 16  1  0  0  0  0
M  END
> <ChemID>
100408

> <CAS>
1468-95-7

> <Original_SMILES>
OCc1c2ccccc2cc2ccccc21

> <preferred_name>
9-Anthracenemethanol

> <dsstox_substance_id>
DTXSID1049221

> <dsstox_compound_id>
DTXCID3029077

> <qc_level>
DSSTox_Low

> <Canonical_QSARr>
OCC1C2=CC=CC=C2C=C2C=CC=CC2=1

> <InChI_Code_QSARr>
InChI=1S/C15H12O/c16-10-15-13-7-3-1-5-11(13)9-12-6-2-4-8-14(12)15/h1-9,16H,10H2

> <InChI Key_QSARr>
JCJNNHDZTLRSGN-UHFFFAOYSA-N

> <Salt_Solvent>


> <Salt_Solvent_ID>
0

> <MPID>
99682

> <KocRef>
Schuurmann-Main

> <LogKOC>
3.61

> <Tr_1_Tst_0>
1

$$$$
100409
  Mrv171c012251911022D          

 10 11  0  0  0  0            999 V2000
    0.1594   -0.6638    0.0000 C   0  0  0  0  0  0  0  0  0  0  0  0
    0.6444    0.0036    0.0000 C   0  0  0  0  0  0  0  0  0  0  0  0
    1.4290   -0.2513    0.0000 C   0  0  0  0  0  0  0  0  0  0  0  0
    2.1435    0.1612    0.0000 C   0  0  0  0  0  0  0  0  0  0  0  0
    2.8579   -0.2513    0.0000 C   0  0  0  0  0  0  0  0  0  0  0  0
    2.8579   -1.0763    0.0000 C   0  0  0  0  0  0  0  0  0  0  0  0
    3.5724   -1.4888    0.0000 O   0  0  0  0  0  0  0  0  0  0  0  0
    2.1435   -1.4888    0.0000 C   0  0  0  0  0  0  0  0  0  0  0  0
    1.4290   -1.0763    0.0000 C   0  0  0  0  0  0  0  0  0  0  0  0
    0.6444   -1.3313    0.0000 C   0  0  0  0  0  0  0  0  0  0  0  0
  2  1  1  0  0  0  0
  3  2  1  0  0  0  0
  3  4  1  0  0  0  0
  4  5  2  0  0  0  0
  5  6  1  0  0  0  0
  6  7  1  0  0  0  0
  6  8  2  0  0  0  0
  8  9  1  0  0  0  0
  9  3  2  0  0  0  0
 10  9  1  0  0  0  0
  1 10  1  0  0  0  0
M  END
> <ChemID>
100409

> <CAS>
1470-94-6

> <Original_SMILES>
Oc1cc2CCCc2cc1

> <preferred_name>
Indan-5-ol

> <dsstox_substance_id>
DTXSID0051732

> <dsstox_compound_id>
DTXCID6030287

> <qc_level>
DSSTox_Low

> <Canonical_QSARr>
OC1=CC2CCCC=2C=C1

> <InChI_Code_QSARr>
InChI=1S/C9H10O/c10-9-5-4-7-2-1-3-8(7)6-9/h4-6,10H,1-3H2

> <InChI Key_QSARr>
PEHSSTUGJUBZBI-UHFFFAOYSA-N

> <Salt_Solvent>


> <Salt_Solvent_ID>
0

> <MPID>
99683

> <KocRef>
SRC 1992 NonPolar Val

> <LogKOC>
3.4

> <Tr_1_Tst_0>
1

$$$$
100410
  Mrv171c012251911022D          

 14 14  0  0  0  0            999 V2000
    3.9976    0.0884    0.0000 O   0  0  0  0  0  0  0  0  0  0  0  0
    3.2831   -0.3241    0.0000 C   0  0  0  0  0  0  0  0  0  0  0  0
    2.5686    0.0884    0.0000 N   0  0  0  0  0  0  0  0  0  0  0  0
    1.8542   -0.3241    0.0000 C   0  0  0  0  0  0  0  0  0  0  0  0
    1.1397    0.0884    0.0000 C   0  0  0  0  0  0  0  0  0  0  0  0
    0.4252   -0.3241    0.0000 C   0  0  0  0  0  0  0  0  0  0  0  0
    0.4252   -1.1491    0.0000 C   0  0  0  0  0  0  0  0  0  0  0  0
    1.1397   -1.5616    0.0000 C   0  0  0  0  0  0  0  0  0  0  0  0
    1.8542   -1.1491    0.0000 C   0  0  0  0  0  0  0  0  0  0  0  0
    3.2831   -1.1491    0.0000 O   0  0  0  0  0  0  0  0  0  0  0  0
    4.7120   -0.3241    0.0000 C   0  0  0  0  0  0  0  0  0  0  0  0
    5.4265    0.0884    0.0000 C   0  0  0  0  0  0  0  0  0  0  0  0
    6.1410   -0.3241    0.0000 C   0  0  0  0  0  0  0  0  0  0  0  0
    6.8555    0.0884    0.0000 C   0  0  0  0  0  0  0  0  0  0  0  0
  1  2  1  0  0  0  0
  2  3  1  0  0  0  0
  3  4  1  0  0  0  0
  5  4  1  0  0  0  0
  6  5  2  0  0  0  0
  7  6  1  0  0  0  0
  8  7  2  0  0  0  0
  9  8  1  0  0  0  0
  4  9  2  0  0  0  0
  2 10  2  0  0  0  0
  1 11  1  0  0  0  0
 11 12  1  0  0  0  0
 12 13  1  0  0  0  0
 13 14  1  0  0  0  0
M  END
> <ChemID>
100410

> <CAS>
1538-74-5

> <Original_SMILES>
CCCCOC(=O)Nc1ccccc1

> <preferred_name>
Phenylcarbamic acid butyl ester

> <dsstox_substance_id>
DTXSID60165422

> <dsstox_compound_id>
DTXCID8087913

> <qc_level>
Public_Medium

> <Canonical_QSARr>
CCCCOC(=O)NC1C=CC=CC=1

> <InChI_Code_QSARr>
InChI=1S/C11H15NO2/c1-2-3-9-14-11(13)12-10-7-5-4-6-8-10/h4-8H,2-3,9H2,1H3,(H,12,13)

> <InChI Key_QSARr>
ZTIMKJROOYMUMU-UHFFFAOYSA-N

> <Salt_Solvent>


> <Salt_Solvent_ID>
0

> <MPID>
99684

> <KocRef>
Schuurmann-Main

> <LogKOC>
2.26

> <Tr_1_Tst_0>
1

$$$$
100411
  Mrv171c012251911022D          

 16 17  0  0  0  0            999 V2000
    1.2851   -1.3903    0.0000 O   0  0  0  0  0  0  0  0  0  0  0  0
    1.9996   -0.9778    0.0000 C   0  0  0  0  0  0  0  0  0  0  0  0
    2.7140   -1.3903    0.0000 O   0  0  0  0  0  0  0  0  0  0  0  0
    2.7140   -2.2153    0.0000 C   0  0  0  0  0  0  0  0  0  0  0  0
    1.9996   -2.6278    0.0000 C   0  0  0  0  0  0  0  0  0  0  0  0
    1.2149   -2.3728    0.0000 O   0  0  0  0  0  0  0  0  0  0  0  0
    0.7300   -3.0403    0.0000 C   0  0  0  0  0  0  0  0  0  0  0  0
    0.1169   -2.4882    0.0000 C   0  0  0  0  0  0  0  0  0  0  0  0
    0.1169   -3.5923    0.0000 C   0  0  0  0  0  0  0  0  0  0  0  0
    1.2149   -3.7077    0.0000 C   0  0  0  0  0  0  0  0  0  0  0  0
    1.9996   -3.4528    0.0000 C   0  0  0  0  0  0  0  0  0  0  0  0
    2.7140   -3.8653    0.0000 C   0  0  0  0  0  0  0  0  0  0  0  0
    3.4285   -3.4528    0.0000 C   0  0  0  0  0  0  0  0  0  0  0  0
    3.4285   -2.6278    0.0000 C   0  0  0  0  0  0  0  0  0  0  0  0
    1.9996   -0.1528    0.0000 N   0  0  0  0  0  0  0  0  0  0  0  0
    1.2851    0.2597    0.0000 C   0  0  0  0  0  0  0  0  0  0  0  0
  1  2  2  0  0  0  0
  2  3  1  0  0  0  0
  3  4  1  0  0  0  0
  5  4  1  0  0  0  0
  5  6  1  0  0  0  0
  6  7  1  0  0  0  0
  7  8  1  0  0  0  0
  7  9  1  0  0  0  0
  7 10  1  0  0  0  0
 10 11  1  0  0  0  0
 11  5  2  0  0  0  0
 12 11  1  0  0  0  0
 13 12  2  0  0  0  0
 14 13  1  0  0  0  0
  4 14  2  0  0  0  0
  2 15  1  0  0  0  0
 15 16  1  0  0  0  0
M  END
> <ChemID>
100411

> <CAS>
1563-66-2

> <Original_SMILES>
CC1(C)Cc2cccc(OC(=O)NC)c2O1

> <preferred_name>
Carbofuran

> <dsstox_substance_id>
DTXSID9020249

> <dsstox_compound_id>
DTXCID70249

> <qc_level>
DSSTox_Low

> <Canonical_QSARr>
CNC(=O)OC1=CC=CC2CC(C)(C)OC1=2

> <InChI_Code_QSARr>
InChI=1S/C12H15NO3/c1-12(2)7-8-5-4-6-9(10(8)16-12)15-11(14)13-3/h4-6H,7H2,1-3H3,(H,13,14)

> <InChI Key_QSARr>
DUEPRVBVGDRKAG-UHFFFAOYSA-N

> <Salt_Solvent>


> <Salt_Solvent_ID>
0

> <MPID>
99685

> <KocRef>
Schuurmann-Main

> <LogKOC>
1.75

> <Tr_1_Tst_0>
0

$$$$
100412
  Mrv171c012251911022D          

 23 23  0  0  0  0            999 V2000
    1.3684   -1.0258    0.0000 O   0  0  0  0  0  0  0  0  0  0  0  0
    1.3684   -1.8508    0.0000 N   0  3  0  0  0  0  0  0  0  0  0  0
    0.6539   -2.2633    0.0000 O   0  5  0  0  0  0  0  0  0  0  0  0
    2.0828   -2.2633    0.0000 C   0  0  0  0  0  0  0  0  0  0  0  0
    2.0828   -3.0883    0.0000 C   0  0  0  0  0  0  0  0  0  0  0  0
    2.7973   -3.5008    0.0000 C   0  0  0  0  0  0  0  0  0  0  0  0
    2.7973   -4.3258    0.0000 C   0  0  0  0  0  0  0  0  0  0  0  0
    2.7973   -5.1508    0.0000 F   0  0  0  0  0  0  0  0  0  0  0  0
    3.6223   -4.3258    0.0000 F   0  0  0  0  0  0  0  0  0  0  0  0
    1.9723   -4.3258    0.0000 F   0  0  0  0  0  0  0  0  0  0  0  0
    3.5118   -3.0883    0.0000 C   0  0  0  0  0  0  0  0  0  0  0  0
    3.5118   -2.2633    0.0000 C   0  0  0  0  0  0  0  0  0  0  0  0
    4.2263   -1.8508    0.0000 N   0  3  0  0  0  0  0  0  0  0  0  0
    4.2263   -1.0258    0.0000 O   0  5  0  0  0  0  0  0  0  0  0  0
    4.9407   -2.2633    0.0000 O   0  0  0  0  0  0  0  0  0  0  0  0
    2.7973   -1.8508    0.0000 C   0  0  0  0  0  0  0  0  0  0  0  0
    2.7973   -1.0258    0.0000 N   0  0  0  0  0  0  0  0  0  0  0  0
    2.0828   -0.6133    0.0000 C   0  0  0  0  0  0  0  0  0  0  0  0
    2.0828    0.2117    0.0000 C   0  0  0  0  0  0  0  0  0  0  0  0
    1.3684    0.6242    0.0000 C   0  0  0  0  0  0  0  0  0  0  0  0
    3.5118   -0.6133    0.0000 C   0  0  0  0  0  0  0  0  0  0  0  0
    3.5118    0.2117    0.0000 C   0  0  0  0  0  0  0  0  0  0  0  0
    4.2263    0.6242    0.0000 C   0  0  0  0  0  0  0  0  0  0  0  0
  1  2  2  0  0  0  0
  2  3  1  0  0  0  0
  2  4  1  0  0  0  0
  5  4  1  0  0  0  0
  6  5  2  0  0  0  0
  6  7  1  0  0  0  0
  7  8  1  0  0  0  0
  7  9  1  0  0  0  0
  7 10  1  0  0  0  0
 11  6  1  0  0  0  0
 12 11  2  0  0  0  0
 12 13  1  0  0  0  0
 13 14  1  0  0  0  0
 13 15  2  0  0  0  0
 16 12  1  0  0  0  0
  4 16  2  0  0  0  0
 16 17  1  0  0  0  0
 17 18  1  0  0  0  0
 18 19  1  0  0  0  0
 19 20  1  0  0  0  0
 17 21  1  0  0  0  0
 21 22  1  0  0  0  0
 22 23  1  0  0  0  0
M  CHG  4   2   1   3  -1  13   1  14  -1
M  END
> <ChemID>
100412

> <CAS>
1582-09-8

> <Original_SMILES>
CCCN(CCC)c1c(cc(cc1[N+]([O-])=O)C(F)(F)F)[N+]([O-])=O

> <preferred_name>
Trifluralin

> <dsstox_substance_id>
DTXSID4021395

> <dsstox_compound_id>
DTXCID401395

> <qc_level>
DSSTox_Low

> <Canonical_QSARr>
CCCN(CCC)C1C(=CC(=CC=1[N+]([O-])=O)C(F)(F)F)[N+]([O-])=O

> <InChI_Code_QSARr>
InChI=1S/C13H16F3N3O4/c1-3-5-17(6-4-2)12-10(18(20)21)7-9(13(14,15)16)8-11(12)19(22)23/h7-8H,3-6H2,1-2H3

> <InChI Key_QSARr>
ZSDSQXJSNMTJDA-UHFFFAOYSA-N

> <Salt_Solvent>


> <Salt_Solvent_ID>
0

> <MPID>
99686

> <KocRef>
Schuurmann-SRC-USDA

> <LogKOC>
4.2

> <Tr_1_Tst_0>
1

$$$$
100413
  Mrv171c012251911022D          

 11 10  0  0  0  0            999 V2000
    2.1454   -0.1873    0.0000 O   0  0  0  0  0  0  0  0  0  0  0  0
    2.1454   -1.0123    0.0000 C   0  0  0  0  0  0  0  0  0  0  0  0
    1.4309   -1.4248    0.0000 N   0  0  0  0  0  0  0  0  0  0  0  0
    0.7165   -1.0123    0.0000 N   0  0  0  0  0  0  0  0  0  0  0  0
    0.0020   -1.4248    0.0000 C   0  0  0  0  0  0  0  0  0  0  0  0
    0.7165   -0.1873    0.0000 C   0  0  0  0  0  0  0  0  0  0  0  0
    2.8599   -1.4248    0.0000 C   0  0  0  0  0  0  0  0  0  0  0  0
    3.5744   -1.0123    0.0000 C   0  0  0  0  0  0  0  0  0  0  0  0
    4.2888   -1.4248    0.0000 C   0  0  0  0  0  0  0  0  0  0  0  0
    5.0033   -1.0123    0.0000 O   0  0  0  0  0  0  0  0  0  0  0  0
    4.2888   -2.2498    0.0000 O   0  0  0  0  0  0  0  0  0  0  0  0
  1  2  2  0  0  0  0
  2  3  1  0  0  0  0
  3  4  1  0  0  0  0
  4  5  1  0  0  0  0
  4  6  1  0  0  0  0
  2  7  1  0  0  0  0
  7  8  1  0  0  0  0
  8  9  1  0  0  0  0
  9 10  1  0  0  0  0
  9 11  2  0  0  0  0
M  END
> <ChemID>
100413

> <CAS>
1596-84-5

> <Original_SMILES>
CN(C)NC(=O)CCC(O)=O

> <preferred_name>
Daminozide

> <dsstox_substance_id>
DTXSID9020370

> <dsstox_compound_id>
DTXCID70370

> <qc_level>
DSSTox_Low

> <Canonical_QSARr>
CN(C)NC(=O)CCC(O)=O

> <InChI_Code_QSARr>
InChI=1S/C6H12N2O3/c1-8(2)7-5(9)3-4-6(10)11/h3-4H2,1-2H3,(H,7,9)(H,10,11)

> <InChI Key_QSARr>
NOQGZXFMHARMLW-UHFFFAOYSA-N

> <Salt_Solvent>


> <Salt_Solvent_ID>
0

> <MPID>
99687

> <KocRef>
USDA Pest Prop DB

> <LogKOC>
0.95

> <Tr_1_Tst_0>
1

$$$$
100414
  Mrv171c012251911022D          

 15 15  0  0  0  0            999 V2000
    4.8147   -3.9537    0.0000 C   0  0  0  0  0  0  0  0  0  0  0  0
    4.1002   -3.5412    0.0000 C   0  0  0  0  0  0  0  0  0  0  0  0
    4.1002   -2.7162    0.0000 N   0  0  0  0  0  0  0  0  0  0  0  0
    3.3858   -2.3037    0.0000 C   0  0  0  0  0  0  0  0  0  0  0  0
    3.3858   -1.4787    0.0000 N   0  0  0  0  0  0  0  0  0  0  0  0
    2.6713   -1.0662    0.0000 C   0  0  0  0  0  0  0  0  0  0  0  0
    2.6713   -0.2412    0.0000 N   0  0  0  0  0  0  0  0  0  0  0  0
    3.3858    0.1713    0.0000 C   0  0  0  0  0  0  0  0  0  0  0  0
    3.3858    0.9963    0.0000 C   0  0  0  0  0  0  0  0  0  0  0  0
    1.9568   -1.4787    0.0000 N   0  0  0  0  0  0  0  0  0  0  0  0
    1.9568   -2.3037    0.0000 C   0  0  0  0  0  0  0  0  0  0  0  0
    1.2423   -2.7162    0.0000 O   0  0  0  0  0  0  0  0  0  0  0  0
    1.2423   -3.5412    0.0000 C   0  0  0  0  0  0  0  0  0  0  0  0
    2.6713   -2.7162    0.0000 N   0  0  0  0  0  0  0  0  0  0  0  0
    3.3858   -3.9537    0.0000 C   0  0  0  0  0  0  0  0  0  0  0  0
  1  2  1  0  0  0  0
  2  3  1  0  0  0  0
  3  4  1  0  0  0  0
  5  4  1  0  0  0  0
  6  5  2  0  0  0  0
  6  7  1  0  0  0  0
  7  8  1  0  0  0  0
  8  9  1  0  0  0  0
 10  6  1  0  0  0  0
 11 10  2  0  0  0  0
 11 12  1  0  0  0  0
 12 13  1  0  0  0  0
 14 11  1  0  0  0  0
  4 14  2  0  0  0  0
  2 15  1  0  0  0  0
M  END
> <ChemID>
100414

> <CAS>
1610-17-9

> <Original_SMILES>
CCNc1[n]c(NC(C)C)[n]c([n]1)OC

> <preferred_name>
Atraton

> <dsstox_substance_id>
DTXSID0037493

> <dsstox_compound_id>
DTXCID8017493

> <qc_level>
DSSTox_Low

> <Canonical_QSARr>
CCNC1N=C(N=C(NC(C)C)N=1)OC

> <InChI_Code_QSARr>
InChI=1S/C9H17N5O/c1-5-10-7-12-8(11-6(2)3)14-9(13-7)15-4/h6H,5H2,1-4H3,(H2,10,11,12,13,14)

> <InChI Key_QSARr>
PXWUKZGIHQRDHL-UHFFFAOYSA-N

> <Salt_Solvent>


> <Salt_Solvent_ID>
0

> <MPID>
99688

> <KocRef>
Schuurmann-Main

> <LogKOC>
2.64

> <Tr_1_Tst_0>
1

$$$$
100415
  Mrv171c012251911022D          

 16 16  0  0  0  0            999 V2000
    2.8426   -2.8892    0.0000 C   0  0  0  0  0  0  0  0  0  0  0  0
    3.5571   -3.3017    0.0000 N   0  0  0  0  0  0  0  0  0  0  0  0
    4.2716   -2.8892    0.0000 C   0  0  0  0  0  0  0  0  0  0  0  0
    4.9861   -3.3017    0.0000 C   0  0  0  0  0  0  0  0  0  0  0  0
    4.2716   -2.0642    0.0000 C   0  0  0  0  0  0  0  0  0  0  0  0
    2.8426   -2.0642    0.0000 N   0  0  0  0  0  0  0  0  0  0  0  0
    2.1282   -1.6517    0.0000 C   0  0  0  0  0  0  0  0  0  0  0  0
    2.1282   -0.8267    0.0000 O   0  0  0  0  0  0  0  0  0  0  0  0
    1.4137   -0.4142    0.0000 C   0  0  0  0  0  0  0  0  0  0  0  0
    1.4137   -2.0642    0.0000 N   0  0  0  0  0  0  0  0  0  0  0  0
    1.4137   -2.8892    0.0000 C   0  0  0  0  0  0  0  0  0  0  0  0
    0.6992   -3.3017    0.0000 N   0  0  0  0  0  0  0  0  0  0  0  0
   -0.0152   -2.8892    0.0000 C   0  0  0  0  0  0  0  0  0  0  0  0
   -0.7297   -3.3017    0.0000 C   0  0  0  0  0  0  0  0  0  0  0  0
   -0.0152   -2.0642    0.0000 C   0  0  0  0  0  0  0  0  0  0  0  0
    2.1282   -3.3017    0.0000 N   0  0  0  0  0  0  0  0  0  0  0  0
  1  2  1  0  0  0  0
  2  3  1  0  0  0  0
  3  4  1  0  0  0  0
  3  5  1  0  0  0  0
  6  1  2  0  0  0  0
  7  6  1  0  0  0  0
  7  8  1  0  0  0  0
  8  9  1  0  0  0  0
 10  7  2  0  0  0  0
 11 10  1  0  0  0  0
 11 12  1  0  0  0  0
 12 13  1  0  0  0  0
 13 14  1  0  0  0  0
 13 15  1  0  0  0  0
 16 11  2  0  0  0  0
  1 16  1  0  0  0  0
M  END
> <ChemID>
100415

> <CAS>
1610-18-0

> <Original_SMILES>
COc1[n]c(NC(C)C)[n]c(NC(C)C)[n]1

> <preferred_name>
Prometon

> <dsstox_substance_id>
DTXSID6022341

> <dsstox_compound_id>
DTXCID402341

> <qc_level>
DSSTox_Low

> <Canonical_QSARr>
COC1N=C(NC(C)C)N=C(NC(C)C)N=1

> <InChI_Code_QSARr>
InChI=1S/C10H19N5O/c1-6(2)11-8-13-9(12-7(3)4)15-10(14-8)16-5/h6-7H,1-5H3,(H2,11,12,13,14,15)

> <InChI Key_QSARr>
ISEUFVQQFVOBCY-UHFFFAOYSA-N

> <Salt_Solvent>


> <Salt_Solvent_ID>
0

> <MPID>
99689

> <KocRef>
Schuurmann-Main

> <LogKOC>
2.6

> <Tr_1_Tst_0>
0

$$$$
100416
  Mrv171c012251911022D          

  6  5  0  0  0  0            999 V2000
    1.4307   -0.4119    0.0000 N   0  0  0  0  0  0  0  0  0  0  0  0
    0.7163    0.0006    0.0000 C   0  0  0  0  0  0  0  0  0  0  0  0
    0.0018   -0.4119    0.0000 C   0  0  0  0  0  0  0  0  0  0  0  0
    2.1452    0.0006    0.0000 N   0  0  0  0  0  0  0  0  0  0  0  0
    2.8597   -0.4119    0.0000 C   0  0  0  0  0  0  0  0  0  0  0  0
    3.5741    0.0006    0.0000 C   0  0  0  0  0  0  0  0  0  0  0  0
  1  2  1  0  0  0  0
  2  3  1  0  0  0  0
  1  4  1  0  0  0  0
  4  5  1  0  0  0  0
  5  6  1  0  0  0  0
M  END
> <ChemID>
100416

> <CAS>
1615-80-1

> <Original_SMILES>
CCNNCC

> <preferred_name>
1,2-Diethylhydrazine

> <dsstox_substance_id>
DTXSID1043754

> <dsstox_compound_id>
DTXCID9023754

> <qc_level>
DSSTox_Low

> <Canonical_QSARr>
CCNNCC

> <InChI_Code_QSARr>
InChI=1S/C4H12N2/c1-3-5-6-4-2/h5-6H,3-4H2,1-2H3

> <InChI Key_QSARr>
YCBOYOYVDOUXLH-UHFFFAOYSA-N

> <Salt_Solvent>


> <Salt_Solvent_ID>
0

> <MPID>
99690

> <KocRef>
Schuurmann-Main

> <LogKOC>
1.18

> <Tr_1_Tst_0>
1

$$$$
100417
  Mrv171c012251911022D          

 13 12  0  0  0  0            999 V2000
    3.3000    1.4289    0.0000 C   0  0  0  0  0  0  0  0  0  0  0  0
    2.4750    1.4289    0.0000 N   0  0  0  0  0  0  0  0  0  0  0  0
    2.0625    0.7145    0.0000 C   0  0  0  0  0  0  0  0  0  0  0  0
    2.4750    0.0000    0.0000 O   0  0  0  0  0  0  0  0  0  0  0  0
    1.2375    0.7145    0.0000 O   0  0  0  0  0  0  0  0  0  0  0  0
    0.8250    0.0000    0.0000 N   0  0  0  0  0  0  0  0  0  0  0  0
    0.0000    0.0000    0.0000 C   0  0  0  0  0  0  0  0  0  0  0  0
   -0.4125   -0.7145    0.0000 C   0  0  0  0  0  0  0  0  0  0  0  0
   -1.1270   -0.3020    0.0000 C   0  0  0  0  0  0  0  0  0  0  0  0
    0.3020   -1.1270    0.0000 C   0  0  0  0  0  0  0  0  0  0  0  0
   -0.8250   -1.4289    0.0000 S   0  0  0  0  0  0  0  0  0  0  0  0
   -0.4125   -2.1434    0.0000 C   0  0  0  0  0  0  0  0  0  0  0  0
   -1.6500   -1.4289    0.0000 O   0  0  0  0  0  0  0  0  0  0  0  0
  1  2  1  0  0  0  0
  2  3  1  0  0  0  0
  3  4  2  0  0  0  0
  3  5  1  0  0  0  0
  6  5  1  4  0  0  0
  6  7  2  0  0  0  0
  7  8  1  0  0  0  0
  8  9  1  0  0  0  0
  8 10  1  0  0  0  0
  8 11  1  0  0  0  0
 11 12  1  0  0  0  0
 11 13  2  0  0  0  0
M  END
> <ChemID>
100417

> <CAS>
1646-87-3

> <Original_SMILES>
CNC(=O)O/N=C/C(C)(C)S(C)=O

> <preferred_name>
Aldicarb sulfoxide

> <dsstox_substance_id>
DTXSID1033161

> <dsstox_compound_id>
DTXCID9013161

> <qc_level>
DSSTox_Low

> <Canonical_QSARr>
CNC(=O)ON=CC(C)(C)S(C)=O

> <InChI_Code_QSARr>
InChI=1S/C7H14N2O3S/c1-7(2,13(4)11)5-9-12-6(10)8-3/h5H,1-4H3,(H,8,10)

> <InChI Key_QSARr>
BXPMAGSOWXBZHS-UHFFFAOYSA-N

> <Salt_Solvent>


> <Salt_Solvent_ID>
0

> <MPID>
99691

> <KocRef>
Schuurmann-Main

> <LogKOC>
0.56

> <Tr_1_Tst_0>
1

$$$$
100418
  Mrv171c012251911022D          

 14 13  0  0  0  0            999 V2000
    3.3000    1.4289    0.0000 C   0  0  0  0  0  0  0  0  0  0  0  0
    2.4750    1.4289    0.0000 N   0  0  0  0  0  0  0  0  0  0  0  0
    2.0625    0.7145    0.0000 C   0  0  0  0  0  0  0  0  0  0  0  0
    2.4750    0.0000    0.0000 O   0  0  0  0  0  0  0  0  0  0  0  0
    1.2375    0.7145    0.0000 O   0  0  0  0  0  0  0  0  0  0  0  0
    0.8250    0.0000    0.0000 N   0  0  0  0  0  0  0  0  0  0  0  0
    0.0000    0.0000    0.0000 C   0  0  0  0  0  0  0  0  0  0  0  0
   -0.4125   -0.7145    0.0000 C   0  0  0  0  0  0  0  0  0  0  0  0
   -1.1270   -0.3020    0.0000 C   0  0  0  0  0  0  0  0  0  0  0  0
    0.3020   -1.1270    0.0000 C   0  0  0  0  0  0  0  0  0  0  0  0
   -0.8250   -1.4289    0.0000 S   0  0  0  0  0  0  0  0  0  0  0  0
   -1.2375   -2.1434    0.0000 C   0  0  0  0  0  0  0  0  0  0  0  0
   -1.5395   -1.0164    0.0000 O   0  0  0  0  0  0  0  0  0  0  0  0
   -0.1105   -1.8414    0.0000 O   0  0  0  0  0  0  0  0  0  0  0  0
  1  2  1  0  0  0  0
  2  3  1  0  0  0  0
  3  4  2  0  0  0  0
  3  5  1  0  0  0  0
  6  5  1  4  0  0  0
  6  7  2  0  0  0  0
  7  8  1  0  0  0  0
  8  9  1  0  0  0  0
  8 10  1  0  0  0  0
  8 11  1  0  0  0  0
 11 12  1  0  0  0  0
 11 13  2  0  0  0  0
 11 14  2  0  0  0  0
M  END
> <ChemID>
100418

> <CAS>
1646-88-4

> <Original_SMILES>
CNC(=O)O/N=C/C(C)(C)S(C)(=O)=O

> <preferred_name>
Aldoxycarb

> <dsstox_substance_id>
DTXSID6023862

> <dsstox_compound_id>
DTXCID503862

> <qc_level>
DSSTox_Low

> <Canonical_QSARr>
CNC(=O)ON=CC(C)(C)S(C)(=O)=O

> <InChI_Code_QSARr>
InChI=1S/C7H14N2O4S/c1-7(2,14(4,11)12)5-9-13-6(10)8-3/h5H,1-4H3,(H,8,10)

> <InChI Key_QSARr>
YRRKLBAKDXSTNC-UHFFFAOYSA-N

> <Salt_Solvent>


> <Salt_Solvent_ID>
0

> <MPID>
99692

> <KocRef>
Schuurmann-Main

> <LogKOC>
0.42

> <Tr_1_Tst_0>
1

$$$$
100419
  Mrv171c012251911022D          

 20 20  0  0  0  0            999 V2000
    3.8299   -1.6459    0.0000 C   0  0  0  0  0  0  0  0  0  0  0  0
    3.1154   -2.0584    0.0000 C   0  0  0  0  0  0  0  0  0  0  0  0
    2.4009   -1.6459    0.0000 C   0  0  0  0  0  0  0  0  0  0  0  0
    1.6865   -2.0584    0.0000 C   0  0  0  0  0  0  0  0  0  0  0  0
    0.9720   -1.6459    0.0000 C   0  0  0  0  0  0  0  0  0  0  0  0
    0.2575   -2.0584    0.0000 C   0  0  0  0  0  0  0  0  0  0  0  0
   -0.4570   -1.6459    0.0000 C   0  0  0  0  0  0  0  0  0  0  0  0
   -1.1714   -2.0584    0.0000 C   0  0  0  0  0  0  0  0  0  0  0  0
    4.5443   -2.0584    0.0000 O   0  0  0  0  0  0  0  0  0  0  0  0
    5.2588   -1.6459    0.0000 C   0  0  0  0  0  0  0  0  0  0  0  0
    5.9733   -2.0584    0.0000 C   0  0  0  0  0  0  0  0  0  0  0  0
    5.9733   -2.8834    0.0000 Br  0  0  0  0  0  0  0  0  0  0  0  0
    6.6878   -1.6459    0.0000 C   0  0  0  0  0  0  0  0  0  0  0  0
    6.6878   -0.8209    0.0000 C   0  0  0  0  0  0  0  0  0  0  0  0
    7.4022   -0.4084    0.0000 C   0  0  0  0  0  0  0  0  0  0  0  0
    8.1167    0.0041    0.0000 N   0  0  0  0  0  0  0  0  0  0  0  0
    5.9733   -0.4084    0.0000 C   0  0  0  0  0  0  0  0  0  0  0  0
    5.2588   -0.8209    0.0000 C   0  0  0  0  0  0  0  0  0  0  0  0
    4.5443   -0.4084    0.0000 Br  0  0  0  0  0  0  0  0  0  0  0  0
    3.8299   -0.8209    0.0000 O   0  0  0  0  0  0  0  0  0  0  0  0
  1  2  1  0  0  0  0
  2  3  1  0  0  0  0
  3  4  1  0  0  0  0
  4  5  1  0  0  0  0
  5  6  1  0  0  0  0
  6  7  1  0  0  0  0
  7  8  1  0  0  0  0
  1  9  1  0  0  0  0
  9 10  1  0  0  0  0
 11 10  2  0  0  0  0
 11 12  1  0  0  0  0
 13 11  1  0  0  0  0
 14 13  2  0  0  0  0
 14 15  1  0  0  0  0
 15 16  3  0  0  0  0
 17 14  1  0  0  0  0
 18 17  2  0  0  0  0
 10 18  1  0  0  0  0
 18 19  1  0  0  0  0
  1 20  2  0  0  0  0
M  END
> <ChemID>
100419

> <CAS>
1689-99-2

> <Original_SMILES>
CCCCCCCC(=O)Oc1c(Br)cc(cc1Br)C#N

> <preferred_name>
Bromoxynil octanoate

> <dsstox_substance_id>
DTXSID7023932

> <dsstox_compound_id>
DTXCID803932

> <qc_level>
DSSTox_Low

> <Canonical_QSARr>
CCCCCCCC(=O)OC1C(Br)=CC(=CC=1Br)C#N

> <InChI_Code_QSARr>
InChI=1S/C15H17Br2NO2/c1-2-3-4-5-6-7-14(19)20-15-12(16)8-11(10-18)9-13(15)17/h8-9H,2-7H2,1H3

> <InChI Key_QSARr>
DQKWXTIYGWPGOO-UHFFFAOYSA-N

> <Salt_Solvent>


> <Salt_Solvent_ID>
0

> <MPID>
99693

> <KocRef>
Schuurmann-Main

> <LogKOC>
4.0

> <Tr_1_Tst_0>
0

$$$$
100420
  Mrv171c012251911022D          

 15 16  0  0  0  0            999 V2000
    0.2455   -2.7205    0.0000 N   0  0  0  0  0  0  0  0  0  0  0  0
    0.2455   -1.8955    0.0000 C   0  0  0  0  0  0  0  0  0  0  0  0
    0.9600   -1.4830    0.0000 C   0  0  0  0  0  0  0  0  0  0  0  0
    0.9600   -0.6580    0.0000 N   0  0  0  0  0  0  0  0  0  0  0  0
    0.2455   -0.2455    0.0000 N   0  0  0  0  0  0  0  0  0  0  0  0
    0.2455    0.5795    0.0000 C   0  0  0  0  0  0  0  0  0  0  0  0
    0.9600    0.9920    0.0000 C   0  0  0  0  0  0  0  0  0  0  0  0
    0.9600    1.8170    0.0000 C   0  0  0  0  0  0  0  0  0  0  0  0
    0.2455    2.2295    0.0000 C   0  0  0  0  0  0  0  0  0  0  0  0
   -0.4689    1.8170    0.0000 C   0  0  0  0  0  0  0  0  0  0  0  0
   -0.4689    0.9920    0.0000 C   0  0  0  0  0  0  0  0  0  0  0  0
   -0.4689   -0.6580    0.0000 C   0  0  0  0  0  0  0  0  0  0  0  0
   -1.1834   -0.2455    0.0000 O   0  0  0  0  0  0  0  0  0  0  0  0
   -0.4689   -1.4830    0.0000 C   0  0  0  0  0  0  0  0  0  0  0  0
   -1.1834   -1.8955    0.0000 Cl  0  0  0  0  0  0  0  0  0  0  0  0
  1  2  2  0  0  0  0
  3  2  1  0  0  0  0
  4  3  2  0  0  0  0
  5  4  1  0  0  0  0
  5  6  1  0  0  0  0
  7  6  1  0  0  0  0
  8  7  2  0  0  0  0
  9  8  1  0  0  0  0
 10  9  2  0  0  0  0
 11 10  1  0  0  0  0
  6 11  2  0  0  0  0
 12  5  1  0  0  0  0
 12 13  2  0  0  0  0
 14 12  1  0  0  0  0
  2 14  1  0  0  0  0
 14 15  1  0  0  0  0
M  END
> <ChemID>
100420

> <CAS>
1698-60-8

> <Original_SMILES>
NC1C=NN(C(=O)C=1Cl)c1ccccc1

> <preferred_name>
Chloridazon

> <dsstox_substance_id>
DTXSID3034872

> <dsstox_compound_id>
DTXCID1014872

> <qc_level>
DSSTox_Low

> <Canonical_QSARr>
N=C1C=NN(C(=O)C1Cl)C1C=CC=CC=1

> <InChI_Code_QSARr>
InChI=1S/C10H8ClN3O/c11-9-8(12)6-13-14(10(9)15)7-4-2-1-3-5-7/h1-6,9,12H

> <InChI Key_QSARr>
KPDZMYAYZCKXQP-UHFFFAOYSA-N

> <Salt_Solvent>


> <Salt_Solvent_ID>
0

> <MPID>
99694

> <KocRef>
Schuurmann-Main

> <LogKOC>
2.08

> <Tr_1_Tst_0>
1

$$$$
100421
  Mrv171c012251911022D          

 11 11  0  0  0  0            999 V2000
    2.0743   -1.5311    0.0000 N   0  0  0  0  0  0  0  0  0  0  0  0
    1.3599   -1.1186    0.0000 C   0  0  0  0  0  0  0  0  0  0  0  0
    1.3599   -0.2936    0.0000 C   0  0  0  0  0  0  0  0  0  0  0  0
    0.6454    0.1189    0.0000 O   0  0  0  0  0  0  0  0  0  0  0  0
    2.0743    0.1189    0.0000 O   0  0  0  0  0  0  0  0  0  0  0  0
    0.6454   -1.5311    0.0000 C   0  0  0  0  0  0  0  0  0  0  0  0
   -0.0691   -1.1186    0.0000 Cl  0  0  0  0  0  0  0  0  0  0  0  0
    0.6454   -2.3561    0.0000 C   0  0  0  0  0  0  0  0  0  0  0  0
    1.3599   -2.7686    0.0000 C   0  0  0  0  0  0  0  0  0  0  0  0
    2.0743   -2.3561    0.0000 C   0  0  0  0  0  0  0  0  0  0  0  0
    2.7888   -2.7686    0.0000 Cl  0  0  0  0  0  0  0  0  0  0  0  0
  2  1  1  0  0  0  0
  2  3  1  0  0  0  0
  3  4  1  0  0  0  0
  3  5  2  0  0  0  0
  6  2  2  0  0  0  0
  6  7  1  0  0  0  0
  8  6  1  0  0  0  0
  9  8  2  0  0  0  0
 10  9  1  0  0  0  0
  1 10  2  0  0  0  0
 10 11  1  0  0  0  0
M  END
> <ChemID>
100421

> <CAS>
1702-17-6

> <Original_SMILES>
OC(=O)c1[n]c(Cl)ccc1Cl

> <preferred_name>
Clopyralid

> <dsstox_substance_id>
DTXSID9029221

> <dsstox_compound_id>
DTXCID309221

> <qc_level>
DSSTox_High

> <Canonical_QSARr>
OC(=O)C1N=C(Cl)C=CC=1Cl

> <InChI_Code_QSARr>
InChI=1S/C6H3Cl2NO2/c7-3-1-2-4(8)9-5(3)6(10)11/h1-2H,(H,10,11)

> <InChI Key_QSARr>
HUBANNPOLNYSAD-UHFFFAOYSA-N

> <Salt_Solvent>


> <Salt_Solvent_ID>
0

> <MPID>
99695

> <KocRef>
USDA Pest Prop DB

> <LogKOC>
1.56

> <Tr_1_Tst_0>
1

$$$$
100422
  Mrv171c012251911022D          

 18 20  0  0  0  0            999 V2000
    0.0016   -0.0014    0.0000 Cl  0  0  0  0  0  0  0  0  0  0  0  0
    0.7161   -0.4139    0.0000 C   0  0  0  0  0  0  0  0  0  0  0  0
    0.7161   -1.2389    0.0000 C   0  0  0  0  0  0  0  0  0  0  0  0
    0.0016   -1.6514    0.0000 Cl  0  0  0  0  0  0  0  0  0  0  0  0
    1.4305   -1.6514    0.0000 C   0  0  0  0  0  0  0  0  0  0  0  0
    2.1450   -1.2389    0.0000 C   0  0  0  0  0  0  0  0  0  0  0  0
    2.8595   -1.6514    0.0000 O   0  0  0  0  0  0  0  0  0  0  0  0
    3.5740   -1.2389    0.0000 C   0  0  0  0  0  0  0  0  0  0  0  0
    4.2884   -1.6514    0.0000 C   0  0  0  0  0  0  0  0  0  0  0  0
    5.0029   -1.2389    0.0000 C   0  0  0  0  0  0  0  0  0  0  0  0
    5.7174   -1.6514    0.0000 Cl  0  0  0  0  0  0  0  0  0  0  0  0
    5.0029   -0.4139    0.0000 C   0  0  0  0  0  0  0  0  0  0  0  0
    5.7174   -0.0014    0.0000 Cl  0  0  0  0  0  0  0  0  0  0  0  0
    4.2884   -0.0014    0.0000 C   0  0  0  0  0  0  0  0  0  0  0  0
    3.5740   -0.4139    0.0000 C   0  0  0  0  0  0  0  0  0  0  0  0
    2.8595   -0.0014    0.0000 O   0  0  0  0  0  0  0  0  0  0  0  0
    2.1450   -0.4139    0.0000 C   0  0  0  0  0  0  0  0  0  0  0  0
    1.4305   -0.0014    0.0000 C   0  0  0  0  0  0  0  0  0  0  0  0
  1  2  1  0  0  0  0
  3  2  1  0  0  0  0
  3  4  1  0  0  0  0
  5  3  2  0  0  0  0
  6  5  1  0  0  0  0
  6  7  1  0  0  0  0
  7  8  1  0  0  0  0
  9  8  1  0  0  0  0
 10  9  2  0  0  0  0
 10 11  1  0  0  0  0
 12 10  1  0  0  0  0
 12 13  1  0  0  0  0
 14 12  2  0  0  0  0
 15 14  1  0  0  0  0
  8 15  2  0  0  0  0
 15 16  1  0  0  0  0
 16 17  1  0  0  0  0
 17  6  2  0  0  0  0
 18 17  1  0  0  0  0
  2 18  2  0  0  0  0
M  END
> <ChemID>
100422

> <CAS>
1746-01-6

> <Original_SMILES>
Clc1cc2Oc3cc(Cl)c(Cl)cc3Oc2cc1Cl

> <preferred_name>
2,3,7,8-Tetrachlorodibenzo-p-dioxin

> <dsstox_substance_id>
DTXSID2021315

> <dsstox_compound_id>
DTXCID001315

> <qc_level>
DSSTox_Low

> <Canonical_QSARr>
ClC1=CC2OC3C=C(Cl)C(Cl)=CC=3OC=2C=C1Cl

> <InChI_Code_QSARr>
InChI=1S/C12H4Cl4O2/c13-5-1-9-10(2-6(5)14)18-12-4-8(16)7(15)3-11(12)17-9/h1-4H

> <InChI Key_QSARr>
HGUFODBRKLSHSI-UHFFFAOYSA-N

> <Salt_Solvent>


> <Salt_Solvent_ID>
0

> <MPID>
99696

> <KocRef>
Schuurmann-Main

> <LogKOC>
6.5

> <Tr_1_Tst_0>
1

$$$$
100423
  Mrv171c012251911022D          

 14 14  0  0  0  0            999 V2000
    3.5695   -0.9459    0.0000 C   0  0  0  0  0  0  0  0  0  0  0  0
    2.8550   -0.5334    0.0000 N   0  0  0  0  0  0  0  0  0  0  0  0
    2.1406   -0.9459    0.0000 C   0  0  0  0  0  0  0  0  0  0  0  0
    1.4261   -0.5334    0.0000 C   0  0  0  0  0  0  0  0  0  0  0  0
    0.7116   -0.9459    0.0000 C   0  0  0  0  0  0  0  0  0  0  0  0
    0.7116   -1.7709    0.0000 C   0  0  0  0  0  0  0  0  0  0  0  0
   -0.0028   -2.1834    0.0000 Cl  0  0  0  0  0  0  0  0  0  0  0  0
    1.4261   -2.1834    0.0000 C   0  0  0  0  0  0  0  0  0  0  0  0
    2.1406   -1.7709    0.0000 C   0  0  0  0  0  0  0  0  0  0  0  0
    4.2840   -0.5334    0.0000 N   0  0  0  0  0  0  0  0  0  0  0  0
    4.2840    0.2916    0.0000 C   0  0  0  0  0  0  0  0  0  0  0  0
    4.9984   -0.9459    0.0000 O   0  0  0  0  0  0  0  0  0  0  0  0
    5.7129   -0.5334    0.0000 C   0  0  0  0  0  0  0  0  0  0  0  0
    3.5695   -1.7709    0.0000 O   0  0  0  0  0  0  0  0  0  0  0  0
  1  2  1  0  0  0  0
  2  3  1  0  0  0  0
  4  3  1  0  0  0  0
  5  4  2  0  0  0  0
  6  5  1  0  0  0  0
  6  7  1  0  0  0  0
  8  6  2  0  0  0  0
  9  8  1  0  0  0  0
  3  9  2  0  0  0  0
  1 10  1  0  0  0  0
 10 11  1  0  0  0  0
 10 12  1  0  0  0  0
 12 13  1  0  0  0  0
  1 14  2  0  0  0  0
M  END
> <ChemID>
100423

> <CAS>
1746-81-2

> <Original_SMILES>
CN(OC)C(=O)Nc1ccc(Cl)cc1

> <preferred_name>
Monolinuron

> <dsstox_substance_id>
DTXSID0037576

> <dsstox_compound_id>
DTXCID8017576

> <qc_level>
DSSTox_Low

> <Canonical_QSARr>
CON(C)C(=O)NC1C=CC(Cl)=CC=1

> <InChI_Code_QSARr>
InChI=1S/C9H11ClN2O2/c1-12(14-2)9(13)11-8-5-3-7(10)4-6-8/h3-6H,1-2H3,(H,11,13)

> <InChI Key_QSARr>
LKJPSUCKSLORMF-UHFFFAOYSA-N

> <Salt_Solvent>


> <Salt_Solvent_ID>
0

> <MPID>
99697

> <KocRef>
Schuurmann-SRC-USDA

> <LogKOC>
2.1

> <Tr_1_Tst_0>
0

$$$$
100424
  Mrv171c012251911022D          

 13 13  0  0  0  0            999 V2000
    1.9827   -0.9413    0.0000 P   0  0  0  0  0  0  0  0  0  0  0  0
    2.6971   -0.5288    0.0000 N   0  0  0  0  0  0  0  0  0  0  0  0
    2.6971    0.2962    0.0000 C   0  0  0  0  0  0  0  0  0  0  0  0
    1.5702   -0.2268    0.0000 N   0  0  0  0  0  0  0  0  0  0  0  0
    0.7452   -0.2268    0.0000 C   0  0  0  0  0  0  0  0  0  0  0  0
    1.2682   -1.3538    0.0000 O   0  0  0  0  0  0  0  0  0  0  0  0
    1.2682   -2.1788    0.0000 C   0  0  0  0  0  0  0  0  0  0  0  0
    0.5537   -2.5913    0.0000 C   0  0  0  0  0  0  0  0  0  0  0  0
    0.5537   -3.4163    0.0000 C   0  0  0  0  0  0  0  0  0  0  0  0
    1.2682   -3.8288    0.0000 C   0  0  0  0  0  0  0  0  0  0  0  0
    1.9827   -3.4163    0.0000 C   0  0  0  0  0  0  0  0  0  0  0  0
    1.9827   -2.5913    0.0000 C   0  0  0  0  0  0  0  0  0  0  0  0
    2.3952   -1.6557    0.0000 O   0  0  0  0  0  0  0  0  0  0  0  0
  1  2  1  0  0  0  0
  2  3  1  0  0  0  0
  1  4  1  0  0  0  0
  4  5  1  0  0  0  0
  1  6  1  0  0  0  0
  6  7  1  0  0  0  0
  8  7  1  0  0  0  0
  9  8  2  0  0  0  0
 10  9  1  0  0  0  0
 11 10  2  0  0  0  0
 12 11  1  0  0  0  0
  7 12  2  0  0  0  0
  1 13  2  0  0  0  0
M  END
> <ChemID>
100424

> <CAS>
1754-58-1

> <Original_SMILES>
CNP(=O)(NC)Oc1ccccc1

> <preferred_name>
Diamidafos

> <dsstox_substance_id>
DTXSID6041846

> <dsstox_compound_id>
DTXCID4021846

> <qc_level>
DSSTox_Low

> <Canonical_QSARr>
CNP(=O)(NC)OC1C=CC=CC=1

> <InChI_Code_QSARr>
InChI=1S/C8H13N2O2P/c1-9-13(11,10-2)12-8-6-4-3-5-7-8/h3-7H,1-2H3,(H2,9,10,11)

> <InChI Key_QSARr>
ZKIBFASDNPOJFP-UHFFFAOYSA-N

> <Salt_Solvent>


> <Salt_Solvent_ID>
0

> <MPID>
99698

> <KocRef>
Schuurmann-Main

> <LogKOC>
1.51

> <Tr_1_Tst_0>
1

$$$$
100425
  Mrv171c012251911022D          

 18 19  0  0  0  0            999 V2000
    3.4971   -1.1017    0.0000 Cl  0  0  0  0  0  0  0  0  0  0  0  0
    2.7826   -0.6892    0.0000 C   0  0  0  0  0  0  0  0  0  0  0  0
    2.7826    0.1358    0.0000 C   0  0  0  0  0  0  0  0  0  0  0  0
    2.0681    0.5483    0.0000 C   0  0  0  0  0  0  0  0  0  0  0  0
    2.0681    1.3733    0.0000 Cl  0  0  0  0  0  0  0  0  0  0  0  0
    1.3537    0.1358    0.0000 C   0  0  0  0  0  0  0  0  0  0  0  0
    1.3537   -0.6892    0.0000 C   0  0  0  0  0  0  0  0  0  0  0  0
    2.0681   -1.1017    0.0000 C   0  0  0  0  0  0  0  0  0  0  0  0
    2.0681   -1.9267    0.0000 O   0  0  0  0  0  0  0  0  0  0  0  0
    2.7826   -2.3392    0.0000 C   0  0  0  0  0  0  0  0  0  0  0  0
    2.7826   -3.1642    0.0000 C   0  0  0  0  0  0  0  0  0  0  0  0
    3.4971   -3.5767    0.0000 C   0  0  0  0  0  0  0  0  0  0  0  0
    4.2115   -3.1642    0.0000 C   0  0  0  0  0  0  0  0  0  0  0  0
    4.9260   -3.5767    0.0000 N   0  3  0  0  0  0  0  0  0  0  0  0
    5.6405   -3.1642    0.0000 O   0  5  0  0  0  0  0  0  0  0  0  0
    4.9260   -4.4017    0.0000 O   0  0  0  0  0  0  0  0  0  0  0  0
    4.2115   -2.3392    0.0000 C   0  0  0  0  0  0  0  0  0  0  0  0
    3.4971   -1.9267    0.0000 C   0  0  0  0  0  0  0  0  0  0  0  0
  1  2  1  0  0  0  0
  3  2  1  0  0  0  0
  4  3  2  0  0  0  0
  4  5  1  0  0  0  0
  6  4  1  0  0  0  0
  7  6  2  0  0  0  0
  8  7  1  0  0  0  0
  2  8  2  0  0  0  0
  8  9  1  0  0  0  0
  9 10  1  0  0  0  0
 11 10  1  0  0  0  0
 12 11  2  0  0  0  0
 13 12  1  0  0  0  0
 13 14  1  0  0  0  0
 14 15  1  0  0  0  0
 14 16  2  0  0  0  0
 17 13  2  0  0  0  0
 18 17  1  0  0  0  0
 10 18  2  0  0  0  0
M  CHG  2  14   1  15  -1
M  END
> <ChemID>
100425

> <CAS>
1836-75-5

> <Original_SMILES>
[O-][N+](=O)c1ccc(cc1)Oc1ccc(Cl)cc1Cl

> <preferred_name>
Nitrofen

> <dsstox_substance_id>
DTXSID7020970

> <dsstox_compound_id>
DTXCID30970

> <qc_level>
DSSTox_Low

> <Canonical_QSARr>
[O-][N+](=O)C1C=CC(=CC=1)OC1C=CC(Cl)=CC=1Cl

> <InChI_Code_QSARr>
InChI=1S/C12H7Cl2NO3/c13-8-1-6-12(11(14)7-8)18-10-4-2-9(3-5-10)15(16)17/h1-7H

> <InChI Key_QSARr>
XITQUSLLOSKDTB-UHFFFAOYSA-N

> <Salt_Solvent>


> <Salt_Solvent_ID>
0

> <MPID>
99699

> <KocRef>
USDA Pest Prop DB

> <LogKOC>
4.0

> <Tr_1_Tst_0>
1

$$$$
100426
  Mrv171c012251911022D          

 19 20  0  0  0  0            999 V2000
    4.7822   -2.7606    0.0000 C   0  0  0  0  0  0  0  0  0  0  0  0
    5.4967   -2.3481    0.0000 Cl  0  0  0  0  0  0  0  0  0  0  0  0
    4.0678   -2.3481    0.0000 C   0  0  0  0  0  0  0  0  0  0  0  0
    4.0678   -1.5231    0.0000 O   0  0  0  0  0  0  0  0  0  0  0  0
    3.3533   -1.1106    0.0000 C   0  0  0  0  0  0  0  0  0  0  0  0
    3.3533   -0.2856    0.0000 C   0  0  0  0  0  0  0  0  0  0  0  0
    2.6388    0.1269    0.0000 C   0  0  0  0  0  0  0  0  0  0  0  0
    1.9244   -0.2856    0.0000 C   0  0  0  0  0  0  0  0  0  0  0  0
    1.2099    0.1269    0.0000 N   0  3  0  0  0  0  0  0  0  0  0  0
    0.4954   -0.2856    0.0000 O   0  0  0  0  0  0  0  0  0  0  0  0
    1.2099    0.9519    0.0000 O   0  5  0  0  0  0  0  0  0  0  0  0
    1.9244   -1.1106    0.0000 C   0  0  0  0  0  0  0  0  0  0  0  0
    2.6388   -1.5231    0.0000 C   0  0  0  0  0  0  0  0  0  0  0  0
    3.3533   -2.7606    0.0000 C   0  0  0  0  0  0  0  0  0  0  0  0
    2.6388   -2.3481    0.0000 Cl  0  0  0  0  0  0  0  0  0  0  0  0
    3.3533   -3.5856    0.0000 C   0  0  0  0  0  0  0  0  0  0  0  0
    4.0678   -3.9981    0.0000 C   0  0  0  0  0  0  0  0  0  0  0  0
    4.0678   -4.8231    0.0000 Cl  0  0  0  0  0  0  0  0  0  0  0  0
    4.7822   -3.5856    0.0000 C   0  0  0  0  0  0  0  0  0  0  0  0
  1  2  1  0  0  0  0
  3  1  2  0  0  0  0
  3  4  1  0  0  0  0
  4  5  1  0  0  0  0
  6  5  1  0  0  0  0
  7  6  2  0  0  0  0
  8  7  1  0  0  0  0
  8  9  1  0  0  0  0
  9 10  2  0  0  0  0
  9 11  1  0  0  0  0
 12  8  2  0  0  0  0
 13 12  1  0  0  0  0
  5 13  2  0  0  0  0
 14  3  1  0  0  0  0
 14 15  1  0  0  0  0
 16 14  2  0  0  0  0
 17 16  1  0  0  0  0
 17 18  1  0  0  0  0
 19 17  2  0  0  0  0
  1 19  1  0  0  0  0
M  CHG  2   9   1  11  -1
M  END
> <ChemID>
100426

> <CAS>
1836-77-7

> <Original_SMILES>
[O-][N+](=O)c1ccc(cc1)Oc1c(Cl)cc(Cl)cc1Cl

> <preferred_name>
Chlornitrofen

> <dsstox_substance_id>
DTXSID0041775

> <dsstox_compound_id>
DTXCID8021775

> <qc_level>
DSSTox_Low

> <Canonical_QSARr>
[O-][N+](=O)C1C=CC(=CC=1)OC1C(Cl)=CC(Cl)=CC=1Cl

> <InChI_Code_QSARr>
InChI=1S/C12H6Cl3NO3/c13-7-5-10(14)12(11(15)6-7)19-9-3-1-8(2-4-9)16(17)18/h1-6H

> <InChI Key_QSARr>
XQNAUQUKWRBODG-UHFFFAOYSA-N

> <Salt_Solvent>


> <Salt_Solvent_ID>
0

> <MPID>
99700

> <KocRef>
SRC 1992 Validation

> <LogKOC>
3.9

> <Tr_1_Tst_0>
1

$$$$
100427
  Mrv171c012251911022D          

 18 18  0  0  0  0            999 V2000
    2.1489   -1.6389    0.0000 C   0  0  0  0  0  0  0  0  0  0  0  0
    2.8633   -1.2264    0.0000 C   0  0  0  0  0  0  0  0  0  0  0  0
    3.5778   -1.6389    0.0000 O   0  0  0  0  0  0  0  0  0  0  0  0
    4.2923   -1.2264    0.0000 C   0  0  0  0  0  0  0  0  0  0  0  0
    2.8633   -0.4014    0.0000 O   0  0  0  0  0  0  0  0  0  0  0  0
    1.4344   -1.2264    0.0000 C   0  0  0  0  0  0  0  0  0  0  0  0
    1.4344   -0.4014    0.0000 Cl  0  0  0  0  0  0  0  0  0  0  0  0
    0.7199   -1.6389    0.0000 C   0  0  0  0  0  0  0  0  0  0  0  0
    0.0055   -1.2264    0.0000 Cl  0  0  0  0  0  0  0  0  0  0  0  0
    0.7199   -2.4639    0.0000 C   0  0  0  0  0  0  0  0  0  0  0  0
    0.0055   -2.8764    0.0000 C   0  0  0  0  0  0  0  0  0  0  0  0
   -0.7090   -2.4639    0.0000 O   0  0  0  0  0  0  0  0  0  0  0  0
   -1.4235   -2.8764    0.0000 C   0  0  0  0  0  0  0  0  0  0  0  0
    0.0055   -3.7014    0.0000 O   0  0  0  0  0  0  0  0  0  0  0  0
    1.4344   -2.8764    0.0000 C   0  0  0  0  0  0  0  0  0  0  0  0
    1.4344   -3.7014    0.0000 Cl  0  0  0  0  0  0  0  0  0  0  0  0
    2.1489   -2.4639    0.0000 C   0  0  0  0  0  0  0  0  0  0  0  0
    2.8633   -2.8764    0.0000 Cl  0  0  0  0  0  0  0  0  0  0  0  0
  1  2  1  0  0  0  0
  2  3  1  0  0  0  0
  3  4  1  0  0  0  0
  2  5  2  0  0  0  0
  6  1  1  0  0  0  0
  6  7  1  0  0  0  0
  8  6  2  0  0  0  0
  8  9  1  0  0  0  0
 10  8  1  0  0  0  0
 10 11  1  0  0  0  0
 11 12  1  0  0  0  0
 12 13  1  0  0  0  0
 11 14  2  0  0  0  0
 15 10  2  0  0  0  0
 15 16  1  0  0  0  0
 17 15  1  0  0  0  0
  1 17  2  0  0  0  0
 17 18  1  0  0  0  0
M  END
> <ChemID>
100427

> <CAS>
1861-32-1

> <Original_SMILES>
COC(=O)c1c(Cl)c(Cl)c(c(Cl)c1Cl)C(=O)OC

> <preferred_name>
Chlorthal-dimethyl

> <dsstox_substance_id>
DTXSID0024000

> <dsstox_compound_id>
DTXCID404000

> <qc_level>
DSSTox_Low

> <Canonical_QSARr>
COC(=O)C1=C(Cl)C(Cl)=C(C(Cl)=C1Cl)C(=O)OC

> <InChI_Code_QSARr>
InChI=1S/C10H6Cl4O4/c1-17-9(15)3-5(11)7(13)4(10(16)18-2)8(14)6(3)12/h1-2H3

> <InChI Key_QSARr>
NPOJQCVWMSKXDN-UHFFFAOYSA-N

> <Salt_Solvent>


> <Salt_Solvent_ID>
0

> <MPID>
99701

> <KocRef>
Schuurmann-Main

> <LogKOC>
3.7

> <Tr_1_Tst_0>
0

$$$$
100428
  Mrv171c012251911022D          

 23 23  0  0  0  0            999 V2000
    3.7441   -1.9127    0.0000 C   0  0  0  0  0  0  0  0  0  0  0  0
    4.1566   -1.1982    0.0000 C   0  0  0  0  0  0  0  0  0  0  0  0
    3.7441   -0.4838    0.0000 C   0  0  0  0  0  0  0  0  0  0  0  0
    4.1566    0.2307    0.0000 C   0  0  0  0  0  0  0  0  0  0  0  0
    4.5691    0.9452    0.0000 F   0  0  0  0  0  0  0  0  0  0  0  0
    3.4421    0.6432    0.0000 F   0  0  0  0  0  0  0  0  0  0  0  0
    4.8711   -0.1818    0.0000 F   0  0  0  0  0  0  0  0  0  0  0  0
    2.9191   -0.4838    0.0000 C   0  0  0  0  0  0  0  0  0  0  0  0
    2.5066   -1.1982    0.0000 C   0  0  0  0  0  0  0  0  0  0  0  0
    1.6816   -1.1982    0.0000 N   0  3  0  0  0  0  0  0  0  0  0  0
    1.2691   -1.9127    0.0000 O   0  0  0  0  0  0  0  0  0  0  0  0
    1.2691   -0.4838    0.0000 O   0  5  0  0  0  0  0  0  0  0  0  0
    2.9191   -1.9127    0.0000 C   0  0  0  0  0  0  0  0  0  0  0  0
    2.5066   -2.6272    0.0000 N   0  0  0  0  0  0  0  0  0  0  0  0
    1.6816   -2.6272    0.0000 C   0  0  0  0  0  0  0  0  0  0  0  0
    1.2691   -3.3416    0.0000 C   0  0  0  0  0  0  0  0  0  0  0  0
    0.4441   -3.3416    0.0000 C   0  0  0  0  0  0  0  0  0  0  0  0
    0.0316   -4.0561    0.0000 C   0  0  0  0  0  0  0  0  0  0  0  0
    2.9191   -3.3416    0.0000 C   0  0  0  0  0  0  0  0  0  0  0  0
    2.5066   -4.0561    0.0000 C   0  0  0  0  0  0  0  0  0  0  0  0
    4.1566   -2.6272    0.0000 N   0  3  0  0  0  0  0  0  0  0  0  0
    3.7441   -3.3416    0.0000 O   0  0  0  0  0  0  0  0  0  0  0  0
    4.9816   -2.6272    0.0000 O   0  5  0  0  0  0  0  0  0  0  0  0
  2  1  1  0  0  0  0
  3  2  2  0  0  0  0
  3  4  1  0  0  0  0
  4  5  1  0  0  0  0
  4  6  1  0  0  0  0
  4  7  1  0  0  0  0
  8  3  1  0  0  0  0
  9  8  2  0  0  0  0
  9 10  1  0  0  0  0
 10 11  2  0  0  0  0
 10 12  1  0  0  0  0
 13  9  1  0  0  0  0
  1 13  2  0  0  0  0
 13 14  1  0  0  0  0
 14 15  1  0  0  0  0
 15 16  1  0  0  0  0
 16 17  1  0  0  0  0
 17 18  1  0  0  0  0
 14 19  1  0  0  0  0
 19 20  1  0  0  0  0
  1 21  1  0  0  0  0
 21 22  2  0  0  0  0
 21 23  1  0  0  0  0
M  CHG  4  10   1  12  -1  21   1  23  -1
M  END
> <ChemID>
100428

> <CAS>
1861-40-1

> <Original_SMILES>
CCCCN(CC)c1c(cc(cc1[N+]([O-])=O)C(F)(F)F)[N+]([O-])=O

> <preferred_name>
Benfluralin

> <dsstox_substance_id>
DTXSID3023899

> <dsstox_compound_id>
DTXCID203899

> <qc_level>
DSSTox_Low

> <Canonical_QSARr>
CCCCN(CC)C1C(=CC(=CC=1[N+]([O-])=O)C(F)(F)F)[N+]([O-])=O

> <InChI_Code_QSARr>
InChI=1S/C13H16F3N3O4/c1-3-5-6-17(4-2)12-10(18(20)21)7-9(13(14,15)16)8-11(12)19(22)23/h7-8H,3-6H2,1-2H3

> <InChI Key_QSARr>
SMDHCQAYESWHAE-UHFFFAOYSA-N

> <Salt_Solvent>


> <Salt_Solvent_ID>
0

> <MPID>
99702

> <KocRef>
Schuurmann-Main

> <LogKOC>
4.03

> <Tr_1_Tst_0>
1

$$$$
100429
  Mrv171c012251911022D          

 14 14  0  0  0  0            999 V2000
    3.0144   -1.2542    0.0000 Cl  0  0  0  0  0  0  0  0  0  0  0  0
    2.2999   -1.6667    0.0000 C   0  0  0  0  0  0  0  0  0  0  0  0
    1.5855   -1.2542    0.0000 C   0  0  0  0  0  0  0  0  0  0  0  0
    1.5855   -0.4292    0.0000 C   0  0  0  0  0  0  0  0  0  0  0  0
    1.5855    0.3958    0.0000 N   0  0  0  0  0  0  0  0  0  0  0  0
    0.8710   -1.6667    0.0000 C   0  0  0  0  0  0  0  0  0  0  0  0
    0.1565   -1.2542    0.0000 Cl  0  0  0  0  0  0  0  0  0  0  0  0
    0.8710   -2.4917    0.0000 C   0  0  0  0  0  0  0  0  0  0  0  0
    0.1565   -2.9042    0.0000 Cl  0  0  0  0  0  0  0  0  0  0  0  0
    1.5855   -2.9042    0.0000 C   0  0  0  0  0  0  0  0  0  0  0  0
    1.5855   -3.7292    0.0000 Cl  0  0  0  0  0  0  0  0  0  0  0  0
    2.2999   -2.4917    0.0000 C   0  0  0  0  0  0  0  0  0  0  0  0
    3.0144   -2.9042    0.0000 C   0  0  0  0  0  0  0  0  0  0  0  0
    3.7289   -3.3167    0.0000 N   0  0  0  0  0  0  0  0  0  0  0  0
  1  2  1  0  0  0  0
  3  2  1  0  0  0  0
  3  4  1  0  0  0  0
  4  5  3  0  0  0  0
  6  3  2  0  0  0  0
  6  7  1  0  0  0  0
  8  6  1  0  0  0  0
  8  9  1  0  0  0  0
 10  8  2  0  0  0  0
 10 11  1  0  0  0  0
 12 10  1  0  0  0  0
  2 12  2  0  0  0  0
 12 13  1  0  0  0  0
 13 14  3  0  0  0  0
M  END
> <ChemID>
100429

> <CAS>
1897-45-6

> <Original_SMILES>
N#Cc1c(Cl)c(Cl)c(Cl)c(C#N)c1Cl

> <preferred_name>
Chlorothalonil

> <dsstox_substance_id>
DTXSID0020319

> <dsstox_compound_id>
DTXCID20319

> <qc_level>
DSSTox_Low

> <Canonical_QSARr>
N#CC1C(Cl)=C(Cl)C(Cl)=C(C#N)C=1Cl

> <InChI_Code_QSARr>
InChI=1S/C8Cl4N2/c9-5-3(1-13)6(10)8(12)7(11)4(5)2-14

> <InChI Key_QSARr>
CRQQGFGUEAVUIL-UHFFFAOYSA-N

> <Salt_Solvent>


> <Salt_Solvent_ID>
0

> <MPID>
99703

> <KocRef>
Schuurmann-Main

> <LogKOC>
3.26

> <Tr_1_Tst_0>
1

$$$$
100431
  Mrv171c012251911022D          

 14 14  0  0  0  0            999 V2000
    4.2587   -3.0942    0.0000 Cl  0  0  0  0  0  0  0  0  0  0  0  0
    3.5442   -2.6817    0.0000 C   0  0  0  0  0  0  0  0  0  0  0  0
    3.5442   -1.8567    0.0000 N   0  0  0  0  0  0  0  0  0  0  0  0
    2.8297   -1.4442    0.0000 C   0  0  0  0  0  0  0  0  0  0  0  0
    2.8297   -0.6192    0.0000 N   0  0  0  0  0  0  0  0  0  0  0  0
    3.5442   -0.2067    0.0000 C   0  0  0  0  0  0  0  0  0  0  0  0
    3.5442    0.6183    0.0000 C   0  0  0  0  0  0  0  0  0  0  0  0
    4.2587   -0.6192    0.0000 C   0  0  0  0  0  0  0  0  0  0  0  0
    2.1153   -1.8567    0.0000 N   0  0  0  0  0  0  0  0  0  0  0  0
    2.1153   -2.6817    0.0000 C   0  0  0  0  0  0  0  0  0  0  0  0
    1.4008   -3.0942    0.0000 N   0  0  0  0  0  0  0  0  0  0  0  0
    0.6863   -2.6817    0.0000 C   0  0  0  0  0  0  0  0  0  0  0  0
   -0.0282   -3.0942    0.0000 C   0  0  0  0  0  0  0  0  0  0  0  0
    2.8297   -3.0942    0.0000 N   0  0  0  0  0  0  0  0  0  0  0  0
  1  2  1  0  0  0  0
  3  2  1  0  0  0  0
  4  3  2  0  0  0  0
  4  5  1  0  0  0  0
  5  6  1  0  0  0  0
  6  7  1  0  0  0  0
  6  8  1  0  0  0  0
  9  4  1  0  0  0  0
 10  9  2  0  0  0  0
 10 11  1  0  0  0  0
 11 12  1  0  0  0  0
 12 13  1  0  0  0  0
 14 10  1  0  0  0  0
  2 14  2  0  0  0  0
M  END
> <ChemID>
100431

> <CAS>
1912-24-9

> <Original_SMILES>
CCNc1[n]c(Cl)[n]c(NC(C)C)[n]1

> <preferred_name>
Atrazine

> <dsstox_substance_id>
DTXSID9020112

> <dsstox_compound_id>
DTXCID90112

> <qc_level>
DSSTox_Low

> <Canonical_QSARr>
CCNC1N=C(Cl)N=C(NC(C)C)N=1

> <InChI_Code_QSARr>
InChI=1S/C8H14ClN5/c1-4-10-7-12-6(9)13-8(14-7)11-5(2)3/h5H,4H2,1-3H3,(H2,10,11,12,13,14)

> <InChI Key_QSARr>
MXWJVTOOROXGIU-UHFFFAOYSA-N

> <Salt_Solvent>


> <Salt_Solvent_ID>
0

> <MPID>
99704

> <KocRef>
Schuurmann-Main

> <LogKOC>
2.24

> <Tr_1_Tst_0>
1

$$$$
100432
  Mrv171c012251911022D          

 16 16  0  0  0  0            999 V2000
    3.5241   -1.1596    0.0000 N   0  0  0  0  0  0  0  0  0  0  0  0
    2.8097   -0.7471    0.0000 C   0  0  0  0  0  0  0  0  0  0  0  0
    2.8097    0.0779    0.0000 Cl  0  0  0  0  0  0  0  0  0  0  0  0
    2.0952   -1.1596    0.0000 N   0  0  0  0  0  0  0  0  0  0  0  0
    2.0952   -1.9846    0.0000 C   0  0  0  0  0  0  0  0  0  0  0  0
    1.3807   -2.3971    0.0000 N   0  0  0  0  0  0  0  0  0  0  0  0
    0.6663   -1.9846    0.0000 C   0  0  0  0  0  0  0  0  0  0  0  0
   -0.0482   -2.3971    0.0000 C   0  0  0  0  0  0  0  0  0  0  0  0
    0.6663   -1.1596    0.0000 C   0  0  0  0  0  0  0  0  0  0  0  0
    2.8097   -2.3971    0.0000 N   0  0  0  0  0  0  0  0  0  0  0  0
    3.5241   -1.9846    0.0000 C   0  0  0  0  0  0  0  0  0  0  0  0
    4.2386   -2.3971    0.0000 N   0  0  0  0  0  0  0  0  0  0  0  0
    4.2386   -3.2221    0.0000 C   0  0  0  0  0  0  0  0  0  0  0  0
    4.9531   -3.6346    0.0000 C   0  0  0  0  0  0  0  0  0  0  0  0
    4.9531   -1.9846    0.0000 C   0  0  0  0  0  0  0  0  0  0  0  0
    5.6676   -2.3971    0.0000 C   0  0  0  0  0  0  0  0  0  0  0  0
  2  1  2  0  0  0  0
  2  3  1  0  0  0  0
  4  2  1  0  0  0  0
  5  4  2  0  0  0  0
  5  6  1  0  0  0  0
  6  7  1  0  0  0  0
  7  8  1  0  0  0  0
  7  9  1  0  0  0  0
 10  5  1  0  0  0  0
 11 10  2  0  0  0  0
  1 11  1  0  0  0  0
 11 12  1  0  0  0  0
 12 13  1  0  0  0  0
 13 14  1  0  0  0  0
 12 15  1  0  0  0  0
 15 16  1  0  0  0  0
M  END
> <ChemID>
100432

> <CAS>
1912-25-0

> <Original_SMILES>
CC(C)Nc1[n]c([n]c(Cl)[n]1)N(CC)CC

> <preferred_name>
Ipazine

> <dsstox_substance_id>
DTXSID8042056

> <dsstox_compound_id>
DTXCID6022056

> <qc_level>
DSSTox_Low

> <Canonical_QSARr>
CC(C)NC1N=C(N=C(Cl)N=1)N(CC)CC

> <InChI_Code_QSARr>
InChI=1S/C10H18ClN5/c1-5-16(6-2)10-14-8(11)13-9(15-10)12-7(3)4/h7H,5-6H2,1-4H3,(H,12,13,14,15)

> <InChI Key_QSARr>
OWYWGLHRNBIFJP-UHFFFAOYSA-N

> <Salt_Solvent>


> <Salt_Solvent_ID>
0

> <MPID>
99705

> <KocRef>
Schuurmann-Main

> <LogKOC>
2.91

> <Tr_1_Tst_0>
0

$$$$
100433
  Mrv171c012251911022D          

 15 15  0  0  0  0            999 V2000
    2.2394   -1.6514    0.0000 C   0  0  0  0  0  0  0  0  0  0  0  0
    2.9538   -2.0639    0.0000 N   0  0  0  0  0  0  0  0  0  0  0  0
    3.6683   -1.6514    0.0000 C   0  0  0  0  0  0  0  0  0  0  0  0
    4.3828   -2.0639    0.0000 C   0  0  0  0  0  0  0  0  0  0  0  0
    2.9538   -2.8889    0.0000 C   0  0  0  0  0  0  0  0  0  0  0  0
    3.6683   -3.3014    0.0000 C   0  0  0  0  0  0  0  0  0  0  0  0
    2.2394   -0.8264    0.0000 N   0  0  0  0  0  0  0  0  0  0  0  0
    1.5249   -0.4139    0.0000 C   0  0  0  0  0  0  0  0  0  0  0  0
    1.5249    0.4111    0.0000 Cl  0  0  0  0  0  0  0  0  0  0  0  0
    0.8104   -0.8264    0.0000 N   0  0  0  0  0  0  0  0  0  0  0  0
    0.8104   -1.6514    0.0000 C   0  0  0  0  0  0  0  0  0  0  0  0
    0.0960   -2.0639    0.0000 N   0  0  0  0  0  0  0  0  0  0  0  0
   -0.6185   -1.6514    0.0000 C   0  0  0  0  0  0  0  0  0  0  0  0
   -1.3330   -2.0639    0.0000 C   0  0  0  0  0  0  0  0  0  0  0  0
    1.5249   -2.0639    0.0000 N   0  0  0  0  0  0  0  0  0  0  0  0
  1  2  1  0  0  0  0
  2  3  1  0  0  0  0
  3  4  1  0  0  0  0
  2  5  1  0  0  0  0
  5  6  1  0  0  0  0
  7  1  1  0  0  0  0
  8  7  2  0  0  0  0
  8  9  1  0  0  0  0
 10  8  1  0  0  0  0
 11 10  2  0  0  0  0
 11 12  1  0  0  0  0
 12 13  1  0  0  0  0
 13 14  1  0  0  0  0
 15 11  1  0  0  0  0
  1 15  2  0  0  0  0
M  END
> <ChemID>
100433

> <CAS>
1912-26-1

> <Original_SMILES>
CCNc1[n]c([n]c(Cl)[n]1)N(CC)CC

> <preferred_name>
Trietazine

> <dsstox_substance_id>
DTXSID2042488

> <dsstox_compound_id>
DTXCID0022488

> <qc_level>
DSSTox_Low

> <Canonical_QSARr>
CCNC1N=C(N=C(Cl)N=1)N(CC)CC

> <InChI_Code_QSARr>
InChI=1S/C9H16ClN5/c1-4-11-8-12-7(10)13-9(14-8)15(5-2)6-3/h4-6H2,1-3H3,(H,11,12,13,14)

> <InChI Key_QSARr>
HFBWPRKWDIRYNX-UHFFFAOYSA-N

> <Salt_Solvent>


> <Salt_Solvent_ID>
0

> <MPID>
99706

> <KocRef>
Schuurmann-Main

> <LogKOC>
2.76

> <Tr_1_Tst_0>
1

$$$$
100434
  Mrv171c012251911022D          

 13 13  0  0  0  0            999 V2000
    1.7760   -1.2370    0.0000 C   0  0  0  0  0  0  0  0  0  0  0  0
    1.0616   -0.8245    0.0000 C   0  0  0  0  0  0  0  0  0  0  0  0
    1.0616    0.0005    0.0000 Cl  0  0  0  0  0  0  0  0  0  0  0  0
    0.3471   -1.2370    0.0000 C   0  0  0  0  0  0  0  0  0  0  0  0
    0.3471   -2.0620    0.0000 C   0  0  0  0  0  0  0  0  0  0  0  0
    1.0616   -2.4745    0.0000 C   0  0  0  0  0  0  0  0  0  0  0  0
    1.0616   -3.2995    0.0000 Cl  0  0  0  0  0  0  0  0  0  0  0  0
    1.7760   -2.0620    0.0000 C   0  0  0  0  0  0  0  0  0  0  0  0
    2.4905   -2.4745    0.0000 O   0  0  0  0  0  0  0  0  0  0  0  0
    3.2050   -2.0620    0.0000 C   0  0  0  0  0  0  0  0  0  0  0  0
    2.4905   -0.8245    0.0000 C   0  0  0  0  0  0  0  0  0  0  0  0
    3.2050   -1.2370    0.0000 O   0  0  0  0  0  0  0  0  0  0  0  0
    2.4905    0.0005    0.0000 O   0  0  0  0  0  0  0  0  0  0  0  0
  2  1  2  0  0  0  0
  2  3  1  0  0  0  0
  4  2  1  0  0  0  0
  5  4  2  0  0  0  0
  6  5  1  0  0  0  0
  6  7  1  0  0  0  0
  8  6  2  0  0  0  0
  1  8  1  0  0  0  0
  8  9  1  0  0  0  0
  9 10  1  0  0  0  0
  1 11  1  0  0  0  0
 11 12  1  0  0  0  0
 11 13  2  0  0  0  0
M  END
> <ChemID>
100434

> <CAS>
1918-00-9

> <Original_SMILES>
COc1c(C(O)=O)c(Cl)ccc1Cl

> <preferred_name>
Dicamba

> <dsstox_substance_id>
DTXSID4024018

> <dsstox_compound_id>
DTXCID904018

> <qc_level>
DSSTox_High

> <Canonical_QSARr>
COC1C(C(O)=O)=C(Cl)C=CC=1Cl

> <InChI_Code_QSARr>
InChI=1S/C8H6Cl2O3/c1-13-7-5(10)3-2-4(9)6(7)8(11)12/h2-3H,1H3,(H,11,12)

> <InChI Key_QSARr>
IWEDIXLBFLAXBO-UHFFFAOYSA-N

> <Salt_Solvent>


> <Salt_Solvent_ID>
0

> <MPID>
99707

> <KocRef>
Schuurmann-Main

> <LogKOC>
1.5

> <Tr_1_Tst_0>
1

$$$$
100435
  Mrv171c012251911022D          

 13 13  0  0  0  0            999 V2000
    2.2719   -1.4320    0.0000 C   0  0  0  0  0  0  0  0  0  0  0  0
    2.9864   -1.0195    0.0000 C   0  0  0  0  0  0  0  0  0  0  0  0
    3.7008   -1.4320    0.0000 O   0  0  0  0  0  0  0  0  0  0  0  0
    2.9864   -0.1945    0.0000 O   0  0  0  0  0  0  0  0  0  0  0  0
    1.5574   -1.0195    0.0000 C   0  0  0  0  0  0  0  0  0  0  0  0
    1.5574   -0.1945    0.0000 Cl  0  0  0  0  0  0  0  0  0  0  0  0
    0.8429   -1.4320    0.0000 C   0  0  0  0  0  0  0  0  0  0  0  0
    0.1285   -1.0195    0.0000 N   0  0  0  0  0  0  0  0  0  0  0  0
    0.8429   -2.2570    0.0000 C   0  0  0  0  0  0  0  0  0  0  0  0
    0.1285   -2.6695    0.0000 Cl  0  0  0  0  0  0  0  0  0  0  0  0
    1.5574   -2.6695    0.0000 C   0  0  0  0  0  0  0  0  0  0  0  0
    1.5574   -3.4945    0.0000 Cl  0  0  0  0  0  0  0  0  0  0  0  0
    2.2719   -2.2570    0.0000 N   0  0  0  0  0  0  0  0  0  0  0  0
  1  2  1  0  0  0  0
  2  3  1  0  0  0  0
  2  4  2  0  0  0  0
  5  1  2  0  0  0  0
  5  6  1  0  0  0  0
  7  5  1  0  0  0  0
  7  8  1  0  0  0  0
  9  7  2  0  0  0  0
  9 10  1  0  0  0  0
 11  9  1  0  0  0  0
 11 12  1  0  0  0  0
 13 11  2  0  0  0  0
  1 13  1  0  0  0  0
M  END
> <ChemID>
100435

> <CAS>
1918-02-1

> <Original_SMILES>
Nc1c(Cl)c([n]c(Cl)c1Cl)C(O)=O

> <preferred_name>
Picloram

> <dsstox_substance_id>
DTXSID1021160

> <dsstox_compound_id>
DTXCID101160

> <qc_level>
DSSTox_Low

> <Canonical_QSARr>
NC1C(Cl)=C(N=C(Cl)C=1Cl)C(O)=O

> <InChI_Code_QSARr>
InChI=1S/C6H3Cl3N2O2/c7-1-3(10)2(8)5(9)11-4(1)6(12)13/h(H2,10,11)(H,12,13)

> <InChI Key_QSARr>
NQQVFXUMIDALNH-UHFFFAOYSA-N

> <Salt_Solvent>


> <Salt_Solvent_ID>
0

> <MPID>
99708

> <KocRef>
Schuurmann-Main

> <LogKOC>
1.3

> <Tr_1_Tst_0>
1

$$$$
100436
  Mrv171c012251911022D          

 11 11  0  0  0  0            999 V2000
    1.6328   -1.3521    0.0000 C   0  0  0  0  0  0  0  0  0  0  0  0
    2.3473   -0.9396    0.0000 C   0  0  0  0  0  0  0  0  0  0  0  0
    3.0618   -1.3521    0.0000 N   0  0  0  0  0  0  0  0  0  0  0  0
    2.3473   -0.1146    0.0000 S   0  0  0  0  0  0  0  0  0  0  0  0
    0.9184   -0.9396    0.0000 C   0  0  0  0  0  0  0  0  0  0  0  0
    0.9184   -0.1146    0.0000 Cl  0  0  0  0  0  0  0  0  0  0  0  0
    0.2039   -1.3521    0.0000 C   0  0  0  0  0  0  0  0  0  0  0  0
    0.2039   -2.1771    0.0000 C   0  0  0  0  0  0  0  0  0  0  0  0
    0.9184   -2.5896    0.0000 C   0  0  0  0  0  0  0  0  0  0  0  0
    1.6328   -2.1771    0.0000 C   0  0  0  0  0  0  0  0  0  0  0  0
    2.3473   -2.5896    0.0000 Cl  0  0  0  0  0  0  0  0  0  0  0  0
  1  2  1  0  0  0  0
  2  3  1  0  0  0  0
  2  4  2  0  0  0  0
  5  1  2  0  0  0  0
  5  6  1  0  0  0  0
  7  5  1  0  0  0  0
  8  7  2  0  0  0  0
  9  8  1  0  0  0  0
 10  9  2  0  0  0  0
  1 10  1  0  0  0  0
 10 11  1  0  0  0  0
M  END
> <ChemID>
100436

> <CAS>
1918-13-4

> <Original_SMILES>
NC(=S)c1c(Cl)cccc1Cl

> <preferred_name>
Chlorthiamid

> <dsstox_substance_id>
DTXSID4041783

> <dsstox_compound_id>
DTXCID2021783

> <qc_level>
DSSTox_Low

> <Canonical_QSARr>
NC(=S)C1C(Cl)=CC=CC=1Cl

> <InChI_Code_QSARr>
InChI=1S/C7H5Cl2NS/c8-4-2-1-3-5(9)6(4)7(10)11/h1-3H,(H2,10,11)

> <InChI Key_QSARr>
KGKGSIUWJCAFPX-UHFFFAOYSA-N

> <Salt_Solvent>


> <Salt_Solvent_ID>
0

> <MPID>
99709

> <KocRef>
Schuurmann-Main

> <LogKOC>
2.26

> <Tr_1_Tst_0>
0

$$$$
100437
  Mrv171c012251911022D          

 14 14  0  0  0  0            999 V2000
    2.0916   -1.6978    0.0000 N   0  0  0  0  0  0  0  0  0  0  0  0
    2.0916   -2.5228    0.0000 C   0  0  0  0  0  0  0  0  0  0  0  0
    2.8061   -2.9353    0.0000 C   0  0  0  0  0  0  0  0  0  0  0  0
    1.3772   -2.9353    0.0000 C   0  0  0  0  0  0  0  0  0  0  0  0
    1.3772   -1.2853    0.0000 C   0  0  0  0  0  0  0  0  0  0  0  0
    1.3772   -0.4603    0.0000 C   0  0  0  0  0  0  0  0  0  0  0  0
    0.6627   -0.0478    0.0000 C   0  0  0  0  0  0  0  0  0  0  0  0
   -0.0518   -0.4603    0.0000 C   0  0  0  0  0  0  0  0  0  0  0  0
   -0.0518   -1.2853    0.0000 C   0  0  0  0  0  0  0  0  0  0  0  0
    0.6627   -1.6978    0.0000 C   0  0  0  0  0  0  0  0  0  0  0  0
    2.8061   -1.2853    0.0000 C   0  0  0  0  0  0  0  0  0  0  0  0
    3.5206   -1.6978    0.0000 C   0  0  0  0  0  0  0  0  0  0  0  0
    4.2350   -1.2853    0.0000 Cl  0  0  0  0  0  0  0  0  0  0  0  0
    2.8061   -0.4603    0.0000 O   0  0  0  0  0  0  0  0  0  0  0  0
  1  2  1  0  0  0  0
  2  3  1  0  0  0  0
  2  4  1  0  0  0  0
  1  5  1  0  0  0  0
  6  5  1  0  0  0  0
  7  6  2  0  0  0  0
  8  7  1  0  0  0  0
  9  8  2  0  0  0  0
 10  9  1  0  0  0  0
  5 10  2  0  0  0  0
  1 11  1  0  0  0  0
 11 12  1  0  0  0  0
 12 13  1  0  0  0  0
 11 14  2  0  0  0  0
M  END
> <ChemID>
100437

> <CAS>
1918-16-7

> <Original_SMILES>
CC(C)N(C(=O)CCl)c1ccccc1

> <preferred_name>
Propachlor

> <dsstox_substance_id>
DTXSID4024274

> <dsstox_compound_id>
DTXCID504274

> <qc_level>
DSSTox_Low

> <Canonical_QSARr>
CC(C)N(C(=O)CCl)C1C=CC=CC=1

> <InChI_Code_QSARr>
InChI=1S/C11H14ClNO/c1-9(2)13(11(14)8-12)10-6-4-3-5-7-10/h3-7,9H,8H2,1-2H3

> <InChI Key_QSARr>
MFOUDYKPLGXPGO-UHFFFAOYSA-N

> <Salt_Solvent>


> <Salt_Solvent_ID>
0

> <MPID>
99710

> <KocRef>
Schuurmann-Main

> <LogKOC>
2.42

> <Tr_1_Tst_0>
1

$$$$
100438
  Mrv171c012251911022D          

 13 13  0  0  0  0            999 V2000
    2.6380   -2.3536    0.0000 C   0  0  0  0  0  0  0  0  0  0  0  0
    1.9235   -1.9411    0.0000 N   0  0  0  0  0  0  0  0  0  0  0  0
    1.9235   -1.1161    0.0000 C   0  0  0  0  0  0  0  0  0  0  0  0
    2.6380   -0.7036    0.0000 C   0  0  0  0  0  0  0  0  0  0  0  0
    2.6380    0.1214    0.0000 C   0  0  0  0  0  0  0  0  0  0  0  0
    1.9235    0.5339    0.0000 C   0  0  0  0  0  0  0  0  0  0  0  0
    1.9235    1.3589    0.0000 Cl  0  0  0  0  0  0  0  0  0  0  0  0
    1.2090    0.1214    0.0000 C   0  0  0  0  0  0  0  0  0  0  0  0
    0.4946    0.5339    0.0000 Cl  0  0  0  0  0  0  0  0  0  0  0  0
    1.2090   -0.7036    0.0000 C   0  0  0  0  0  0  0  0  0  0  0  0
    2.6380   -3.1786    0.0000 O   0  0  0  0  0  0  0  0  0  0  0  0
    3.3525   -3.5911    0.0000 C   0  0  0  0  0  0  0  0  0  0  0  0
    3.3525   -1.9411    0.0000 O   0  0  0  0  0  0  0  0  0  0  0  0
  1  2  1  0  0  0  0
  2  3  1  0  0  0  0
  4  3  1  0  0  0  0
  5  4  2  0  0  0  0
  6  5  1  0  0  0  0
  6  7  1  0  0  0  0
  8  6  2  0  0  0  0
  8  9  1  0  0  0  0
 10  8  1  0  0  0  0
  3 10  2  0  0  0  0
  1 11  1  0  0  0  0
 11 12  1  0  0  0  0
  1 13  2  0  0  0  0
M  END
> <ChemID>
100438

> <CAS>
1918-18-9

> <Original_SMILES>
COC(=O)Nc1cc(Cl)c(Cl)cc1

> <preferred_name>
Swep

> <dsstox_substance_id>
DTXSID7042437

> <dsstox_compound_id>
DTXCID5022437

> <qc_level>
DSSTox_High

> <Canonical_QSARr>
COC(=O)NC1=CC(Cl)=C(Cl)C=C1

> <InChI_Code_QSARr>
InChI=1S/C8H7Cl2NO2/c1-13-8(12)11-5-2-3-6(9)7(10)4-5/h2-4H,1H3,(H,11,12)

> <InChI Key_QSARr>
WOZQBERUBLYCEG-UHFFFAOYSA-N

> <Salt_Solvent>


> <Salt_Solvent_ID>
0

> <MPID>
99711

> <KocRef>
SRC 1992 Validation

> <LogKOC>
2.74

> <Tr_1_Tst_0>
1

$$$$
100439
  Mrv171c012251911022D          

 13 12  0  0  0  0            999 V2000
    1.2888   -1.3206    0.0000 C   0  0  0  0  0  0  0  0  0  0  0  0
    0.7487   -1.9443    0.0000 S   0  0  0  0  0  0  0  0  0  0  0  0
   -0.0615   -1.7884    0.0000 C   0  0  0  0  0  0  0  0  0  0  0  0
   -0.6016   -2.4120    0.0000 C   0  0  0  0  0  0  0  0  0  0  0  0
   -1.4117   -2.2561    0.0000 C   0  0  0  0  0  0  0  0  0  0  0  0
    1.0187   -0.5411    0.0000 O   0  0  0  0  0  0  0  0  0  0  0  0
    2.0989   -1.4766    0.0000 N   0  0  0  0  0  0  0  0  0  0  0  0
    2.6390   -0.8529    0.0000 C   0  0  0  0  0  0  0  0  0  0  0  0
    3.4491   -1.0088    0.0000 C   0  0  0  0  0  0  0  0  0  0  0  0
    3.9892   -0.3852    0.0000 C   0  0  0  0  0  0  0  0  0  0  0  0
    2.3689   -2.2561    0.0000 C   0  0  0  0  0  0  0  0  0  0  0  0
    3.1791   -2.4120    0.0000 C   0  0  0  0  0  0  0  0  0  0  0  0
    3.4491   -3.1916    0.0000 C   0  0  0  0  0  0  0  0  0  0  0  0
  1  2  1  0  0  0  0
  2  3  1  0  0  0  0
  3  4  1  0  0  0  0
  4  5  1  0  0  0  0
  1  6  2  0  0  0  0
  1  7  1  0  0  0  0
  7  8  1  0  0  0  0
  8  9  1  0  0  0  0
  9 10  1  0  0  0  0
  7 11  1  0  0  0  0
 11 12  1  0  0  0  0
 12 13  1  0  0  0  0
M  END
> <ChemID>
100439

> <CAS>
1929-77-7

> <Original_SMILES>
CCCSC(=O)N(CCC)CCC

> <preferred_name>
Vernolate

> <dsstox_substance_id>
DTXSID7024376

> <dsstox_compound_id>
DTXCID504376

> <qc_level>
DSSTox_Low

> <Canonical_QSARr>
CCCSC(=O)N(CCC)CCC

> <InChI_Code_QSARr>
InChI=1S/C10H21NOS/c1-4-7-11(8-5-2)10(12)13-9-6-3/h4-9H2,1-3H3

> <InChI Key_QSARr>
OKUGPJPKMAEJOE-UHFFFAOYSA-N

> <Salt_Solvent>


> <Salt_Solvent_ID>
0

> <MPID>
99712

> <KocRef>
Schuurmann-Main

> <LogKOC>
2.33

> <Tr_1_Tst_0>
1

$$$$
100440
  Mrv171c012251911022D          

 11 11  0  0  0  0            999 V2000
    0.8456   -1.7700    0.0000 C   0  0  0  0  0  0  0  0  0  0  0  0
    0.1311   -2.1825    0.0000 Cl  0  0  0  0  0  0  0  0  0  0  0  0
    1.2581   -2.4845    0.0000 Cl  0  0  0  0  0  0  0  0  0  0  0  0
    0.4331   -1.0555    0.0000 Cl  0  0  0  0  0  0  0  0  0  0  0  0
    1.5600   -1.3575    0.0000 C   0  0  0  0  0  0  0  0  0  0  0  0
    2.2745   -1.7700    0.0000 C   0  0  0  0  0  0  0  0  0  0  0  0
    2.9890   -1.3575    0.0000 C   0  0  0  0  0  0  0  0  0  0  0  0
    2.9890   -0.5325    0.0000 C   0  0  0  0  0  0  0  0  0  0  0  0
    2.2745   -0.1200    0.0000 C   0  0  0  0  0  0  0  0  0  0  0  0
    2.2745    0.7050    0.0000 Cl  0  0  0  0  0  0  0  0  0  0  0  0
    1.5600   -0.5325    0.0000 N   0  0  0  0  0  0  0  0  0  0  0  0
  1  2  1  0  0  0  0
  1  3  1  0  0  0  0
  1  4  1  0  0  0  0
  1  5  1  0  0  0  0
  6  5  1  0  0  0  0
  7  6  2  0  0  0  0
  8  7  1  0  0  0  0
  9  8  2  0  0  0  0
  9 10  1  0  0  0  0
 11  9  1  0  0  0  0
  5 11  2  0  0  0  0
M  END
> <ChemID>
100440

> <CAS>
1929-82-4

> <Original_SMILES>
Clc1cccc([n]1)C(Cl)(Cl)Cl

> <preferred_name>
Nitrapyrin

> <dsstox_substance_id>
DTXSID0024216

> <dsstox_compound_id>
DTXCID504216

> <qc_level>
DSSTox_Low

> <Canonical_QSARr>
ClC1=CC=CC(=N1)C(Cl)(Cl)Cl

> <InChI_Code_QSARr>
InChI=1S/C6H3Cl4N/c7-5-3-1-2-4(11-5)6(8,9)10/h1-3H

> <InChI Key_QSARr>
DCUJJWWUNKIJPH-UHFFFAOYSA-N

> <Salt_Solvent>


> <Salt_Solvent_ID>
0

> <MPID>
99713

> <KocRef>
Schuurmann-Main

> <LogKOC>
2.62

> <Tr_1_Tst_0>
0

$$$$
100441
  Mrv171c012251911022D          

 15 15  0  0  0  0            999 V2000
    3.4733   -0.8433    0.0000 C   0  0  0  0  0  0  0  0  0  0  0  0
    2.7589   -0.4308    0.0000 N   0  0  0  0  0  0  0  0  0  0  0  0
    2.0444   -0.8433    0.0000 C   0  0  0  0  0  0  0  0  0  0  0  0
    1.3299   -0.4308    0.0000 C   0  0  0  0  0  0  0  0  0  0  0  0
    0.6155   -0.8433    0.0000 C   0  0  0  0  0  0  0  0  0  0  0  0
    0.6155   -1.6683    0.0000 C   0  0  0  0  0  0  0  0  0  0  0  0
    1.3299   -2.0808    0.0000 C   0  0  0  0  0  0  0  0  0  0  0  0
    1.3299   -2.9058    0.0000 Cl  0  0  0  0  0  0  0  0  0  0  0  0
    2.0444   -1.6683    0.0000 C   0  0  0  0  0  0  0  0  0  0  0  0
    4.1878   -0.4308    0.0000 O   0  0  0  0  0  0  0  0  0  0  0  0
    4.9023   -0.8433    0.0000 C   0  0  0  0  0  0  0  0  0  0  0  0
    4.9023   -1.6683    0.0000 C   0  0  0  0  0  0  0  0  0  0  0  0
    5.6168   -0.4308    0.0000 C   0  0  0  0  0  0  0  0  0  0  0  0
    6.3312   -0.0183    0.0000 C   0  0  0  0  0  0  0  0  0  0  0  0
    3.4733   -1.6683    0.0000 O   0  0  0  0  0  0  0  0  0  0  0  0
  1  2  1  0  0  0  0
  2  3  1  0  0  0  0
  4  3  1  0  0  0  0
  5  4  2  0  0  0  0
  6  5  1  0  0  0  0
  7  6  2  0  0  0  0
  7  8  1  0  0  0  0
  9  7  1  0  0  0  0
  3  9  2  0  0  0  0
  1 10  1  0  0  0  0
 10 11  1  0  0  0  0
 11 12  1  0  0  0  0
 11 13  1  0  0  0  0
 13 14  3  0  0  0  0
  1 15  2  0  0  0  0
M  END
> <ChemID>
100441

> <CAS>
1967-16-4

> <Original_SMILES>
CC(C#C)OC(=O)Nc1cccc(Cl)c1

> <preferred_name>
Chlorbufam

> <dsstox_substance_id>
DTXSID6041769

> <dsstox_compound_id>
DTXCID4021769

> <qc_level>
DSSTox_Low

> <Canonical_QSARr>
CC(C#C)OC(=O)NC1C=CC=C(Cl)C=1

> <InChI_Code_QSARr>
InChI=1S/C11H10ClNO2/c1-3-8(2)15-11(14)13-10-6-4-5-9(12)7-10/h1,4-8H,2H3,(H,13,14)

> <InChI Key_QSARr>
ULBXWWGWDPVHAO-UHFFFAOYSA-N

> <Salt_Solvent>


> <Salt_Solvent_ID>
0

> <MPID>
99714

> <KocRef>
Schuurmann-Main

> <LogKOC>
2.21

> <Tr_1_Tst_0>
1

$$$$
100442
  Mrv171c012251911022D          

 11 11  0  0  0  0            999 V2000
    2.3643   -2.3966    0.0000 Br  0  0  0  0  0  0  0  0  0  0  0  0
    2.3643   -1.5716    0.0000 C   0  0  0  0  0  0  0  0  0  0  0  0
    3.0788   -1.1591    0.0000 C   0  0  0  0  0  0  0  0  0  0  0  0
    3.0788   -0.3341    0.0000 C   0  0  0  0  0  0  0  0  0  0  0  0
    2.3643    0.0784    0.0000 C   0  0  0  0  0  0  0  0  0  0  0  0
    2.3643    0.9034    0.0000 N   0  0  0  0  0  0  0  0  0  0  0  0
    3.0788    1.3159    0.0000 C   0  0  0  0  0  0  0  0  0  0  0  0
    3.0788    2.1409    0.0000 N   0  0  0  0  0  0  0  0  0  0  0  0
    3.7933    0.9034    0.0000 O   0  0  0  0  0  0  0  0  0  0  0  0
    1.6499   -0.3341    0.0000 C   0  0  0  0  0  0  0  0  0  0  0  0
    1.6499   -1.1591    0.0000 C   0  0  0  0  0  0  0  0  0  0  0  0
  1  2  1  0  0  0  0
  3  2  1  0  0  0  0
  4  3  2  0  0  0  0
  5  4  1  0  0  0  0
  5  6  1  0  0  0  0
  6  7  1  0  0  0  0
  7  8  1  0  0  0  0
  7  9  2  0  0  0  0
 10  5  2  0  0  0  0
 11 10  1  0  0  0  0
  2 11  2  0  0  0  0
M  END
> <ChemID>
100442

> <CAS>
1967-25-5

> <Original_SMILES>
NC(=O)Nc1ccc(Br)cc1

> <preferred_name>
N-(4-Bromophenyl)urea

> <dsstox_substance_id>
DTXSID30173337

> <dsstox_compound_id>
DTXCID1095828

> <qc_level>
Public_Medium

> <Canonical_QSARr>
NC(=O)NC1C=CC(Br)=CC=1

> <InChI_Code_QSARr>
InChI=1S/C7H7BrN2O/c8-5-1-3-6(4-2-5)10-7(9)11/h1-4H,(H3,9,10,11)

> <InChI Key_QSARr>
PFQUUCXMPUNRLA-UHFFFAOYSA-N

> <Salt_Solvent>


> <Salt_Solvent_ID>
0

> <MPID>
99715

> <KocRef>
Schuurmann-Main

> <LogKOC>
2.06

> <Tr_1_Tst_0>
1

$$$$
100443
  Mrv171c012251911022D          

 11 11  0  0  0  0            999 V2000
    1.6499   -1.9841    0.0000 Cl  0  0  0  0  0  0  0  0  0  0  0  0
    2.3644   -1.5716    0.0000 C   0  0  0  0  0  0  0  0  0  0  0  0
    3.0789   -1.9841    0.0000 C   0  0  0  0  0  0  0  0  0  0  0  0
    3.7933   -1.5716    0.0000 C   0  0  0  0  0  0  0  0  0  0  0  0
    3.7933   -0.7466    0.0000 C   0  0  0  0  0  0  0  0  0  0  0  0
    3.0789   -0.3341    0.0000 C   0  0  0  0  0  0  0  0  0  0  0  0
    3.0789    0.4909    0.0000 N   0  0  0  0  0  0  0  0  0  0  0  0
    3.7933    0.9034    0.0000 C   0  0  0  0  0  0  0  0  0  0  0  0
    3.7933    1.7284    0.0000 N   0  0  0  0  0  0  0  0  0  0  0  0
    4.5078    0.4909    0.0000 O   0  0  0  0  0  0  0  0  0  0  0  0
    2.3644   -0.7466    0.0000 C   0  0  0  0  0  0  0  0  0  0  0  0
  1  2  1  0  0  0  0
  3  2  2  0  0  0  0
  4  3  1  0  0  0  0
  5  4  2  0  0  0  0
  6  5  1  0  0  0  0
  6  7  1  0  0  0  0
  7  8  1  0  0  0  0
  8  9  1  0  0  0  0
  8 10  2  0  0  0  0
 11  6  2  0  0  0  0
  2 11  1  0  0  0  0
M  END
> <ChemID>
100443

> <CAS>
1967-27-7

> <Original_SMILES>
NC(=O)Nc1cccc(Cl)c1

> <preferred_name>
3-Chlorophenylurea

> <dsstox_substance_id>
DTXSID90173338

> <dsstox_compound_id>
DTXCID6095829

> <qc_level>
Public_Medium

> <Canonical_QSARr>
NC(=O)NC1C=CC=C(Cl)C=1

> <InChI_Code_QSARr>
InChI=1S/C7H7ClN2O/c8-5-2-1-3-6(4-5)10-7(9)11/h1-4H,(H3,9,10,11)

> <InChI Key_QSARr>
PPCUBWWPGYHEJE-UHFFFAOYSA-N

> <Salt_Solvent>


> <Salt_Solvent_ID>
0

> <MPID>
99716

> <KocRef>
Schuurmann-Main

> <LogKOC>
2.01

> <Tr_1_Tst_0>
1

$$$$
100444
  Mrv171c012251911022D          

 20 21  0  0  0  0            999 V2000
    4.8542   -3.1343    0.0000 C   0  0  0  0  0  0  0  0  0  0  0  0
    4.1397   -2.7218    0.0000 N   0  0  0  0  0  0  0  0  0  0  0  0
    4.1397   -1.8968    0.0000 C   0  0  0  0  0  0  0  0  0  0  0  0
    4.8542   -1.4843    0.0000 C   0  0  0  0  0  0  0  0  0  0  0  0
    4.8542   -0.6593    0.0000 C   0  0  0  0  0  0  0  0  0  0  0  0
    4.1397   -0.2468    0.0000 C   0  0  0  0  0  0  0  0  0  0  0  0
    4.1397    0.5782    0.0000 O   0  0  0  0  0  0  0  0  0  0  0  0
    3.4252    0.9907    0.0000 C   0  0  0  0  0  0  0  0  0  0  0  0
    3.4252    1.8157    0.0000 C   0  0  0  0  0  0  0  0  0  0  0  0
    2.7108    2.2282    0.0000 C   0  0  0  0  0  0  0  0  0  0  0  0
    1.9963    1.8157    0.0000 C   0  0  0  0  0  0  0  0  0  0  0  0
    1.2818    2.2282    0.0000 Cl  0  0  0  0  0  0  0  0  0  0  0  0
    1.9963    0.9907    0.0000 C   0  0  0  0  0  0  0  0  0  0  0  0
    2.7108    0.5782    0.0000 C   0  0  0  0  0  0  0  0  0  0  0  0
    3.4252   -0.6593    0.0000 C   0  0  0  0  0  0  0  0  0  0  0  0
    3.4252   -1.4843    0.0000 C   0  0  0  0  0  0  0  0  0  0  0  0
    4.8542   -3.9593    0.0000 N   0  0  0  0  0  0  0  0  0  0  0  0
    5.5686   -4.3718    0.0000 C   0  0  0  0  0  0  0  0  0  0  0  0
    4.1397   -4.3718    0.0000 C   0  0  0  0  0  0  0  0  0  0  0  0
    5.5686   -2.7218    0.0000 O   0  0  0  0  0  0  0  0  0  0  0  0
  1  2  1  0  0  0  0
  2  3  1  0  0  0  0
  4  3  1  0  0  0  0
  5  4  2  0  0  0  0
  6  5  1  0  0  0  0
  6  7  1  0  0  0  0
  7  8  1  0  0  0  0
  9  8  1  0  0  0  0
 10  9  2  0  0  0  0
 11 10  1  0  0  0  0
 11 12  1  0  0  0  0
 13 11  2  0  0  0  0
 14 13  1  0  0  0  0
  8 14  2  0  0  0  0
 15  6  2  0  0  0  0
 16 15  1  0  0  0  0
  3 16  2  0  0  0  0
  1 17  1  0  0  0  0
 17 18  1  0  0  0  0
 17 19  1  0  0  0  0
  1 20  2  0  0  0  0
M  END
> <ChemID>
100444

> <CAS>
1982-47-4

> <Original_SMILES>
CN(C)C(=O)Nc1ccc(cc1)Oc1ccc(Cl)cc1

> <preferred_name>
Chloroxuron

> <dsstox_substance_id>
DTXSID7040287

> <dsstox_compound_id>
DTXCID5020287

> <qc_level>
DSSTox_Low

> <Canonical_QSARr>
CN(C)C(=O)NC1C=CC(=CC=1)OC1C=CC(Cl)=CC=1

> <InChI_Code_QSARr>
InChI=1S/C15H15ClN2O2/c1-18(2)15(19)17-12-5-9-14(10-6-12)20-13-7-3-11(16)4-8-13/h3-10H,1-2H3,(H,17,19)

> <InChI Key_QSARr>
IVUXTESCPZUGJC-UHFFFAOYSA-N

> <Salt_Solvent>


> <Salt_Solvent_ID>
0

> <MPID>
99717

> <KocRef>
Schuurmann-Main

> <LogKOC>
3.55

> <Tr_1_Tst_0>
0

$$$$
100445
  Mrv171c012251911022D          

 17 18  0  0  0  0            999 V2000
    3.0750   -0.8829    0.0000 C   0  0  0  0  0  0  0  0  0  0  0  0
    2.3606   -1.2954    0.0000 O   0  0  0  0  0  0  0  0  0  0  0  0
    3.7895   -1.2954    0.0000 N   0  0  0  0  0  0  0  0  0  0  0  0
    3.7895   -2.1204    0.0000 C   0  0  0  0  0  0  0  0  0  0  0  0
    3.0750   -2.5329    0.0000 C   0  0  0  0  0  0  0  0  0  0  0  0
    3.0750   -3.3579    0.0000 C   0  0  0  0  0  0  0  0  0  0  0  0
    3.7895   -3.7704    0.0000 C   0  0  0  0  0  0  0  0  0  0  0  0
    4.5040   -3.3579    0.0000 C   0  0  0  0  0  0  0  0  0  0  0  0
    4.5040   -2.5329    0.0000 C   0  0  0  0  0  0  0  0  0  0  0  0
    3.0750   -0.0579    0.0000 N   0  0  0  0  0  0  0  0  0  0  0  0
    2.3606    0.3546    0.0000 C   0  0  0  0  0  0  0  0  0  0  0  0
    2.3606    1.1796    0.0000 C   0  0  0  0  0  0  0  0  0  0  0  0
    1.6461    1.5921    0.0000 C   0  0  0  0  0  0  0  0  0  0  0  0
    0.9316    1.1796    0.0000 C   0  0  0  0  0  0  0  0  0  0  0  0
    0.9316    0.3546    0.0000 C   0  0  0  0  0  0  0  0  0  0  0  0
    1.6461   -0.0579    0.0000 C   0  0  0  0  0  0  0  0  0  0  0  0
    1.6461   -0.8829    0.0000 C   0  0  0  0  0  0  0  0  0  0  0  0
  1  2  2  0  0  0  0
  1  3  1  0  0  0  0
  3  4  1  0  0  0  0
  5  4  1  0  0  0  0
  6  5  2  0  0  0  0
  7  6  1  0  0  0  0
  8  7  2  0  0  0  0
  9  8  1  0  0  0  0
  4  9  2  0  0  0  0
  1 10  1  0  0  0  0
 10 11  1  0  0  0  0
 12 11  1  0  0  0  0
 13 12  1  0  0  0  0
 14 13  1  0  0  0  0
 15 14  1  0  0  0  0
 16 15  1  0  0  0  0
 11 16  1  0  0  0  0
 16 17  1  0  0  0  0
M  END
> <ChemID>
100445

> <CAS>
1982-49-6

> <Original_SMILES>
CC1CCCCC1NC(=O)Nc1ccccc1

> <preferred_name>
Siduron

> <dsstox_substance_id>
DTXSID7032474

> <dsstox_compound_id>
DTXCID5012474

> <qc_level>
DSSTox_Low

> <Canonical_QSARr>
CC1CCCCC1NC(=O)NC1=CC=CC=C1

> <InChI_Code_QSARr>
InChI=1S/C14H20N2O/c1-11-7-5-6-10-13(11)16-14(17)15-12-8-3-2-4-9-12/h2-4,8-9,11,13H,5-7,10H2,1H3,(H2,15,16,17)

> <InChI Key_QSARr>
JXVIIQLNUPXOII-UHFFFAOYSA-N

> <Salt_Solvent>


> <Salt_Solvent_ID>
0

> <MPID>
99718

> <KocRef>
Schuurmann-Main

> <LogKOC>
2.31

> <Tr_1_Tst_0>
1

$$$$
100446
  Mrv171c012251911022D          

 14 13  0  0  0  0            999 V2000
    0.9633   -1.6600    0.0000 C   0  0  0  0  0  0  0  0  0  0  0  0
    0.5508   -2.3745    0.0000 S   0  0  0  0  0  0  0  0  0  0  0  0
   -0.2742   -2.3745    0.0000 C   0  0  0  0  0  0  0  0  0  0  0  0
   -0.6867   -1.6600    0.0000 C   0  0  0  0  0  0  0  0  0  0  0  0
    0.5508   -0.9455    0.0000 O   0  0  0  0  0  0  0  0  0  0  0  0
    1.7883   -1.6600    0.0000 N   0  0  0  0  0  0  0  0  0  0  0  0
    2.2008   -0.9455    0.0000 C   0  0  0  0  0  0  0  0  0  0  0  0
    1.7883   -0.2311    0.0000 C   0  0  0  0  0  0  0  0  0  0  0  0
    0.9633   -0.2311    0.0000 C   0  0  0  0  0  0  0  0  0  0  0  0
    2.2008    0.4834    0.0000 C   0  0  0  0  0  0  0  0  0  0  0  0
    2.2008   -2.3745    0.0000 C   0  0  0  0  0  0  0  0  0  0  0  0
    3.0258   -2.3745    0.0000 C   0  0  0  0  0  0  0  0  0  0  0  0
    3.4383   -1.6600    0.0000 C   0  0  0  0  0  0  0  0  0  0  0  0
    3.4383   -3.0890    0.0000 C   0  0  0  0  0  0  0  0  0  0  0  0
  1  2  1  0  0  0  0
  2  3  1  0  0  0  0
  3  4  1  0  0  0  0
  1  5  2  0  0  0  0
  1  6  1  0  0  0  0
  6  7  1  0  0  0  0
  7  8  1  0  0  0  0
  8  9  1  0  0  0  0
  8 10  1  0  0  0  0
  6 11  1  0  0  0  0
 11 12  1  0  0  0  0
 12 13  1  0  0  0  0
 12 14  1  0  0  0  0
M  END
> <ChemID>
100446

> <CAS>
2008-41-5

> <Original_SMILES>
CCSC(=O)N(CC(C)C)CC(C)C

> <preferred_name>
Butylate

> <dsstox_substance_id>
DTXSID7023936

> <dsstox_compound_id>
DTXCID403936

> <qc_level>
DSSTox_Low

> <Canonical_QSARr>
CCSC(=O)N(CC(C)C)CC(C)C

> <InChI_Code_QSARr>
InChI=1S/C11H23NOS/c1-6-14-11(13)12(7-9(2)3)8-10(4)5/h9-10H,6-8H2,1-5H3

> <InChI Key_QSARr>
BMTAFVWTTFSTOG-UHFFFAOYSA-N

> <Salt_Solvent>


> <Salt_Solvent_ID>
0

> <MPID>
99719

> <KocRef>
Schuurmann-Main

> <LogKOC>
2.11

> <Tr_1_Tst_0>
1

$$$$
100447
  Mrv171c012251911022D          

 11 11  0  0  0  0            999 V2000
    2.1007   -1.6911    0.0000 C   0  0  0  0  0  0  0  0  0  0  0  0
    1.3862   -1.2786    0.0000 C   0  0  0  0  0  0  0  0  0  0  0  0
    1.3862   -0.4536    0.0000 C   0  0  0  0  0  0  0  0  0  0  0  0
    0.6717   -0.0411    0.0000 N   0  0  0  0  0  0  0  0  0  0  0  0
    2.1007   -0.0411    0.0000 O   0  0  0  0  0  0  0  0  0  0  0  0
    0.6717   -1.6911    0.0000 C   0  0  0  0  0  0  0  0  0  0  0  0
   -0.0428   -1.2786    0.0000 Cl  0  0  0  0  0  0  0  0  0  0  0  0
    0.6717   -2.5161    0.0000 C   0  0  0  0  0  0  0  0  0  0  0  0
    1.3862   -2.9286    0.0000 C   0  0  0  0  0  0  0  0  0  0  0  0
    2.1007   -2.5161    0.0000 C   0  0  0  0  0  0  0  0  0  0  0  0
    2.8151   -1.2786    0.0000 Cl  0  0  0  0  0  0  0  0  0  0  0  0
  2  1  1  0  0  0  0
  2  3  1  0  0  0  0
  3  4  1  0  0  0  0
  3  5  2  0  0  0  0
  6  2  2  0  0  0  0
  6  7  1  0  0  0  0
  8  6  1  0  0  0  0
  9  8  2  0  0  0  0
 10  9  1  0  0  0  0
  1 10  2  0  0  0  0
  1 11  1  0  0  0  0
M  END
> <ChemID>
100447

> <CAS>
2008-58-4

> <Original_SMILES>
NC(=O)c1c(Cl)cccc1Cl

> <preferred_name>
2,6-Dichlorobenzamide

> <dsstox_substance_id>
DTXSID7022170

> <dsstox_compound_id>
DTXCID502170

> <qc_level>
DSSTox_Low

> <Canonical_QSARr>
NC(=O)C1C(Cl)=CC=CC=1Cl

> <InChI_Code_QSARr>
InChI=1S/C7H5Cl2NO/c8-4-2-1-3-5(9)6(4)7(10)11/h1-3H,(H2,10,11)

> <InChI Key_QSARr>
JHSPCUHPSIUQRB-UHFFFAOYSA-N

> <Salt_Solvent>


> <Salt_Solvent_ID>
0

> <MPID>
99720

> <KocRef>
Schuurmann-Main

> <LogKOC>
0.53

> <Tr_1_Tst_0>
1

$$$$
100448
  Mrv171c012251911022D          

 15 15  0  0  0  0            999 V2000
    1.4778   -4.6200    0.0000 C   0  0  0  0  0  0  0  0  0  0  0  0
    2.1923   -4.2075    0.0000 N   0  0  0  0  0  0  0  0  0  0  0  0
    2.1923   -3.3825    0.0000 C   0  0  0  0  0  0  0  0  0  0  0  0
    2.9068   -2.9700    0.0000 O   0  0  0  0  0  0  0  0  0  0  0  0
    2.9068   -2.1450    0.0000 C   0  0  0  0  0  0  0  0  0  0  0  0
    3.6213   -1.7325    0.0000 C   0  0  0  0  0  0  0  0  0  0  0  0
    3.6213   -0.9075    0.0000 C   0  0  0  0  0  0  0  0  0  0  0  0
    2.9068   -0.4950    0.0000 C   0  0  0  0  0  0  0  0  0  0  0  0
    2.9068    0.3300    0.0000 N   0  0  0  0  0  0  0  0  0  0  0  0
    2.1923    0.7425    0.0000 C   0  0  0  0  0  0  0  0  0  0  0  0
    3.6213    0.7425    0.0000 C   0  0  0  0  0  0  0  0  0  0  0  0
    2.1923   -0.9075    0.0000 C   0  0  0  0  0  0  0  0  0  0  0  0
    1.4778   -0.4950    0.0000 C   0  0  0  0  0  0  0  0  0  0  0  0
    2.1923   -1.7325    0.0000 C   0  0  0  0  0  0  0  0  0  0  0  0
    1.4778   -2.9700    0.0000 O   0  0  0  0  0  0  0  0  0  0  0  0
  1  2  1  0  0  0  0
  2  3  1  0  0  0  0
  3  4  1  0  0  0  0
  4  5  1  0  0  0  0
  6  5  1  0  0  0  0
  7  6  2  0  0  0  0
  8  7  1  0  0  0  0
  8  9  1  0  0  0  0
  9 10  1  0  0  0  0
  9 11  1  0  0  0  0
 12  8  2  0  0  0  0
 12 13  1  0  0  0  0
 14 12  1  0  0  0  0
  5 14  2  0  0  0  0
  3 15  2  0  0  0  0
M  END
> <ChemID>
100448

> <CAS>
2032-59-9

> <Original_SMILES>
Cc1cc(ccc1N(C)C)OC(=O)NC

> <preferred_name>
Aminocarb

> <dsstox_substance_id>
DTXSID7022172

> <dsstox_compound_id>
DTXCID302172

> <qc_level>
DSSTox_Low

> <Canonical_QSARr>
CC1C=C(C=CC=1N(C)C)OC(=O)NC

> <InChI_Code_QSARr>
InChI=1S/C11H16N2O2/c1-8-7-9(15-11(14)12-2)5-6-10(8)13(3)4/h5-7H,1-4H3,(H,12,14)

> <InChI Key_QSARr>
IMIDOCRTMDIQIJ-UHFFFAOYSA-N

> <Salt_Solvent>


> <Salt_Solvent_ID>
0

> <MPID>
99721

> <KocRef>
USDA Pest Prop DB

> <LogKOC>
2.0

> <Tr_1_Tst_0>
0

$$$$
100449
  Mrv171c012251911022D          

 15 15  0  0  0  0            999 V2000
    2.8216   -2.0641    0.0000 C   0  0  0  0  0  0  0  0  0  0  0  0
    2.8216   -1.2391    0.0000 C   0  0  0  0  0  0  0  0  0  0  0  0
    2.1071   -0.8266    0.0000 C   0  0  0  0  0  0  0  0  0  0  0  0
    2.1071   -0.0016    0.0000 C   0  0  0  0  0  0  0  0  0  0  0  0
    1.3926   -1.2391    0.0000 C   0  0  0  0  0  0  0  0  0  0  0  0
    0.6782   -0.8266    0.0000 S   0  0  0  0  0  0  0  0  0  0  0  0
   -0.0363   -1.2391    0.0000 C   0  0  0  0  0  0  0  0  0  0  0  0
    1.3926   -2.0641    0.0000 C   0  0  0  0  0  0  0  0  0  0  0  0
    0.6782   -2.4766    0.0000 C   0  0  0  0  0  0  0  0  0  0  0  0
    2.1071   -2.4766    0.0000 C   0  0  0  0  0  0  0  0  0  0  0  0
    3.5361   -2.4766    0.0000 O   0  0  0  0  0  0  0  0  0  0  0  0
    4.2505   -2.0641    0.0000 C   0  0  0  0  0  0  0  0  0  0  0  0
    4.9650   -2.4766    0.0000 N   0  0  0  0  0  0  0  0  0  0  0  0
    5.6795   -2.0641    0.0000 C   0  0  0  0  0  0  0  0  0  0  0  0
    4.2505   -1.2391    0.0000 O   0  0  0  0  0  0  0  0  0  0  0  0
  2  1  1  0  0  0  0
  3  2  2  0  0  0  0
  3  4  1  0  0  0  0
  5  3  1  0  0  0  0
  5  6  1  0  0  0  0
  6  7  1  0  0  0  0
  8  5  2  0  0  0  0
  8  9  1  0  0  0  0
 10  8  1  0  0  0  0
  1 10  2  0  0  0  0
  1 11  1  0  0  0  0
 11 12  1  0  0  0  0
 12 13  1  0  0  0  0
 13 14  1  0  0  0  0
 12 15  2  0  0  0  0
M  END
> <ChemID>
100449

> <CAS>
2032-65-7

> <Original_SMILES>
CNC(=O)Oc1cc(C)c(SC)c(C)c1

> <preferred_name>
Methiocarb

> <dsstox_substance_id>
DTXSID3032626

> <dsstox_compound_id>
DTXCID1012626

> <qc_level>
DSSTox_Low

> <Canonical_QSARr>
CC1C=C(C=C(C)C=1SC)OC(=O)NC

> <InChI_Code_QSARr>
InChI=1S/C11H15NO2S/c1-7-5-9(14-11(13)12-3)6-8(2)10(7)15-4/h5-6H,1-4H3,(H,12,13)

> <InChI Key_QSARr>
YFBPRJGDJKVWAH-UHFFFAOYSA-N

> <Salt_Solvent>


> <Salt_Solvent_ID>
0

> <MPID>
99722

> <KocRef>
Schuurmann-Main

> <LogKOC>
2.32

> <Tr_1_Tst_0>
1

$$$$
100450
  Mrv171c012251911022D          

 13 14  0  0  0  0            999 V2000
    2.3045   -1.6232    0.0000 C   0  0  0  0  0  0  0  0  0  0  0  0
    2.3045   -2.4482    0.0000 C   0  0  0  0  0  0  0  0  0  0  0  0
    3.0190   -2.8607    0.0000 C   0  0  0  0  0  0  0  0  0  0  0  0
    3.7334   -2.4482    0.0000 C   0  0  0  0  0  0  0  0  0  0  0  0
    3.7334   -1.6232    0.0000 C   0  0  0  0  0  0  0  0  0  0  0  0
    3.0190   -1.2107    0.0000 C   0  0  0  0  0  0  0  0  0  0  0  0
    3.0190   -0.3857    0.0000 Cl  0  0  0  0  0  0  0  0  0  0  0  0
    1.5900   -1.2107    0.0000 C   0  0  0  0  0  0  0  0  0  0  0  0
    1.5900   -0.3857    0.0000 C   0  0  0  0  0  0  0  0  0  0  0  0
    0.8755    0.0268    0.0000 C   0  0  0  0  0  0  0  0  0  0  0  0
    0.1611   -0.3857    0.0000 C   0  0  0  0  0  0  0  0  0  0  0  0
    0.1611   -1.2107    0.0000 C   0  0  0  0  0  0  0  0  0  0  0  0
    0.8755   -1.6232    0.0000 C   0  0  0  0  0  0  0  0  0  0  0  0
  2  1  1  0  0  0  0
  3  2  2  0  0  0  0
  4  3  1  0  0  0  0
  5  4  2  0  0  0  0
  6  5  1  0  0  0  0
  1  6  2  0  0  0  0
  6  7  1  0  0  0  0
  1  8  1  0  0  0  0
  9  8  1  0  0  0  0
 10  9  2  0  0  0  0
 11 10  1  0  0  0  0
 12 11  2  0  0  0  0
 13 12  1  0  0  0  0
  8 13  2  0  0  0  0
M  END
> <ChemID>
100450

> <CAS>
2051-60-7

> <Original_SMILES>
Clc1ccccc1-c1ccccc1

> <preferred_name>
2-Chlorobiphenyl

> <dsstox_substance_id>
DTXSID6040298

> <dsstox_compound_id>
DTXCID4020298

> <qc_level>
DSSTox_Low

> <Canonical_QSARr>
ClC1C=CC=CC=1C1C=CC=CC=1

> <InChI_Code_QSARr>
InChI=1S/C12H9Cl/c13-12-9-5-4-8-11(12)10-6-2-1-3-7-10/h1-9H

> <InChI Key_QSARr>
LAXBNTIAOJWAOP-UHFFFAOYSA-N

> <Salt_Solvent>


> <Salt_Solvent_ID>
0

> <MPID>
99723

> <KocRef>
Schuurmann-Main

> <LogKOC>
3.47

> <Tr_1_Tst_0>
1

$$$$
100451
  Mrv171c012251911022D          

 20 20  0  0  0  0            999 V2000
    6.5084   -1.3200    0.0000 F   0  0  0  0  0  0  0  0  0  0  0  0
    5.7939   -0.9075    0.0000 C   0  0  0  0  0  0  0  0  0  0  0  0
    5.0794   -0.4950    0.0000 C   0  0  0  0  0  0  0  0  0  0  0  0
    5.0794    0.3300    0.0000 C   0  0  0  0  0  0  0  0  0  0  0  0
    4.3650    0.7425    0.0000 C   0  0  0  0  0  0  0  0  0  0  0  0
    4.3650    1.5675    0.0000 N   0  3  0  0  0  0  0  0  0  0  0  0
    3.6505    1.9800    0.0000 O   0  0  0  0  0  0  0  0  0  0  0  0
    5.0794    1.9800    0.0000 O   0  5  0  0  0  0  0  0  0  0  0  0
    3.6505    0.3300    0.0000 C   0  0  0  0  0  0  0  0  0  0  0  0
    2.9360    0.7425    0.0000 N   0  0  0  0  0  0  0  0  0  0  0  0
    2.2216    0.3300    0.0000 C   0  0  0  0  0  0  0  0  0  0  0  0
    1.5071    0.7425    0.0000 C   0  0  0  0  0  0  0  0  0  0  0  0
    0.7926    0.3300    0.0000 C   0  0  0  0  0  0  0  0  0  0  0  0
    3.6505   -0.4950    0.0000 C   0  0  0  0  0  0  0  0  0  0  0  0
    2.9360   -0.9075    0.0000 N   0  3  0  0  0  0  0  0  0  0  0  0
    2.9360   -1.7325    0.0000 O   0  0  0  0  0  0  0  0  0  0  0  0
    2.2216   -0.4950    0.0000 O   0  5  0  0  0  0  0  0  0  0  0  0
    4.3650   -0.9075    0.0000 C   0  0  0  0  0  0  0  0  0  0  0  0
    6.2064   -0.1930    0.0000 F   0  0  0  0  0  0  0  0  0  0  0  0
    5.3814   -1.6220    0.0000 F   0  0  0  0  0  0  0  0  0  0  0  0
  1  2  1  0  0  0  0
  2  3  1  0  0  0  0
  4  3  1  0  0  0  0
  5  4  2  0  0  0  0
  5  6  1  0  0  0  0
  6  7  2  0  0  0  0
  6  8  1  0  0  0  0
  9  5  1  0  0  0  0
  9 10  1  0  0  0  0
 10 11  1  0  0  0  0
 11 12  1  0  0  0  0
 12 13  1  0  0  0  0
 14  9  2  0  0  0  0
 14 15  1  0  0  0  0
 15 16  2  0  0  0  0
 15 17  1  0  0  0  0
 18 14  1  0  0  0  0
  3 18  2  0  0  0  0
  2 19  1  0  0  0  0
  2 20  1  0  0  0  0
M  CHG  4   6   1   8  -1  15   1  17  -1
M  END
> <ChemID>
100451

> <CAS>
2077-99-8

> <Original_SMILES>
CCCNc1c(cc(cc1[N+]([O-])=O)C(F)(F)F)[N+]([O-])=O

> <preferred_name>
Benzenamine, 2,6-dinitro-N-propyl-4-(trifluoromethyl)-

> <dsstox_substance_id>
DTXSID90174840

> <dsstox_compound_id>
DTXCID9097331

> <qc_level>
Public_Medium

> <Canonical_QSARr>
CCCNC1C(=CC(=CC=1[N+]([O-])=O)C(F)(F)F)[N+]([O-])=O

> <InChI_Code_QSARr>
InChI=1S/C10H10F3N3O4/c1-2-3-14-9-7(15(17)18)4-6(10(11,12)13)5-8(9)16(19)20/h4-5,14H,2-3H2,1H3

> <InChI Key_QSARr>
QXXIZJPWGJDHKR-UHFFFAOYSA-N

> <Salt_Solvent>


> <Salt_Solvent_ID>
0

> <MPID>
99724

> <KocRef>
SRC 1992 Validation

> <LogKOC>
3.61

> <Tr_1_Tst_0>
1

$$$$
100452
  Mrv171c012251911022D          

 21 22  0  0  0  0            999 V2000
    2.4555   -2.8039    0.0000 C   0  0  0  0  0  0  0  0  0  0  0  0
    3.2805   -2.8039    0.0000 C   0  0  0  0  0  0  0  0  0  0  0  0
    3.6930   -3.5183    0.0000 O   0  0  0  0  0  0  0  0  0  0  0  0
    4.5180   -3.5183    0.0000 P   0  0  0  0  0  0  0  0  0  0  0  0
    4.5180   -4.3433    0.0000 C   0  0  0  0  0  0  0  0  0  0  0  0
    3.8035   -4.7558    0.0000 C   0  0  0  0  0  0  0  0  0  0  0  0
    3.8035   -5.5808    0.0000 C   0  0  0  0  0  0  0  0  0  0  0  0
    4.5180   -5.9933    0.0000 C   0  0  0  0  0  0  0  0  0  0  0  0
    5.2325   -5.5808    0.0000 C   0  0  0  0  0  0  0  0  0  0  0  0
    5.2325   -4.7558    0.0000 C   0  0  0  0  0  0  0  0  0  0  0  0
    5.3430   -3.5183    0.0000 O   0  0  0  0  0  0  0  0  0  0  0  0
    5.7555   -2.8039    0.0000 C   0  0  0  0  0  0  0  0  0  0  0  0
    6.5805   -2.8039    0.0000 C   0  0  0  0  0  0  0  0  0  0  0  0
    6.9930   -2.0894    0.0000 C   0  0  0  0  0  0  0  0  0  0  0  0
    6.5805   -1.3749    0.0000 C   0  0  0  0  0  0  0  0  0  0  0  0
    6.9930   -0.6604    0.0000 N   0  3  0  0  0  0  0  0  0  0  0  0
    6.5805    0.0540    0.0000 O   0  5  0  0  0  0  0  0  0  0  0  0
    7.8180   -0.6604    0.0000 O   0  0  0  0  0  0  0  0  0  0  0  0
    5.7555   -1.3749    0.0000 C   0  0  0  0  0  0  0  0  0  0  0  0
    5.3430   -2.0894    0.0000 C   0  0  0  0  0  0  0  0  0  0  0  0
    4.5180   -2.6933    0.0000 S   0  0  0  0  0  0  0  0  0  0  0  0
  1  2  1  0  0  0  0
  2  3  1  0  0  0  0
  3  4  1  0  0  0  0
  4  5  1  0  0  0  0
  6  5  1  0  0  0  0
  7  6  2  0  0  0  0
  8  7  1  0  0  0  0
  9  8  2  0  0  0  0
 10  9  1  0  0  0  0
  5 10  2  0  0  0  0
  4 11  1  0  0  0  0
 11 12  1  0  0  0  0
 13 12  1  0  0  0  0
 14 13  2  0  0  0  0
 15 14  1  0  0  0  0
 15 16  1  0  0  0  0
 16 17  1  0  0  0  0
 16 18  2  0  0  0  0
 19 15  2  0  0  0  0
 20 19  1  0  0  0  0
 12 20  2  0  0  0  0
  4 21  2  0  0  0  0
M  CHG  2  16   1  17  -1
M  END
> <ChemID>
100452

> <CAS>
2104-64-5

> <Original_SMILES>
CCOP(=S)(Oc1ccc(cc1)[N+]([O-])=O)c1ccccc1

> <preferred_name>
EPN

> <dsstox_substance_id>
DTXSID7022174

> <dsstox_compound_id>
DTXCID102174

> <qc_level>
DSSTox_Low

> <Canonical_QSARr>
CCOP(=S)(OC1C=CC(=CC=1)[N+]([O-])=O)C1C=CC=CC=1

> <InChI_Code_QSARr>
InChI=1S/C14H14NO4PS/c1-2-18-20(21,14-6-4-3-5-7-14)19-13-10-8-12(9-11-13)15(16)17/h3-11H,2H2,1H3

> <InChI Key_QSARr>
AIGRXSNSLVJMEA-UHFFFAOYSA-N

> <Salt_Solvent>


> <Salt_Solvent_ID>
0

> <MPID>
99725

> <KocRef>
Schuurmann-Main

> <LogKOC>
3.12

> <Tr_1_Tst_0>
0

$$$$
100453
  Mrv171c012251911022D          

 16 17  0  0  0  0            999 V2000
    1.1135   -2.3992    0.0000 C   0  0  0  0  0  0  0  0  0  0  0  0
    1.8280   -1.9867    0.0000 C   0  0  0  0  0  0  0  0  0  0  0  0
    2.5424   -2.3992    0.0000 C   0  0  0  0  0  0  0  0  0  0  0  0
    3.2569   -1.9867    0.0000 C   0  0  0  0  0  0  0  0  0  0  0  0
    3.9714   -2.3992    0.0000 O   0  0  0  0  0  0  0  0  0  0  0  0
    4.6858   -1.9867    0.0000 C   0  0  0  0  0  0  0  0  0  0  0  0
    5.4003   -2.3992    0.0000 C   0  0  0  0  0  0  0  0  0  0  0  0
    3.2569   -1.1617    0.0000 O   0  0  0  0  0  0  0  0  0  0  0  0
    1.8280   -1.1617    0.0000 C   0  0  0  0  0  0  0  0  0  0  0  0
    1.1135   -0.7492    0.0000 C   0  0  0  0  0  0  0  0  0  0  0  0
    0.3990   -1.1617    0.0000 C   0  0  0  0  0  0  0  0  0  0  0  0
    0.3990   -1.9867    0.0000 C   0  0  0  0  0  0  0  0  0  0  0  0
   -0.3155   -2.3992    0.0000 C   0  0  0  0  0  0  0  0  0  0  0  0
   -0.3155   -3.2242    0.0000 C   0  0  0  0  0  0  0  0  0  0  0  0
    0.3990   -3.6367    0.0000 C   0  0  0  0  0  0  0  0  0  0  0  0
    1.1135   -3.2242    0.0000 C   0  0  0  0  0  0  0  0  0  0  0  0
  2  1  1  0  0  0  0
  2  3  1  0  0  0  0
  3  4  1  0  0  0  0
  4  5  1  0  0  0  0
  5  6  1  0  0  0  0
  6  7  1  0  0  0  0
  4  8  2  0  0  0  0
  9  2  2  0  0  0  0
 10  9  1  0  0  0  0
 11 10  2  0  0  0  0
 12 11  1  0  0  0  0
 12  1  2  0  0  0  0
 13 12  1  0  0  0  0
 14 13  2  0  0  0  0
 15 14  1  0  0  0  0
 16 15  2  0  0  0  0
  1 16  1  0  0  0  0
M  END
> <ChemID>
100453

> <CAS>
2122-70-5

> <Original_SMILES>
CCOC(=O)Cc1cccc2ccccc21

> <preferred_name>
Ethyl 1-naphthaleneacetate

> <dsstox_substance_id>
DTXSID3034583

> <dsstox_compound_id>
DTXCID1014583

> <qc_level>
DSSTox_Low

> <Canonical_QSARr>
CCOC(=O)CC1=CC=CC2C=CC=CC=21

> <InChI_Code_QSARr>
InChI=1S/C14H14O2/c1-2-16-14(15)10-12-8-5-7-11-6-3-4-9-13(11)12/h3-9H,2,10H2,1H3

> <InChI Key_QSARr>
XIDPSKQLXKCVQN-UHFFFAOYSA-N

> <Salt_Solvent>


> <Salt_Solvent_ID>
0

> <MPID>
99726

> <KocRef>
Schuurmann-Main

> <LogKOC>
2.48

> <Tr_1_Tst_0>
1

$$$$
100454
  Mrv171c012251911022D          

 20 21  0  0  0  0            999 V2000
    0.3572    1.4438    0.0000 C   0  0  0  0  0  0  0  0  0  0  0  0
   -0.3572    1.8563    0.0000 C   0  0  0  0  0  0  0  0  0  0  0  0
   -0.3572    2.6813    0.0000 Cl  0  0  0  0  0  0  0  0  0  0  0  0
   -1.0717    1.4438    0.0000 C   0  0  0  0  0  0  0  0  0  0  0  0
   -1.7862    1.8563    0.0000 Cl  0  0  0  0  0  0  0  0  0  0  0  0
   -1.0717    0.6188    0.0000 C   0  0  0  0  0  0  0  0  0  0  0  0
   -0.3572    0.2063    0.0000 C   0  0  0  0  0  0  0  0  0  0  0  0
   -0.3572   -0.6187    0.0000 Cl  0  0  0  0  0  0  0  0  0  0  0  0
    0.3572    0.6188    0.0000 C   0  0  0  0  0  0  0  0  0  0  0  0
    1.0717    0.2063    0.0000 Cl  0  0  0  0  0  0  0  0  0  0  0  0
    1.0717    1.8563    0.0000 C   0  0  0  0  0  0  0  0  0  0  0  0
    1.7862    1.4438    0.0000 C   0  0  0  0  0  0  0  0  0  0  0  0
    1.7862    0.6188    0.0000 Cl  0  0  0  0  0  0  0  0  0  0  0  0
    2.5006    1.8563    0.0000 C   0  0  0  0  0  0  0  0  0  0  0  0
    3.2151    1.4438    0.0000 Cl  0  0  0  0  0  0  0  0  0  0  0  0
    2.5006    2.6813    0.0000 C   0  0  0  0  0  0  0  0  0  0  0  0
    1.7862    3.0938    0.0000 C   0  0  0  0  0  0  0  0  0  0  0  0
    1.7862    3.9188    0.0000 Cl  0  0  0  0  0  0  0  0  0  0  0  0
    1.0717    2.6813    0.0000 C   0  0  0  0  0  0  0  0  0  0  0  0
    0.3572    3.0938    0.0000 Cl  0  0  0  0  0  0  0  0  0  0  0  0
  2  1  1  0  0  0  0
  2  3  1  0  0  0  0
  4  2  2  0  0  0  0
  4  5  1  0  0  0  0
  6  4  1  0  0  0  0
  7  6  2  0  0  0  0
  7  8  1  0  0  0  0
  9  7  1  0  0  0  0
  1  9  2  0  0  0  0
  9 10  1  0  0  0  0
  1 11  1  0  0  0  0
 12 11  1  0  0  0  0
 12 13  1  0  0  0  0
 14 12  2  0  0  0  0
 14 15  1  0  0  0  0
 16 14  1  0  0  0  0
 17 16  2  0  0  0  0
 17 18  1  0  0  0  0
 19 17  1  0  0  0  0
 11 19  2  0  0  0  0
 19 20  1  0  0  0  0
M  END
> <ChemID>
100454

> <CAS>
2136-99-4

> <Original_SMILES>
Clc1cc(Cl)c(Cl)c(-c2c(Cl)c(Cl)cc(Cl)c2Cl)c1Cl

> <preferred_name>
2,2',3,3',5,5',6,6'-Octachlorobiphenyl

> <dsstox_substance_id>
DTXSID0074132

> <dsstox_compound_id>
DTXCID1036468

> <qc_level>
Public_High

> <Canonical_QSARr>
ClC1C=C(Cl)C(Cl)=C(C2=C(Cl)C(Cl)=CC(Cl)=C2Cl)C=1Cl

> <InChI_Code_QSARr>
InChI=1S/C12H2Cl8/c13-3-1-4(14)10(18)7(9(3)17)8-11(19)5(15)2-6(16)12(8)20/h1-2H

> <InChI Key_QSARr>
JPOPEORRMSDUIP-UHFFFAOYSA-N

> <Salt_Solvent>


> <Salt_Solvent_ID>
0

> <MPID>
99727

> <KocRef>
Nguyen-Add

> <LogKOC>
6.36

> <Tr_1_Tst_0>
1

$$$$
100455
  Mrv171c012251911022D          

 12 12  0  0  0  0            999 V2000
    2.3645   -2.0625    0.0000 Cl  0  0  0  0  0  0  0  0  0  0  0  0
    3.0790   -1.6500    0.0000 C   0  0  0  0  0  0  0  0  0  0  0  0
    3.7934   -2.0625    0.0000 C   0  0  0  0  0  0  0  0  0  0  0  0
    4.5079   -1.6500    0.0000 C   0  0  0  0  0  0  0  0  0  0  0  0
    4.5079   -0.8250    0.0000 C   0  0  0  0  0  0  0  0  0  0  0  0
    3.7934   -0.4125    0.0000 C   0  0  0  0  0  0  0  0  0  0  0  0
    3.7934    0.4125    0.0000 N   0  0  0  0  0  0  0  0  0  0  0  0
    3.0790    0.8250    0.0000 C   0  0  0  0  0  0  0  0  0  0  0  0
    2.3645    0.4125    0.0000 O   0  0  0  0  0  0  0  0  0  0  0  0
    3.0790    1.6500    0.0000 O   0  0  0  0  0  0  0  0  0  0  0  0
    2.3645    2.0625    0.0000 C   0  0  0  0  0  0  0  0  0  0  0  0
    3.0790   -0.8250    0.0000 C   0  0  0  0  0  0  0  0  0  0  0  0
  1  2  1  0  0  0  0
  3  2  2  0  0  0  0
  4  3  1  0  0  0  0
  5  4  2  0  0  0  0
  6  5  1  0  0  0  0
  6  7  1  0  0  0  0
  7  8  1  0  0  0  0
  8  9  2  0  0  0  0
  8 10  1  0  0  0  0
 10 11  1  0  0  0  0
 12  6  2  0  0  0  0
  2 12  1  0  0  0  0
M  END
> <ChemID>
100455

> <CAS>
2150-88-1

> <Original_SMILES>
COC(=O)Nc1cccc(Cl)c1

> <preferred_name>
Methyl N-(3-chlorophenyl)carbamate

> <dsstox_substance_id>
DTXSID40175842

> <dsstox_compound_id>
DTXCID1098333

> <qc_level>
Public_Medium

> <Canonical_QSARr>
COC(=O)NC1C=CC=C(Cl)C=1

> <InChI_Code_QSARr>
InChI=1S/C8H8ClNO2/c1-12-8(11)10-7-4-2-3-6(9)5-7/h2-5H,1H3,(H,10,11)

> <InChI Key_QSARr>
SEPMCAVKHUPSMA-UHFFFAOYSA-N

> <Salt_Solvent>


> <Salt_Solvent_ID>
0

> <MPID>
99728

> <KocRef>
SRC 1992 Validation

> <LogKOC>
2.15

> <Tr_1_Tst_0>
1

$$$$
100456
  Mrv171c012251911022D          

 12 12  0  0  0  0            999 V2000
    4.7460    1.1687    0.0000 Cl  0  0  0  0  0  0  0  0  0  0  0  0
    4.0315    0.7562    0.0000 C   0  0  0  0  0  0  0  0  0  0  0  0
    3.3170    1.1687    0.0000 C   0  0  0  0  0  0  0  0  0  0  0  0
    3.3170    1.9937    0.0000 Cl  0  0  0  0  0  0  0  0  0  0  0  0
    2.6026    0.7562    0.0000 C   0  0  0  0  0  0  0  0  0  0  0  0
    2.6026   -0.0688    0.0000 C   0  0  0  0  0  0  0  0  0  0  0  0
    3.3170   -0.4813    0.0000 C   0  0  0  0  0  0  0  0  0  0  0  0
    3.3170   -1.3063    0.0000 N   0  0  0  0  0  0  0  0  0  0  0  0
    2.6026   -1.7188    0.0000 C   0  0  0  0  0  0  0  0  0  0  0  0
    2.6026   -2.5438    0.0000 C   0  0  0  0  0  0  0  0  0  0  0  0
    1.8881   -1.3063    0.0000 O   0  0  0  0  0  0  0  0  0  0  0  0
    4.0315   -0.0688    0.0000 C   0  0  0  0  0  0  0  0  0  0  0  0
  1  2  1  0  0  0  0
  3  2  2  0  0  0  0
  3  4  1  0  0  0  0
  5  3  1  0  0  0  0
  6  5  2  0  0  0  0
  7  6  1  0  0  0  0
  7  8  1  0  0  0  0
  8  9  1  0  0  0  0
  9 10  1  0  0  0  0
  9 11  2  0  0  0  0
 12  7  2  0  0  0  0
  2 12  1  0  0  0  0
M  END
> <ChemID>
100456

> <CAS>
2150-93-8

> <Original_SMILES>
CC(=O)Nc1cc(Cl)c(Cl)cc1

> <preferred_name>
3,4-Dichloroacetanilide

> <dsstox_substance_id>
DTXSID00175843

> <dsstox_compound_id>
DTXCID6098334

> <qc_level>
Public_Medium

> <Canonical_QSARr>
CC(=O)NC1=CC(Cl)=C(Cl)C=C1

> <InChI_Code_QSARr>
InChI=1S/C8H7Cl2NO/c1-5(12)11-6-2-3-7(9)8(10)4-6/h2-4H,1H3,(H,11,12)

> <InChI Key_QSARr>
SCYGGCAQZFJGRF-UHFFFAOYSA-N

> <Salt_Solvent>


> <Salt_Solvent_ID>
0

> <MPID>
99729

> <KocRef>
Schuurmann-Main

> <LogKOC>
2.34

> <Tr_1_Tst_0>
0

$$$$
100458
  Mrv171c012251911022D          

 17 19  0  0  0  0            999 V2000
   -0.6557   -1.4568    0.0000 N   0  0  0  0  0  0  0  0  0  0  0  0
    0.0588   -1.0443    0.0000 C   0  0  0  0  0  0  0  0  0  0  0  0
    0.7732   -1.4568    0.0000 O   0  0  0  0  0  0  0  0  0  0  0  0
    0.0588   -0.2193    0.0000 N   0  0  0  0  0  0  0  0  0  0  0  0
    0.7732    0.1932    0.0000 C   0  0  0  0  0  0  0  0  0  0  0  0
    1.4877   -0.2193    0.0000 C   0  0  0  0  0  0  0  0  0  0  0  0
    2.2022    0.1932    0.0000 C   0  0  0  0  0  0  0  0  0  0  0  0
    2.2022    1.0182    0.0000 C   0  0  0  0  0  0  0  0  0  0  0  0
    1.4877    1.4307    0.0000 C   0  0  0  0  0  0  0  0  0  0  0  0
    0.7732    1.0182    0.0000 C   0  0  0  0  0  0  0  0  0  0  0  0
   -0.6557    0.1932    0.0000 C   0  0  0  0  0  0  0  0  0  0  0  0
   -0.6557    1.0182    0.0000 O   0  0  0  0  0  0  0  0  0  0  0  0
   -1.3702   -0.2193    0.0000 C   0  0  0  0  0  0  0  0  0  0  0  0
   -2.1548    0.0356    0.0000 C   0  0  0  0  0  0  0  0  0  0  0  0
   -2.6397   -0.6318    0.0000 C   0  0  0  0  0  0  0  0  0  0  0  0
   -2.1548   -1.2993    0.0000 C   0  0  0  0  0  0  0  0  0  0  0  0
   -1.3702   -1.0443    0.0000 C   0  0  0  0  0  0  0  0  0  0  0  0
  2  1  1  0  0  0  0
  2  3  2  0  0  0  0
  4  2  1  0  0  0  0
  4  5  1  0  0  0  0
  6  5  1  0  0  0  0
  7  6  1  0  0  0  0
  8  7  1  0  0  0  0
  9  8  1  0  0  0  0
 10  9  1  0  0  0  0
  5 10  1  0  0  0  0
 11  4  1  0  0  0  0
 11 12  2  0  0  0  0
 13 11  1  0  0  0  0
 13 14  1  0  0  0  0
 14 15  1  0  0  0  0
 15 16  1  0  0  0  0
 16 17  1  0  0  0  0
  1 17  2  0  0  0  0
 17 13  1  0  0  0  0
M  END
> <ChemID>
100458

> <CAS>
2164-08-1

> <Original_SMILES>
O=C1C2CCCC=2NC(=O)N1C1CCCCC1

> <preferred_name>
Lenacil

> <dsstox_substance_id>
DTXSID9042093

> <dsstox_compound_id>
DTXCID7022093

> <qc_level>
DSSTox_Low

> <Canonical_QSARr>
O=C1C2CCCC2=NC(=O)N1C1CCCCC1

> <InChI_Code_QSARr>
InChI=1S/C13H18N2O2/c16-12-10-7-4-8-11(10)14-13(17)15(12)9-5-2-1-3-6-9/h9-10H,1-8H2

> <InChI Key_QSARr>
PKPGTPZQCCCCGG-UHFFFAOYSA-N

> <Salt_Solvent>


> <Salt_Solvent_ID>
0

> <MPID>
99731

> <KocRef>
USDA Pest Prop DB

> <LogKOC>
2.14

> <Tr_1_Tst_0>
1

$$$$
100459
  Mrv171c012251911022D          

 16 16  0  0  0  0            999 V2000
    3.0827   -3.1200    0.0000 O   0  0  0  0  0  0  0  0  0  0  0  0
    3.7972   -2.7075    0.0000 C   0  0  0  0  0  0  0  0  0  0  0  0
    4.5117   -3.1200    0.0000 N   0  0  0  0  0  0  0  0  0  0  0  0
    4.5117   -3.9450    0.0000 C   0  0  0  0  0  0  0  0  0  0  0  0
    5.2262   -2.7075    0.0000 C   0  0  0  0  0  0  0  0  0  0  0  0
    3.7972   -1.8825    0.0000 N   0  0  0  0  0  0  0  0  0  0  0  0
    3.0827   -1.4700    0.0000 C   0  0  0  0  0  0  0  0  0  0  0  0
    3.0827   -0.6450    0.0000 C   0  0  0  0  0  0  0  0  0  0  0  0
    2.3683   -0.2325    0.0000 C   0  0  0  0  0  0  0  0  0  0  0  0
    2.3683    0.5925    0.0000 C   0  0  0  0  0  0  0  0  0  0  0  0
    2.3683    1.4175    0.0000 F   0  0  0  0  0  0  0  0  0  0  0  0
    3.1933    0.5925    0.0000 F   0  0  0  0  0  0  0  0  0  0  0  0
    1.5433    0.5925    0.0000 F   0  0  0  0  0  0  0  0  0  0  0  0
    1.6538   -0.6450    0.0000 C   0  0  0  0  0  0  0  0  0  0  0  0
    1.6538   -1.4700    0.0000 C   0  0  0  0  0  0  0  0  0  0  0  0
    2.3683   -1.8825    0.0000 C   0  0  0  0  0  0  0  0  0  0  0  0
  1  2  2  0  0  0  0
  2  3  1  0  0  0  0
  3  4  1  0  0  0  0
  3  5  1  0  0  0  0
  2  6  1  0  0  0  0
  6  7  1  0  0  0  0
  8  7  1  0  0  0  0
  9  8  2  0  0  0  0
  9 10  1  0  0  0  0
 10 11  1  0  0  0  0
 10 12  1  0  0  0  0
 10 13  1  0  0  0  0
 14  9  1  0  0  0  0
 15 14  2  0  0  0  0
 16 15  1  0  0  0  0
  7 16  2  0  0  0  0
M  END
> <ChemID>
100459

> <CAS>
2164-17-2

> <Original_SMILES>
CN(C)C(=O)Nc1cc(ccc1)C(F)(F)F

> <preferred_name>
Fluometuron

> <dsstox_substance_id>
DTXSID8020628

> <dsstox_compound_id>
DTXCID40628

> <qc_level>
DSSTox_Low

> <Canonical_QSARr>
CN(C)C(=O)NC1C=C(C=CC=1)C(F)(F)F

> <InChI_Code_QSARr>
InChI=1S/C10H11F3N2O/c1-15(2)9(16)14-8-5-3-4-7(6-8)10(11,12)13/h3-6H,1-2H3,(H,14,16)

> <InChI Key_QSARr>
RZILCCPWPBTYDO-UHFFFAOYSA-N

> <Salt_Solvent>


> <Salt_Solvent_ID>
0

> <MPID>
99732

> <KocRef>
Schuurmann-SRC-USDA

> <LogKOC>
1.9

> <Tr_1_Tst_0>
1

$$$$
100460
  Mrv171c012251911022D          

 12 12  0  0  0  0            999 V2000
    1.7400   -1.2985    0.0000 N   0  0  0  0  0  0  0  0  0  0  0  0
    1.7400   -0.4735    0.0000 C   0  0  0  0  0  0  0  0  0  0  0  0
    2.4545   -0.0610    0.0000 S   0  0  0  0  0  0  0  0  0  0  0  0
    2.4545    0.7640    0.0000 C   0  0  0  0  0  0  0  0  0  0  0  0
    3.1689    1.1765    0.0000 C   0  0  0  0  0  0  0  0  0  0  0  0
    1.0255   -0.0610    0.0000 O   0  0  0  0  0  0  0  0  0  0  0  0
    0.9967   -1.6564    0.0000 C   0  0  0  0  0  0  0  0  0  0  0  0
    0.8131   -2.4607    0.0000 C   0  0  0  0  0  0  0  0  0  0  0  0
    1.3275   -3.1057    0.0000 C   0  0  0  0  0  0  0  0  0  0  0  0
    2.1525   -3.1057    0.0000 C   0  0  0  0  0  0  0  0  0  0  0  0
    2.6669   -2.4607    0.0000 C   0  0  0  0  0  0  0  0  0  0  0  0
    2.4833   -1.6564    0.0000 C   0  0  0  0  0  0  0  0  0  0  0  0
  1  2  1  0  0  0  0
  2  3  1  0  0  0  0
  3  4  1  0  0  0  0
  4  5  1  0  0  0  0
  2  6  2  0  0  0  0
  7  1  1  0  0  0  0
  8  7  1  0  0  0  0
  9  8  1  0  0  0  0
 10  9  1  0  0  0  0
 11 10  1  0  0  0  0
 12 11  1  0  0  0  0
  1 12  1  0  0  0  0
M  END
> <ChemID>
100460

> <CAS>
2212-67-1

> <Original_SMILES>
CCSC(=O)N1CCCCCC1

> <preferred_name>
Molinate

> <dsstox_substance_id>
DTXSID6024206

> <dsstox_compound_id>
DTXCID204206

> <qc_level>
DSSTox_Low

> <Canonical_QSARr>
CCSC(=O)N1CCCCCC1

> <InChI_Code_QSARr>
InChI=1S/C9H17NOS/c1-2-12-9(11)10-7-5-3-4-6-8-10/h2-8H2,1H3

> <InChI Key_QSARr>
DEDOPGXGGQYYMW-UHFFFAOYSA-N

> <Salt_Solvent>


> <Salt_Solvent_ID>
0

> <MPID>
99733

> <KocRef>
Schuurmann-Main

> <LogKOC>
1.92

> <Tr_1_Tst_0>
1

$$$$
100461
  Mrv171c012251911022D          

 20 21  0  0  0  0            999 V2000
    2.6559   -1.7824    0.0000 C   0  0  0  0  0  0  0  0  0  0  0  0
    3.2079   -1.1693    0.0000 Cl  0  0  0  0  0  0  0  0  0  0  0  0
    1.9884   -2.2673    0.0000 C   0  0  0  0  0  0  0  0  0  0  0  0
    1.2038   -2.0124    0.0000 Cl  0  0  0  0  0  0  0  0  0  0  0  0
    2.2434   -3.0520    0.0000 C   0  0  0  0  0  0  0  0  0  0  0  0
    1.7584   -3.7194    0.0000 Cl  0  0  0  0  0  0  0  0  0  0  0  0
    3.0684   -3.0520    0.0000 C   0  0  0  0  0  0  0  0  0  0  0  0
    3.5533   -3.7194    0.0000 Cl  0  0  0  0  0  0  0  0  0  0  0  0
    3.3233   -2.2673    0.0000 C   0  0  0  0  0  0  0  0  0  0  0  0
    4.1079   -2.0124    0.0000 Cl  0  0  0  0  0  0  0  0  0  0  0  0
    2.1038   -1.1693    0.0000 C   0  0  0  0  0  0  0  0  0  0  0  0
    1.5518   -1.7824    0.0000 Cl  0  0  0  0  0  0  0  0  0  0  0  0
    2.7713   -0.6844    0.0000 C   0  0  0  0  0  0  0  0  0  0  0  0
    3.5559   -0.9393    0.0000 Cl  0  0  0  0  0  0  0  0  0  0  0  0
    2.5163    0.1002    0.0000 C   0  0  0  0  0  0  0  0  0  0  0  0
    3.0013    0.7677    0.0000 Cl  0  0  0  0  0  0  0  0  0  0  0  0
    1.6913    0.1002    0.0000 C   0  0  0  0  0  0  0  0  0  0  0  0
    1.2064    0.7677    0.0000 Cl  0  0  0  0  0  0  0  0  0  0  0  0
    1.4364   -0.6844    0.0000 C   0  0  0  0  0  0  0  0  0  0  0  0
    0.6518   -0.9393    0.0000 Cl  0  0  0  0  0  0  0  0  0  0  0  0
  1  2  1  0  0  0  0
  3  1  1  0  0  0  0
  3  4  1  0  0  0  0
  5  3  2  0  0  0  0
  5  6  1  0  0  0  0
  7  5  1  0  0  0  0
  7  8  1  0  0  0  0
  9  7  2  0  0  0  0
  1  9  1  0  0  0  0
  9 10  1  0  0  0  0
  1 11  1  0  0  0  0
 11 12  1  0  0  0  0
 13 11  1  0  0  0  0
 13 14  1  0  0  0  0
 15 13  2  0  0  0  0
 15 16  1  0  0  0  0
 17 15  1  0  0  0  0
 17 18  1  0  0  0  0
 19 17  2  0  0  0  0
 11 19  1  0  0  0  0
 19 20  1  0  0  0  0
M  END
> <ChemID>
100461

> <CAS>
2227-17-0

> <Original_SMILES>
ClC1(C(Cl)=C(Cl)C(Cl)=C1Cl)C1(Cl)C(Cl)=C(Cl)C(Cl)=C1Cl

> <preferred_name>
Dienochlor

> <dsstox_substance_id>
DTXSID9032371

> <dsstox_compound_id>
DTXCID7012371

> <qc_level>
DSSTox_Low

> <Canonical_QSARr>
ClC1(C(Cl)=C(Cl)C(Cl)=C1Cl)C1(Cl)C(Cl)=C(Cl)C(Cl)=C1Cl

> <InChI_Code_QSARr>
InChI=1S/C10Cl10/c11-1-2(12)6(16)9(19,5(1)15)10(20)7(17)3(13)4(14)8(10)18

> <InChI Key_QSARr>
LWLJUMBEZJHXHV-UHFFFAOYSA-N

> <Salt_Solvent>


> <Salt_Solvent_ID>
0

> <MPID>
99734

> <KocRef>
USDA Pest Prop DB

> <LogKOC>
4.52

> <Tr_1_Tst_0>
0

$$$$
100462
  Mrv171c012251911022D          

 18 19  0  0  0  0            999 V2000
    2.1490   -1.2439    0.0000 C   0  0  0  0  0  0  0  0  0  0  0  0
    1.4345   -0.8314    0.0000 C   0  0  0  0  0  0  0  0  0  0  0  0
    1.4345   -0.0064    0.0000 Cl  0  0  0  0  0  0  0  0  0  0  0  0
    0.7201   -1.2439    0.0000 C   0  0  0  0  0  0  0  0  0  0  0  0
    0.0056   -0.8314    0.0000 Cl  0  0  0  0  0  0  0  0  0  0  0  0
    0.7201   -2.0689    0.0000 C   0  0  0  0  0  0  0  0  0  0  0  0
    0.0056   -2.4814    0.0000 Cl  0  0  0  0  0  0  0  0  0  0  0  0
    1.4345   -2.4814    0.0000 C   0  0  0  0  0  0  0  0  0  0  0  0
    1.4345   -3.3064    0.0000 Cl  0  0  0  0  0  0  0  0  0  0  0  0
    2.1490   -2.0689    0.0000 C   0  0  0  0  0  0  0  0  0  0  0  0
    2.8635   -2.4814    0.0000 C   0  0  0  0  0  0  0  0  0  0  0  0
    2.8635   -3.3064    0.0000 Cl  0  0  0  0  0  0  0  0  0  0  0  0
    3.5779   -2.0689    0.0000 C   0  0  0  0  0  0  0  0  0  0  0  0
    4.2924   -2.4814    0.0000 Cl  0  0  0  0  0  0  0  0  0  0  0  0
    3.5779   -1.2439    0.0000 C   0  0  0  0  0  0  0  0  0  0  0  0
    4.2924   -0.8314    0.0000 Cl  0  0  0  0  0  0  0  0  0  0  0  0
    2.8635   -0.8314    0.0000 C   0  0  0  0  0  0  0  0  0  0  0  0
    2.8635   -0.0064    0.0000 Cl  0  0  0  0  0  0  0  0  0  0  0  0
  2  1  1  0  0  0  0
  2  3  1  0  0  0  0
  4  2  2  0  0  0  0
  4  5  1  0  0  0  0
  6  4  1  0  0  0  0
  6  7  1  0  0  0  0
  8  6  2  0  0  0  0
  8  9  1  0  0  0  0
 10  8  1  0  0  0  0
 10  1  1  0  0  0  0
 11 10  2  0  0  0  0
 11 12  1  0  0  0  0
 13 11  1  0  0  0  0
 13 14  1  0  0  0  0
 15 13  2  0  0  0  0
 15 16  1  0  0  0  0
 17 15  1  0  0  0  0
  1 17  2  0  0  0  0
 17 18  1  0  0  0  0
M  END
> <ChemID>
100462

> <CAS>
2234-13-1

> <Original_SMILES>
Clc1c2c(c(Cl)c(Cl)c1Cl)c(Cl)c(Cl)c(Cl)c2Cl

> <preferred_name>
Octachloronaphthalene

> <dsstox_substance_id>
DTXSID6025800

> <dsstox_compound_id>
DTXCID105800

> <qc_level>
DSSTox_Low

> <Canonical_QSARr>
ClC1C2C(=C(Cl)C(Cl)=C(Cl)C=2Cl)C(Cl)=C(Cl)C=1Cl

> <InChI_Code_QSARr>
InChI=1S/C10Cl8/c11-3-1-2(5(13)9(17)7(3)15)6(14)10(18)8(16)4(1)12

> <InChI Key_QSARr>
RTNLUFLDZOAXIC-UHFFFAOYSA-N

> <Salt_Solvent>


> <Salt_Solvent_ID>
0

> <MPID>
99735

> <KocRef>
Schuurmann-Main

> <LogKOC>
5.89

> <Tr_1_Tst_0>
1

$$$$
100464
  Mrv171c012251911022D          

 15 14  0  0  0  0            999 V2000
    1.6500   -1.4289    0.0000 C   0  0  0  0  0  0  0  0  0  0  0  0
    2.4750   -1.4289    0.0000 C   0  0  0  0  0  0  0  0  0  0  0  0
    2.8875   -2.1434    0.0000 C   0  0  0  0  0  0  0  0  0  0  0  0
    2.8875   -0.7145    0.0000 N   0  0  0  0  0  0  0  0  0  0  0  0
    2.4750    0.0000    0.0000 C   0  0  0  0  0  0  0  0  0  0  0  0
    1.6500   -0.0000    0.0000 C   0  0  0  0  0  0  0  0  0  0  0  0
    2.8875    0.7145    0.0000 C   0  0  0  0  0  0  0  0  0  0  0  0
    3.7125   -0.7145    0.0000 C   0  0  0  0  0  0  0  0  0  0  0  0
    4.1250   -1.4289    0.0000 O   0  0  0  0  0  0  0  0  0  0  0  0
    4.1250    0.0000    0.0000 S   0  0  0  0  0  0  0  0  0  0  0  0
    4.9500    0.0000    0.0000 C   0  0  0  0  0  0  0  0  0  0  0  0
    5.3625    0.7145    0.0000 C   0  0  0  0  0  0  0  0  0  0  0  0
    4.9500    1.4289    0.0000 Cl  0  0  0  0  0  0  0  0  0  0  0  0
    6.1875    0.7145    0.0000 C   0  0  0  0  0  0  0  0  0  0  0  0
    6.6000    1.4289    0.0000 Cl  0  0  0  0  0  0  0  0  0  0  0  0
  1  2  1  0  0  0  0
  2  3  1  0  0  0  0
  2  4  1  0  0  0  0
  4  5  1  0  0  0  0
  5  6  1  0  0  0  0
  5  7  1  0  0  0  0
  4  8  1  0  0  0  0
  8  9  2  0  0  0  0
  8 10  1  0  0  0  0
 10 11  1  0  0  0  0
 11 12  1  0  0  0  0
 12 13  1  0  0  0  0
 12 14  2  0  0  0  0
 14 15  1  4  0  0  0
M  END
> <ChemID>
100464

> <CAS>
2303-16-4

> <Original_SMILES>
CC(C)N(C(C)C)C(=O)SCC(Cl)=CCl

> <preferred_name>
Diallate

> <dsstox_substance_id>
DTXSID2020391

> <dsstox_compound_id>
DTXCID40391

> <qc_level>
DSSTox_High

> <Canonical_QSARr>
CC(C)N(C(C)C)C(=O)SCC(Cl)=CCl

> <InChI_Code_QSARr>
InChI=1S/C10H17Cl2NOS/c1-7(2)13(8(3)4)10(14)15-6-9(12)5-11/h5,7-8H,6H2,1-4H3

> <InChI Key_QSARr>
SPANOECCGNXGNR-UHFFFAOYSA-N

> <Salt_Solvent>


> <Salt_Solvent_ID>
0

> <MPID>
99736

> <KocRef>
Schuurmann-Main

> <LogKOC>
3.28

> <Tr_1_Tst_0>
1

$$$$
100465
  Mrv171c012251911022D          

 16 15  0  0  0  0            999 V2000
    2.3456   -2.3322    0.0000 O   0  0  0  0  0  0  0  0  0  0  0  0
    2.7581   -1.6177    0.0000 C   0  0  0  0  0  0  0  0  0  0  0  0
    2.3456   -0.9032    0.0000 S   0  0  0  0  0  0  0  0  0  0  0  0
    1.5206   -0.9032    0.0000 C   0  0  0  0  0  0  0  0  0  0  0  0
    1.1081   -0.1888    0.0000 C   0  0  0  0  0  0  0  0  0  0  0  0
    1.5206    0.5257    0.0000 Cl  0  0  0  0  0  0  0  0  0  0  0  0
    0.2831   -0.1888    0.0000 C   0  0  0  0  0  0  0  0  0  0  0  0
   -0.1294   -0.9032    0.0000 Cl  0  0  0  0  0  0  0  0  0  0  0  0
   -0.1294    0.5257    0.0000 Cl  0  0  0  0  0  0  0  0  0  0  0  0
    3.5831   -1.6177    0.0000 N   0  0  0  0  0  0  0  0  0  0  0  0
    3.9956   -2.3322    0.0000 C   0  0  0  0  0  0  0  0  0  0  0  0
    4.8206   -2.3322    0.0000 C   0  0  0  0  0  0  0  0  0  0  0  0
    3.5831   -3.0466    0.0000 C   0  0  0  0  0  0  0  0  0  0  0  0
    3.9956   -0.9032    0.0000 C   0  0  0  0  0  0  0  0  0  0  0  0
    3.5831   -0.1888    0.0000 C   0  0  0  0  0  0  0  0  0  0  0  0
    4.8206   -0.9032    0.0000 C   0  0  0  0  0  0  0  0  0  0  0  0
  1  2  2  0  0  0  0
  2  3  1  0  0  0  0
  3  4  1  0  0  0  0
  4  5  1  0  0  0  0
  5  6  1  0  0  0  0
  5  7  2  0  0  0  0
  7  8  1  0  0  0  0
  7  9  1  0  0  0  0
  2 10  1  0  0  0  0
 10 11  1  0  0  0  0
 11 12  1  0  0  0  0
 11 13  1  0  0  0  0
 10 14  1  0  0  0  0
 14 15  1  0  0  0  0
 14 16  1  0  0  0  0
M  END
> <ChemID>
100465

> <CAS>
2303-17-5

> <Original_SMILES>
CC(C)N(C(C)C)C(=O)SCC(Cl)=C(Cl)Cl

> <preferred_name>
Tri-allate

> <dsstox_substance_id>
DTXSID5024344

> <dsstox_compound_id>
DTXCID804344

> <qc_level>
DSSTox_Low

> <Canonical_QSARr>
CC(C)N(C(C)C)C(=O)SCC(Cl)=C(Cl)Cl

> <InChI_Code_QSARr>
InChI=1S/C10H16Cl3NOS/c1-6(2)14(7(3)4)10(15)16-5-8(11)9(12)13/h6-7H,5H2,1-4H3

> <InChI Key_QSARr>
MWBPRDONLNQCFV-UHFFFAOYSA-N

> <Salt_Solvent>


> <Salt_Solvent_ID>
0

> <MPID>
99737

> <KocRef>
Schuurmann-Main

> <LogKOC>
3.35

> <Tr_1_Tst_0>
1

$$$$
100466
  Mrv171c012251911022D          

 16 16  0  0  0  0            999 V2000
    1.9353   -1.3421    0.0000 C   0  0  0  0  0  0  0  0  0  0  0  0
    1.2209   -1.7546    0.0000 C   0  0  0  0  0  0  0  0  0  0  0  0
    1.2209   -2.5796    0.0000 C   0  0  0  0  0  0  0  0  0  0  0  0
    0.5064   -1.3421    0.0000 C   0  0  0  0  0  0  0  0  0  0  0  0
   -0.2081   -1.7546    0.0000 C   0  0  0  0  0  0  0  0  0  0  0  0
   -0.9225   -1.3421    0.0000 C   0  0  0  0  0  0  0  0  0  0  0  0
    1.9353   -0.5171    0.0000 O   0  0  0  0  0  0  0  0  0  0  0  0
    2.6498   -1.7546    0.0000 N   0  0  0  0  0  0  0  0  0  0  0  0
    3.3643   -1.3421    0.0000 C   0  0  0  0  0  0  0  0  0  0  0  0
    4.0788   -1.7546    0.0000 C   0  0  0  0  0  0  0  0  0  0  0  0
    4.7932   -1.3421    0.0000 C   0  0  0  0  0  0  0  0  0  0  0  0
    4.7932   -0.5171    0.0000 C   0  0  0  0  0  0  0  0  0  0  0  0
    5.5077   -0.1046    0.0000 C   0  0  0  0  0  0  0  0  0  0  0  0
    4.0788   -0.1046    0.0000 C   0  0  0  0  0  0  0  0  0  0  0  0
    4.0788    0.7204    0.0000 Cl  0  0  0  0  0  0  0  0  0  0  0  0
    3.3643   -0.5171    0.0000 C   0  0  0  0  0  0  0  0  0  0  0  0
  1  2  1  0  0  0  0
  2  3  1  0  0  0  0
  2  4  1  0  0  0  0
  4  5  1  0  0  0  0
  5  6  1  0  0  0  0
  1  7  2  0  0  0  0
  1  8  1  0  0  0  0
  8  9  1  0  0  0  0
 10  9  2  0  0  0  0
 11 10  1  0  0  0  0
 12 11  2  0  0  0  0
 12 13  1  0  0  0  0
 14 12  1  0  0  0  0
 14 15  1  0  0  0  0
 16 14  2  0  0  0  0
  9 16  1  0  0  0  0
M  END
> <ChemID>
100466

> <CAS>
2307-68-8

> <Original_SMILES>
Cc1ccc(cc1Cl)NC(=O)C(C)CCC

> <preferred_name>
Pentanochlor

> <dsstox_substance_id>
DTXSID3042265

> <dsstox_compound_id>
DTXCID1022265

> <qc_level>
DSSTox_Low

> <Canonical_QSARr>
CC1=CC=C(C=C1Cl)NC(=O)C(C)CCC

> <InChI_Code_QSARr>
InChI=1S/C13H18ClNO/c1-4-5-10(3)13(16)15-11-7-6-9(2)12(14)8-11/h6-8,10H,4-5H2,1-3H3,(H,15,16)

> <InChI Key_QSARr>
WGVWLKXZBUVUAM-UHFFFAOYSA-N

> <Salt_Solvent>


> <Salt_Solvent_ID>
0

> <MPID>
99738

> <KocRef>
Schuurmann-Main

> <LogKOC>
2.76

> <Tr_1_Tst_0>
0

$$$$
100467
  Mrv171c012251911022D          

 21 22  0  0  0  0            999 V2000
    2.2905   -2.6123    0.0000 N   0  0  0  0  0  0  0  0  0  0  0  0
    2.0355   -1.8277    0.0000 C   0  0  0  0  0  0  0  0  0  0  0  0
    1.2286   -1.6562    0.0000 S   0  0  0  0  0  0  0  0  0  0  0  0
    0.9736   -0.8715    0.0000 P   0  0  0  0  0  0  0  0  0  0  0  0
    0.7187   -0.0869    0.0000 O   0  0  0  0  0  0  0  0  0  0  0  0
    1.2707    0.5262    0.0000 C   0  0  0  0  0  0  0  0  0  0  0  0
    2.0777    0.3546    0.0000 C   0  0  0  0  0  0  0  0  0  0  0  0
    0.1890   -1.1265    0.0000 O   0  0  0  0  0  0  0  0  0  0  0  0
   -0.4241   -0.5744    0.0000 C   0  0  0  0  0  0  0  0  0  0  0  0
   -0.2526    0.2325    0.0000 C   0  0  0  0  0  0  0  0  0  0  0  0
    1.7582   -0.6166    0.0000 S   0  0  0  0  0  0  0  0  0  0  0  0
    3.0751   -2.8672    0.0000 C   0  0  0  0  0  0  0  0  0  0  0  0
    3.7896   -2.4547    0.0000 C   0  0  0  0  0  0  0  0  0  0  0  0
    4.5040   -2.8672    0.0000 C   0  0  0  0  0  0  0  0  0  0  0  0
    4.5040   -3.6922    0.0000 C   0  0  0  0  0  0  0  0  0  0  0  0
    5.2185   -4.1047    0.0000 Cl  0  0  0  0  0  0  0  0  0  0  0  0
    3.7896   -4.1047    0.0000 C   0  0  0  0  0  0  0  0  0  0  0  0
    3.0751   -3.6922    0.0000 C   0  0  0  0  0  0  0  0  0  0  0  0
    2.2905   -3.9472    0.0000 O   0  0  0  0  0  0  0  0  0  0  0  0
    1.8055   -3.2797    0.0000 C   0  0  0  0  0  0  0  0  0  0  0  0
    0.9805   -3.2797    0.0000 O   0  0  0  0  0  0  0  0  0  0  0  0
  1  2  1  0  0  0  0
  2  3  1  0  0  0  0
  3  4  1  0  0  0  0
  4  5  1  0  0  0  0
  5  6  1  0  0  0  0
  6  7  1  0  0  0  0
  4  8  1  0  0  0  0
  8  9  1  0  0  0  0
  9 10  1  0  0  0  0
  4 11  2  0  0  0  0
 12  1  1  0  0  0  0
 12 13  2  0  0  0  0
 13 14  1  0  0  0  0
 14 15  2  0  0  0  0
 15 16  1  0  0  0  0
 15 17  1  0  0  0  0
 17 18  2  0  0  0  0
 18 12  1  0  0  0  0
 19 18  1  0  0  0  0
 20 19  1  0  0  0  0
  1 20  1  0  0  0  0
 20 21  2  0  0  0  0
M  END
> <ChemID>
100467

> <CAS>
2310-17-0

> <Original_SMILES>
CCOP(=S)(OCC)SCN1C(=O)Oc2cc(Cl)ccc12

> <preferred_name>
Phosalone

> <dsstox_substance_id>
DTXSID1024259

> <dsstox_compound_id>
DTXCID904259

> <qc_level>
DSSTox_Low

> <Canonical_QSARr>
CCOP(=S)(OCC)SCN1C(=O)OC2=CC(Cl)=CC=C12

> <InChI_Code_QSARr>
InChI=1S/C12H15ClNO4PS2/c1-3-16-19(20,17-4-2)21-8-14-10-6-5-9(13)7-11(10)18-12(14)15/h5-7H,3-4,8H2,1-2H3

> <InChI Key_QSARr>
IOUNQDKNJZEDEP-UHFFFAOYSA-N

> <Salt_Solvent>


> <Salt_Solvent_ID>
0

> <MPID>
99739

> <KocRef>
Schuurmann-Main

> <LogKOC>
2.63

> <Tr_1_Tst_0>
1

$$$$
100468
  Mrv171c012251911022D          

 24 25  0  0  0  0            999 V2000
    1.2259   -2.4962    0.0000 S   0  0  0  0  0  0  0  0  0  0  0  0
    0.5114   -2.0837    0.0000 O   0  0  0  0  0  0  0  0  0  0  0  0
   -0.2031   -2.4962    0.0000 C   0  0  0  0  0  0  0  0  0  0  0  0
   -0.9175   -2.0837    0.0000 C   0  0  0  0  0  0  0  0  0  0  0  0
   -1.6320   -1.6712    0.0000 C   0  0  0  0  0  0  0  0  0  0  0  0
    1.2259   -3.3212    0.0000 O   0  0  0  0  0  0  0  0  0  0  0  0
    1.9404   -2.0837    0.0000 O   0  0  0  0  0  0  0  0  0  0  0  0
    2.6548   -2.4962    0.0000 C   0  0  0  0  0  0  0  0  0  0  0  0
    2.6548   -3.3212    0.0000 C   0  0  0  0  0  0  0  0  0  0  0  0
    3.3693   -3.7337    0.0000 C   0  0  0  0  0  0  0  0  0  0  0  0
    4.0838   -3.3212    0.0000 C   0  0  0  0  0  0  0  0  0  0  0  0
    4.0838   -2.4962    0.0000 C   0  0  0  0  0  0  0  0  0  0  0  0
    3.3693   -2.0837    0.0000 C   0  0  0  0  0  0  0  0  0  0  0  0
    3.3693   -1.2587    0.0000 O   0  0  0  0  0  0  0  0  0  0  0  0
    4.0838   -0.8462    0.0000 C   0  0  0  0  0  0  0  0  0  0  0  0
    4.7982   -1.2587    0.0000 C   0  0  0  0  0  0  0  0  0  0  0  0
    5.5127   -0.8462    0.0000 C   0  0  0  0  0  0  0  0  0  0  0  0
    5.5127   -0.0212    0.0000 C   0  0  0  0  0  0  0  0  0  0  0  0
    6.2272    0.3913    0.0000 C   0  0  0  0  0  0  0  0  0  0  0  0
    6.9417    0.8038    0.0000 C   0  0  0  0  0  0  0  0  0  0  0  0
    6.6397   -0.3231    0.0000 C   0  0  0  0  0  0  0  0  0  0  0  0
    5.8147    1.1058    0.0000 C   0  0  0  0  0  0  0  0  0  0  0  0
    4.7982    0.3913    0.0000 C   0  0  0  0  0  0  0  0  0  0  0  0
    4.0838   -0.0212    0.0000 C   0  0  0  0  0  0  0  0  0  0  0  0
  1  2  1  0  0  0  0
  2  3  1  0  0  0  0
  3  4  1  0  0  0  0
  4  5  3  0  0  0  0
  1  6  2  0  0  0  0
  1  7  1  0  0  0  0
  7  8  1  0  0  0  0
  9  8  1  0  0  0  0
 10  9  1  0  0  0  0
 11 10  1  0  0  0  0
 12 11  1  0  0  0  0
 13 12  1  0  0  0  0
  8 13  1  0  0  0  0
 13 14  1  0  0  0  0
 14 15  1  0  0  0  0
 16 15  2  0  0  0  0
 17 16  1  0  0  0  0
 18 17  2  0  0  0  0
 18 19  1  0  0  0  0
 19 20  1  0  0  0  0
 19 21  1  0  0  0  0
 19 22  1  0  0  0  0
 23 18  1  0  0  0  0
 24 23  2  0  0  0  0
 15 24  1  0  0  0  0
M  END
> <ChemID>
100468

> <CAS>
2312-35-8

> <Original_SMILES>
CC(C)(C)c1ccc(cc1)OC1CCCCC1OS(=O)OCC#C

> <preferred_name>
Propargite

> <dsstox_substance_id>
DTXSID4024276

> <dsstox_compound_id>
DTXCID304276

> <qc_level>
DSSTox_Low

> <Canonical_QSARr>
CC(C)(C)C1=CC=C(C=C1)OC1CCCCC1OS(=O)OCC#C

> <InChI_Code_QSARr>
InChI=1S/C19H26O4S/c1-5-14-21-24(20)23-18-9-7-6-8-17(18)22-16-12-10-15(11-13-16)19(2,3)4/h1,10-13,17-18H,6-9,14H2,2-4H3

> <InChI Key_QSARr>
ZYHMJXZULPZUED-UHFFFAOYSA-N

> <Salt_Solvent>


> <Salt_Solvent_ID>
0

> <MPID>
99740

> <KocRef>
Schuurmann-Main

> <LogKOC>
3.6

> <Tr_1_Tst_0>
1

$$$$
100469
  Mrv171c012251911022D          

 12 12  0  0  0  0            999 V2000
    3.3259   -2.8825    0.0000 C   0  0  0  0  0  0  0  0  0  0  0  0
    4.0403   -3.2950    0.0000 N   0  0  0  0  0  0  0  0  0  0  0  0
    3.3259   -2.0575    0.0000 N   0  0  0  0  0  0  0  0  0  0  0  0
    2.6114   -1.6450    0.0000 C   0  0  0  0  0  0  0  0  0  0  0  0
    2.6114   -0.8200    0.0000 C   0  0  0  0  0  0  0  0  0  0  0  0
    1.8969   -0.4075    0.0000 C   0  0  0  0  0  0  0  0  0  0  0  0
    1.8969    0.4175    0.0000 Cl  0  0  0  0  0  0  0  0  0  0  0  0
    1.1825   -0.8200    0.0000 C   0  0  0  0  0  0  0  0  0  0  0  0
    0.4680   -0.4075    0.0000 Cl  0  0  0  0  0  0  0  0  0  0  0  0
    1.1825   -1.6450    0.0000 C   0  0  0  0  0  0  0  0  0  0  0  0
    1.8969   -2.0575    0.0000 C   0  0  0  0  0  0  0  0  0  0  0  0
    2.6114   -3.2950    0.0000 O   0  0  0  0  0  0  0  0  0  0  0  0
  1  2  1  0  0  0  0
  1  3  1  0  0  0  0
  3  4  1  0  0  0  0
  5  4  1  0  0  0  0
  6  5  2  0  0  0  0
  6  7  1  0  0  0  0
  8  6  1  0  0  0  0
  8  9  1  0  0  0  0
 10  8  2  0  0  0  0
 11 10  1  0  0  0  0
  4 11  2  0  0  0  0
  1 12  2  0  0  0  0
M  END
> <ChemID>
100469

> <CAS>
2327-02-8

> <Original_SMILES>
NC(=O)Nc1cc(Cl)c(Cl)cc1

> <preferred_name>
3,4-Dichlorophenylurea

> <dsstox_substance_id>
DTXSID2041468

> <dsstox_compound_id>
DTXCID0021468

> <qc_level>
DSSTox_Low

> <Canonical_QSARr>
NC(=O)NC1C=C(Cl)C(Cl)=CC=1

> <InChI_Code_QSARr>
InChI=1S/C7H6Cl2N2O/c8-5-2-1-4(3-6(5)9)11-7(10)12/h1-3H,(H3,10,11,12)

> <InChI Key_QSARr>
CYESCLHCWJKRKM-UHFFFAOYSA-N

> <Salt_Solvent>


> <Salt_Solvent_ID>
0

> <MPID>
99741

> <KocRef>
Schuurmann-Main

> <LogKOC>
2.53

> <Tr_1_Tst_0>
1

$$$$
100470
  Mrv171c012251911022D          

 22 26  0  0  0  0            999 V2000
    2.1662   -0.5944    0.0000 C   0  0  0  0  0  0  0  0  0  0  0  0
    2.4248    0.1890    0.0000 Cl  0  0  0  0  0  0  0  0  0  0  0  0
    2.2004   -1.2333    0.0000 C   0  0  0  0  0  0  0  0  0  0  0  0
    2.2867   -2.3035    0.0000 C   0  0  0  0  0  0  0  0  0  0  0  0
    2.8140   -2.0472    0.0000 C   0  0  0  0  0  0  0  0  0  0  0  0
    1.7458   -2.2129    0.0000 C   0  0  0  0  0  0  0  0  0  0  0  0
    1.1128   -2.7419    0.0000 Cl  0  0  0  0  0  0  0  0  0  0  0  0
    1.9165   -1.6139    0.0000 C   0  0  0  0  0  0  0  0  0  0  0  0
    0.8878   -1.5630    0.0000 C   0  0  0  0  0  0  0  0  0  0  0  0
    1.2172   -0.7010    0.0000 C   0  0  0  0  0  0  0  0  0  0  0  0
    0.7121   -0.0487    0.0000 Cl  0  0  0  0  0  0  0  0  0  0  0  0
    1.4615   -1.2803    0.0000 C   0  0  0  0  0  0  0  0  0  0  0  0
    0.9991   -1.9636    0.0000 Cl  0  0  0  0  0  0  0  0  0  0  0  0
    0.5619   -2.3209    0.0000 Cl  0  0  0  0  0  0  0  0  0  0  0  0
    0.0628   -1.5561    0.0000 Cl  0  0  0  0  0  0  0  0  0  0  0  0
    1.7560   -0.8046    0.0000 Cl  0  0  0  0  0  0  0  0  0  0  0  0
    2.8089   -1.1927    0.0000 C   0  0  0  0  0  0  0  0  0  0  0  0
    3.6241   -1.3196    0.0000 Cl  0  0  0  0  0  0  0  0  0  0  0  0
    3.5146   -2.4828    0.0000 Cl  0  0  0  0  0  0  0  0  0  0  0  0
    1.5470   -2.6688    0.0000 Cl  0  0  0  0  0  0  0  0  0  0  0  0
    2.3479   -3.1262    0.0000 Cl  0  0  0  0  0  0  0  0  0  0  0  0
    3.0003   -1.4351    0.0000 Cl  0  0  0  0  0  0  0  0  0  0  0  0
  1  2  1  0  0  0  0
  3  1  1  0  0  0  0
  3  4  1  0  0  0  0
  4  5  1  0  0  0  0
  5  6  1  0  0  0  0
  6  7  1  0  0  0  0
  8  6  1  0  0  0  0
  9  8  1  0  0  0  0
 10  9  1  0  0  0  0
 10  1  1  0  0  0  0
 10 11  1  0  0  0  0
 12 10  1  0  0  0  0
 12  3  1  0  0  0  0
  6 12  1  0  0  0  0
 12 13  1  0  0  0  0
  9 14  1  0  0  0  0
  9 15  1  0  0  0  0
  8 16  1  0  0  0  0
  8 17  1  0  0  0  0
  1 17  1  0  0  0  0
 17  5  1  0  0  0  0
 17 18  1  0  0  0  0
  5 19  1  0  0  0  0
  4 20  1  0  0  0  0
  4 21  1  0  0  0  0
  3 22  1  0  0  0  0
M  END
> <ChemID>
100470

> <CAS>
2385-85-5

> <Original_SMILES>
ClC1(Cl)C2(Cl)C3(Cl)C4(Cl)C2(Cl)C2(Cl)C(Cl)(C3(Cl)C12Cl)C4(Cl)Cl

> <preferred_name>
Mirex

> <dsstox_substance_id>
DTXSID7020895

> <dsstox_compound_id>
DTXCID10895

> <qc_level>
DSSTox_Low

> <Canonical_QSARr>
ClC1(Cl)C2(Cl)C3(Cl)C4(Cl)C2(Cl)C2(Cl)C(Cl)(C3(Cl)C12Cl)C4(Cl)Cl

> <InChI_Code_QSARr>
InChI=1S/C10Cl12/c11-1-2(12)7(17)4(14)3(13,5(1,15)9(7,19)20)6(1,16)10(21,22)8(2,4)18

> <InChI Key_QSARr>
GVYLCNUFSHDAAW-UHFFFAOYSA-N

> <Salt_Solvent>


> <Salt_Solvent_ID>
0

> <MPID>
99742

> <KocRef>
Schuurmann-Main

> <LogKOC>
6.0

> <Tr_1_Tst_0>
0

$$$$
100471
  Mrv171c012251911022D          

 18 19  0  0  0  0            999 V2000
    3.6384   -2.4699    0.0000 C   0  0  0  0  0  0  0  0  0  0  0  0
    4.3529   -2.8824    0.0000 C   0  0  0  0  0  0  0  0  0  0  0  0
    5.0674   -2.4699    0.0000 C   0  0  0  0  0  0  0  0  0  0  0  0
    5.0674   -1.6449    0.0000 C   0  0  0  0  0  0  0  0  0  0  0  0
    4.3529   -1.2324    0.0000 C   0  0  0  0  0  0  0  0  0  0  0  0
    3.6384   -1.6449    0.0000 C   0  0  0  0  0  0  0  0  0  0  0  0
    2.8538   -1.3900    0.0000 C   0  0  0  0  0  0  0  0  0  0  0  0
    2.5988   -0.6054    0.0000 O   0  0  0  0  0  0  0  0  0  0  0  0
    2.3689   -2.0574    0.0000 N   0  0  0  0  0  0  0  0  0  0  0  0
    1.5439   -2.0574    0.0000 S   0  0  0  0  0  0  0  0  0  0  0  0
    1.1314   -1.3430    0.0000 C   0  0  0  0  0  0  0  0  0  0  0  0
    1.8458   -0.9305    0.0000 Cl  0  0  0  0  0  0  0  0  0  0  0  0
    0.4169   -1.7555    0.0000 Cl  0  0  0  0  0  0  0  0  0  0  0  0
    0.7189   -0.6285    0.0000 C   0  0  0  0  0  0  0  0  0  0  0  0
   -0.1061   -0.6285    0.0000 Cl  0  0  0  0  0  0  0  0  0  0  0  0
    1.1314    0.0860    0.0000 Cl  0  0  0  0  0  0  0  0  0  0  0  0
    2.8538   -2.7249    0.0000 C   0  0  0  0  0  0  0  0  0  0  0  0
    2.5988   -3.5095    0.0000 O   0  0  0  0  0  0  0  0  0  0  0  0
  2  1  1  0  0  0  0
  3  2  1  0  0  0  0
  4  3  2  0  0  0  0
  5  4  1  0  0  0  0
  6  5  1  0  0  0  0
  6  1  1  0  0  0  0
  7  6  1  0  0  0  0
  7  8  2  0  0  0  0
  9  7  1  0  0  0  0
  9 10  1  0  0  0  0
 10 11  1  0  0  0  0
 11 12  1  0  0  0  0
 11 13  1  0  0  0  0
 11 14  1  0  0  0  0
 14 15  1  0  0  0  0
 14 16  1  0  0  0  0
 17  9  1  0  0  0  0
  1 17  1  0  0  0  0
 17 18  2  0  0  0  0
M  END
> <ChemID>
100471

> <CAS>
2425-06-1

> <Original_SMILES>
O=C1C2CC=CCC2C(=O)N1SC(Cl)(Cl)C(Cl)Cl

> <preferred_name>
Captafol

> <dsstox_substance_id>
DTXSID4020242

> <dsstox_compound_id>
DTXCID60242

> <qc_level>
DSSTox_High

> <Canonical_QSARr>
O=C1C2CC=CCC2C(=O)N1SC(Cl)(Cl)C(Cl)Cl

> <InChI_Code_QSARr>
InChI=1S/C10H9Cl4NO2S/c11-9(12)10(13,14)18-15-7(16)5-3-1-2-4-6(5)8(15)17/h1-2,5-6,9H,3-4H2

> <InChI Key_QSARr>
JHRWWRDRBPCWTF-UHFFFAOYSA-N

> <Salt_Solvent>


> <Salt_Solvent_ID>
0

> <MPID>
99743

> <KocRef>
Schuurmann-Main

> <LogKOC>
3.32

> <Tr_1_Tst_0>
1

$$$$
100473
  Mrv171c012251911022D          

 13 13  0  0  0  0            999 V2000
    2.0335    0.6029    0.0000 O   0  0  0  0  0  0  0  0  0  0  0  0
    1.3190    0.1904    0.0000 C   0  0  0  0  0  0  0  0  0  0  0  0
    0.6046    0.6029    0.0000 C   0  0  0  0  0  0  0  0  0  0  0  0
   -0.1099    0.1904    0.0000 C   0  0  0  0  0  0  0  0  0  0  0  0
   -0.8244    0.6029    0.0000 C   0  0  0  0  0  0  0  0  0  0  0  0
   -0.8244    1.4279    0.0000 Cl  0  0  0  0  0  0  0  0  0  0  0  0
   -1.5388    0.1904    0.0000 C   0  0  0  0  0  0  0  0  0  0  0  0
   -1.5388   -0.6346    0.0000 C   0  0  0  0  0  0  0  0  0  0  0  0
   -0.8244   -1.0471    0.0000 C   0  0  0  0  0  0  0  0  0  0  0  0
   -0.8244   -1.8721    0.0000 Cl  0  0  0  0  0  0  0  0  0  0  0  0
   -0.1099   -0.6346    0.0000 C   0  0  0  0  0  0  0  0  0  0  0  0
    0.6046   -1.0471    0.0000 Cl  0  0  0  0  0  0  0  0  0  0  0  0
    1.3190   -0.6346    0.0000 O   0  0  0  0  0  0  0  0  0  0  0  0
  1  2  1  0  0  0  0
  2  3  1  0  0  0  0
  3  4  1  0  0  0  0
  5  4  1  0  0  0  0
  5  6  1  0  0  0  0
  7  5  2  0  0  0  0
  8  7  1  0  0  0  0
  9  8  2  0  0  0  0
  9 10  1  0  0  0  0
 11  9  1  0  0  0  0
  4 11  2  0  0  0  0
 11 12  1  0  0  0  0
  2 13  2  0  0  0  0
M  END
> <ChemID>
100473

> <CAS>
2439-00-1

> <Original_SMILES>
[Na+].[O-]C(=O)Cc1c(Cl)c(Cl)ccc1Cl

> <preferred_name>
2,3,6-Trichlorophenylacetic acid sodium salt

> <dsstox_substance_id>
DTXSID4041319

> <dsstox_compound_id>
DTXCID2021319

> <qc_level>
DSSTox_Low

> <Canonical_QSARr>
OC(=O)CC1=C(Cl)C(Cl)=CC=C1Cl

> <InChI_Code_QSARr>
InChI=1S/C8H5Cl3O2/c9-5-1-2-6(10)8(11)4(5)3-7(12)13/h1-2H,3H2,(H,12,13)

> <InChI Key_QSARr>
QZXCCPZJCKEPSA-UHFFFAOYSA-N

> <Salt_Solvent>
[Na+]

> <Salt_Solvent_ID>
110

> <MPID>
99744

> <KocRef>
USDA Pest Prop DB

> <LogKOC>
1.72

> <Tr_1_Tst_0>
0

$$$$
100474
  Mrv171c012251911022D          

 15 17  0  0  0  0            999 V2000
    2.8635    0.1106    0.0000 N   0  0  0  0  0  0  0  0  0  0  0  0
    3.5780   -0.3019    0.0000 C   0  0  0  0  0  0  0  0  0  0  0  0
    4.3626   -0.0470    0.0000 S   0  0  0  0  0  0  0  0  0  0  0  0
    4.8475   -0.7144    0.0000 C   0  0  0  0  0  0  0  0  0  0  0  0
    5.6725   -0.7144    0.0000 O   0  0  0  0  0  0  0  0  0  0  0  0
    4.3626   -1.3819    0.0000 S   0  0  0  0  0  0  0  0  0  0  0  0
    3.5780   -1.1269    0.0000 C   0  0  0  0  0  0  0  0  0  0  0  0
    2.8635   -1.5394    0.0000 N   0  0  0  0  0  0  0  0  0  0  0  0
    2.1490   -1.1269    0.0000 C   0  0  0  0  0  0  0  0  0  0  0  0
    1.4346   -1.5394    0.0000 C   0  0  0  0  0  0  0  0  0  0  0  0
    0.7201   -1.1269    0.0000 C   0  0  0  0  0  0  0  0  0  0  0  0
    0.0056   -1.5394    0.0000 C   0  0  0  0  0  0  0  0  0  0  0  0
    0.7201   -0.3019    0.0000 C   0  0  0  0  0  0  0  0  0  0  0  0
    1.4346    0.1106    0.0000 C   0  0  0  0  0  0  0  0  0  0  0  0
    2.1490   -0.3019    0.0000 C   0  0  0  0  0  0  0  0  0  0  0  0
  2  1  1  0  0  0  0
  2  3  1  0  0  0  0
  3  4  1  0  0  0  0
  4  5  2  0  0  0  0
  4  6  1  0  0  0  0
  6  7  1  0  0  0  0
  7  2  2  0  0  0  0
  8  7  1  0  0  0  0
  9  8  2  0  0  0  0
  9 10  1  0  0  0  0
 10 11  2  0  0  0  0
 11 12  1  0  0  0  0
 11 13  1  0  0  0  0
 13 14  2  0  0  0  0
 14 15  1  0  0  0  0
  1 15  2  0  0  0  0
 15  9  1  0  0  0  0
M  END
> <ChemID>
100474

> <CAS>
2439-01-2

> <Original_SMILES>
Cc1cc2[n]c3SC(=O)Sc3[n]c2cc1

> <preferred_name>
Chinomethionate

> <dsstox_substance_id>
DTXSID2032342

> <dsstox_compound_id>
DTXCID0012342

> <qc_level>
DSSTox_Low

> <Canonical_QSARr>
CC1=CC2=NC3SC(=O)SC=3N=C2C=C1

> <InChI_Code_QSARr>
InChI=1S/C10H6N2OS2/c1-5-2-3-6-7(4-5)12-9-8(11-6)14-10(13)15-9/h2-4H,1H3

> <InChI Key_QSARr>
FBQQHUGEACOBDN-UHFFFAOYSA-N

> <Salt_Solvent>


> <Salt_Solvent_ID>
0

> <MPID>
99745

> <KocRef>
Schuurmann-Main

> <LogKOC>
3.36

> <Tr_1_Tst_0>
1

$$$$
100476
  Mrv171c012251911022D          

 16 15  0  0  0  0            999 V2000
    1.1555   -3.6693    0.0000 P   0  0  0  0  0  0  0  0  0  0  0  0
    1.1555   -4.4943    0.0000 O   0  0  0  0  0  0  0  0  0  0  0  0
    0.4410   -4.9068    0.0000 C   0  0  0  0  0  0  0  0  0  0  0  0
    0.4410   -5.7318    0.0000 C   0  0  0  0  0  0  0  0  0  0  0  0
    1.9805   -3.6693    0.0000 O   0  0  0  0  0  0  0  0  0  0  0  0
    2.3930   -2.9548    0.0000 C   0  0  0  0  0  0  0  0  0  0  0  0
    3.2180   -2.9548    0.0000 C   0  0  0  0  0  0  0  0  0  0  0  0
    1.1555   -2.8443    0.0000 S   0  0  0  0  0  0  0  0  0  0  0  0
    1.8699   -2.4318    0.0000 C   0  0  0  0  0  0  0  0  0  0  0  0
    1.8699   -1.6068    0.0000 C   0  0  0  0  0  0  0  0  0  0  0  0
    2.5844   -1.1943    0.0000 S   0  0  0  0  0  0  0  0  0  0  0  0
    2.9969   -1.9088    0.0000 O   0  0  0  0  0  0  0  0  0  0  0  0
    2.1719   -0.4798    0.0000 O   0  0  0  0  0  0  0  0  0  0  0  0
    3.2989   -0.7818    0.0000 C   0  0  0  0  0  0  0  0  0  0  0  0
    3.2989    0.0432    0.0000 C   0  0  0  0  0  0  0  0  0  0  0  0
    0.3305   -3.6693    0.0000 S   0  0  0  0  0  0  0  0  0  0  0  0
  1  2  1  0  0  0  0
  2  3  1  0  0  0  0
  3  4  1  0  0  0  0
  1  5  1  0  0  0  0
  5  6  1  0  0  0  0
  6  7  1  0  0  0  0
  1  8  1  0  0  0  0
  8  9  1  0  0  0  0
  9 10  1  0  0  0  0
 10 11  1  0  0  0  0
 11 12  2  0  0  0  0
 11 13  2  0  0  0  0
 11 14  1  0  0  0  0
 14 15  1  0  0  0  0
  1 16  2  0  0  0  0
M  END
> <ChemID>
100476

> <CAS>
2497-06-5

> <Original_SMILES>
CCS(=O)(=O)CCSP(=S)(OCC)OCC

> <preferred_name>
Disulfoton sulfone

> <dsstox_substance_id>
DTXSID8041901

> <dsstox_compound_id>
DTXCID6021901

> <qc_level>
DSSTox_High

> <Canonical_QSARr>
CCS(=O)(=O)CCSP(=S)(OCC)OCC

> <InChI_Code_QSARr>
InChI=1S/C8H19O4PS3/c1-4-11-13(14,12-5-2)15-7-8-16(9,10)6-3/h4-8H2,1-3H3

> <InChI Key_QSARr>
BKVJOVPVLOJPKJ-UHFFFAOYSA-N

> <Salt_Solvent>


> <Salt_Solvent_ID>
0

> <MPID>
99746

> <KocRef>
SRC 1992 Validation

> <LogKOC>
3.22

> <Tr_1_Tst_0>
1

$$$$
100477
  Mrv171c012251911022D          

 13 13  0  0  0  0            999 V2000
    2.1478   -1.1724    0.0000 C   0  0  0  0  0  0  0  0  0  0  0  0
    1.4333   -0.7599    0.0000 C   0  0  0  0  0  0  0  0  0  0  0  0
    1.4333    0.0651    0.0000 Cl  0  0  0  0  0  0  0  0  0  0  0  0
    0.7189   -1.1724    0.0000 C   0  0  0  0  0  0  0  0  0  0  0  0
    0.0044   -0.7599    0.0000 Cl  0  0  0  0  0  0  0  0  0  0  0  0
    0.7189   -1.9974    0.0000 C   0  0  0  0  0  0  0  0  0  0  0  0
    0.0044   -2.4099    0.0000 Cl  0  0  0  0  0  0  0  0  0  0  0  0
    1.4333   -2.4099    0.0000 C   0  0  0  0  0  0  0  0  0  0  0  0
    1.4333   -3.2349    0.0000 Cl  0  0  0  0  0  0  0  0  0  0  0  0
    2.1478   -1.9974    0.0000 C   0  0  0  0  0  0  0  0  0  0  0  0
    2.8623   -2.4099    0.0000 O   0  0  0  0  0  0  0  0  0  0  0  0
    3.5768   -1.9974    0.0000 C   0  0  0  0  0  0  0  0  0  0  0  0
    2.8623   -0.7599    0.0000 O   0  0  0  0  0  0  0  0  0  0  0  0
  2  1  2  0  0  0  0
  2  3  1  0  0  0  0
  4  2  1  0  0  0  0
  4  5  1  0  0  0  0
  6  4  2  0  0  0  0
  6  7  1  0  0  0  0
  8  6  1  0  0  0  0
  8  9  1  0  0  0  0
 10  8  2  0  0  0  0
  1 10  1  0  0  0  0
 10 11  1  0  0  0  0
 11 12  1  0  0  0  0
  1 13  1  0  0  0  0
M  END
> <ChemID>
100477

> <CAS>
2539-17-5

> <Original_SMILES>
COc1c(O)c(Cl)c(Cl)c(Cl)c1Cl

> <preferred_name>
3,4,5,6-Tetrachloroguaiacol

> <dsstox_substance_id>
DTXSID0044155

> <dsstox_compound_id>
DTXCID8024155

> <qc_level>
DSSTox_Low

> <Canonical_QSARr>
COC1C(O)=C(Cl)C(Cl)=C(Cl)C=1Cl

> <InChI_Code_QSARr>
InChI=1S/C7H4Cl4O2/c1-13-7-5(11)3(9)2(8)4(10)6(7)12/h12H,1H3

> <InChI Key_QSARr>
YZZVKLJKDFFSFL-UHFFFAOYSA-N

> <Salt_Solvent>


> <Salt_Solvent_ID>
0

> <MPID>
99747

> <KocRef>
Schuurmann-Main

> <LogKOC>
2.85

> <Tr_1_Tst_0>
0

$$$$
100478
  Mrv171c012251911022D          

 12 12  0  0  0  0            999 V2000
    3.0640   -3.0124    0.0000 Cl  0  0  0  0  0  0  0  0  0  0  0  0
    2.5791   -2.3450    0.0000 C   0  0  0  0  0  0  0  0  0  0  0  0
    3.2465   -1.8600    0.0000 Cl  0  0  0  0  0  0  0  0  0  0  0  0
    1.9116   -2.8299    0.0000 Cl  0  0  0  0  0  0  0  0  0  0  0  0
    2.0942   -1.6775    0.0000 C   0  0  0  0  0  0  0  0  0  0  0  0
    2.3491   -0.8929    0.0000 N   0  0  0  0  0  0  0  0  0  0  0  0
    1.6817   -0.4080    0.0000 C   0  0  0  0  0  0  0  0  0  0  0  0
    1.6817    0.4170    0.0000 O   0  0  0  0  0  0  0  0  0  0  0  0
    2.3961    0.8295    0.0000 C   0  0  0  0  0  0  0  0  0  0  0  0
    2.3961    1.6545    0.0000 C   0  0  0  0  0  0  0  0  0  0  0  0
    1.0142   -0.8929    0.0000 S   0  0  0  0  0  0  0  0  0  0  0  0
    1.2692   -1.6775    0.0000 N   0  0  0  0  0  0  0  0  0  0  0  0
  1  2  1  0  0  0  0
  2  3  1  0  0  0  0
  2  4  1  0  0  0  0
  2  5  1  0  0  0  0
  6  5  1  0  0  0  0
  7  6  2  0  0  0  0
  7  8  1  0  0  0  0
  8  9  1  0  0  0  0
  9 10  1  0  0  0  0
 11  7  1  0  0  0  0
 12 11  1  0  0  0  0
  5 12  2  0  0  0  0
M  END
> <ChemID>
100478

> <CAS>
2593-15-9

> <Original_SMILES>
CCOc1[n]c([n][s]1)C(Cl)(Cl)Cl

> <preferred_name>
Etridiazole

> <dsstox_substance_id>
DTXSID3032547

> <dsstox_compound_id>
DTXCID1012547

> <qc_level>
DSSTox_Low

> <Canonical_QSARr>
CCOC1=NC(=NS1)C(Cl)(Cl)Cl

> <InChI_Code_QSARr>
InChI=1S/C5H5Cl3N2OS/c1-2-11-4-9-3(10-12-4)5(6,7)8/h2H2,1H3

> <InChI Key_QSARr>
KQTVWCSONPJJPE-UHFFFAOYSA-N

> <Salt_Solvent>


> <Salt_Solvent_ID>
0

> <MPID>
99748

> <KocRef>
Schuurmann-Main

> <LogKOC>
3.0

> <Tr_1_Tst_0>
1

$$$$
100479
  Mrv171c012251911022D          

 19 19  0  0  0  0            999 V2000
    2.8679   -2.0669    0.0000 C   0  0  0  0  0  0  0  0  0  0  0  0
    2.8679   -1.2419    0.0000 C   0  0  0  0  0  0  0  0  0  0  0  0
    3.5824   -0.8294    0.0000 S   0  0  0  0  0  0  0  0  0  0  0  0
    4.2969   -1.2419    0.0000 P   0  0  0  0  0  0  0  0  0  0  0  0
    3.8844   -1.9564    0.0000 S   0  0  0  0  0  0  0  0  0  0  0  0
    5.0113   -1.6544    0.0000 O   0  0  0  0  0  0  0  0  0  0  0  0
    5.7258   -1.2419    0.0000 C   0  0  0  0  0  0  0  0  0  0  0  0
    4.7094   -0.5274    0.0000 O   0  0  0  0  0  0  0  0  0  0  0  0
    5.5344   -0.5274    0.0000 C   0  0  0  0  0  0  0  0  0  0  0  0
    2.1534   -0.8294    0.0000 C   0  0  0  0  0  0  0  0  0  0  0  0
    1.4390   -1.2419    0.0000 O   0  0  0  0  0  0  0  0  0  0  0  0
    0.7245   -0.8294    0.0000 C   0  0  0  0  0  0  0  0  0  0  0  0
    0.0100   -1.2419    0.0000 C   0  0  0  0  0  0  0  0  0  0  0  0
    2.1534   -0.0044    0.0000 O   0  0  0  0  0  0  0  0  0  0  0  0
    2.1534   -2.4794    0.0000 C   0  0  0  0  0  0  0  0  0  0  0  0
    2.1534   -3.3044    0.0000 C   0  0  0  0  0  0  0  0  0  0  0  0
    2.8679   -3.7169    0.0000 C   0  0  0  0  0  0  0  0  0  0  0  0
    3.5824   -3.3044    0.0000 C   0  0  0  0  0  0  0  0  0  0  0  0
    3.5824   -2.4794    0.0000 C   0  0  0  0  0  0  0  0  0  0  0  0
  1  2  1  0  0  0  0
  2  3  1  0  0  0  0
  3  4  1  0  0  0  0
  4  5  2  0  0  0  0
  4  6  1  0  0  0  0
  6  7  1  0  0  0  0
  4  8  1  0  0  0  0
  8  9  1  0  0  0  0
  2 10  1  0  0  0  0
 10 11  1  0  0  0  0
 11 12  1  0  0  0  0
 12 13  1  0  0  0  0
 10 14  2  0  0  0  0
 15  1  2  0  0  0  0
 16 15  1  0  0  0  0
 17 16  2  0  0  0  0
 18 17  1  0  0  0  0
 19 18  2  0  0  0  0
  1 19  1  0  0  0  0
M  END
> <ChemID>
100479

> <CAS>
2597-03-7

> <Original_SMILES>
CCOC(=O)C(SP(=S)(OC)OC)c1ccccc1

> <preferred_name>
Phenthoate

> <dsstox_substance_id>
DTXSID6042280

> <dsstox_compound_id>
DTXCID4022280

> <qc_level>
DSSTox_Low

> <Canonical_QSARr>
CCOC(=O)C(SP(=S)(OC)OC)C1C=CC=CC=1

> <InChI_Code_QSARr>
InChI=1S/C12H17O4PS2/c1-4-16-12(13)11(10-8-6-5-7-9-10)19-17(18,14-2)15-3/h5-9,11H,4H2,1-3H3

> <InChI Key_QSARr>
XAMUDJHXFNRLCY-UHFFFAOYSA-N

> <Salt_Solvent>


> <Salt_Solvent_ID>
0

> <MPID>
99749

> <KocRef>
USDA Pest Prop DB

> <LogKOC>
3.0

> <Tr_1_Tst_0>
1

$$$$
100480
  Mrv171c012251911022D          

 11 11  0  0  0  0            999 V2000
    3.0790    1.6500    0.0000 O   0  0  0  0  0  0  0  0  0  0  0  0
    3.7935    2.0625    0.0000 C   0  0  0  0  0  0  0  0  0  0  0  0
    3.0790    0.8250    0.0000 C   0  0  0  0  0  0  0  0  0  0  0  0
    2.3645    0.4125    0.0000 N   0  0  0  0  0  0  0  0  0  0  0  0
    2.3645   -0.4125    0.0000 C   0  0  0  0  0  0  0  0  0  0  0  0
    1.6500   -0.8250    0.0000 C   0  0  0  0  0  0  0  0  0  0  0  0
    1.6500   -1.6500    0.0000 C   0  0  0  0  0  0  0  0  0  0  0  0
    2.3645   -2.0625    0.0000 C   0  0  0  0  0  0  0  0  0  0  0  0
    3.0790   -1.6500    0.0000 C   0  0  0  0  0  0  0  0  0  0  0  0
    3.0790   -0.8250    0.0000 C   0  0  0  0  0  0  0  0  0  0  0  0
    3.7935    0.4125    0.0000 O   0  0  0  0  0  0  0  0  0  0  0  0
  1  2  1  0  0  0  0
  1  3  1  0  0  0  0
  3  4  1  0  0  0  0
  4  5  1  0  0  0  0
  6  5  1  0  0  0  0
  7  6  2  0  0  0  0
  8  7  1  0  0  0  0
  9  8  2  0  0  0  0
 10  9  1  0  0  0  0
  5 10  2  0  0  0  0
  3 11  2  0  0  0  0
M  END
> <ChemID>
100480

> <CAS>
2603-10-3

> <Original_SMILES>
COC(=O)Nc1ccccc1

> <preferred_name>
Methyl phenylcarbamate

> <dsstox_substance_id>
DTXSID00180674

> <dsstox_compound_id>
DTXCID40103165

> <qc_level>
Public_Medium

> <Canonical_QSARr>
COC(=O)NC1C=CC=CC=1

> <InChI_Code_QSARr>
InChI=1S/C8H9NO2/c1-11-8(10)9-7-5-3-2-4-6-7/h2-6H,1H3,(H,9,10)

> <InChI Key_QSARr>
IAGUPODHENSJEZ-UHFFFAOYSA-N

> <Salt_Solvent>


> <Salt_Solvent_ID>
0

> <MPID>
99750

> <KocRef>
Schuurmann-Main

> <LogKOC>
1.73

> <Tr_1_Tst_0>
1

$$$$
100481
  Mrv171c012251911022D          

 15 15  0  0  0  0            999 V2000
    3.9154   -2.6429    0.0000 C   0  0  0  0  0  0  0  0  0  0  0  0
    4.6298   -3.0554    0.0000 N   0  0  0  0  0  0  0  0  0  0  0  0
    5.3443   -2.6429    0.0000 C   0  0  0  0  0  0  0  0  0  0  0  0
    3.9154   -1.8179    0.0000 O   0  0  0  0  0  0  0  0  0  0  0  0
    3.2009   -3.0554    0.0000 O   0  0  0  0  0  0  0  0  0  0  0  0
    2.4864   -2.6429    0.0000 C   0  0  0  0  0  0  0  0  0  0  0  0
    2.4864   -1.8179    0.0000 C   0  0  0  0  0  0  0  0  0  0  0  0
    1.7719   -1.4054    0.0000 C   0  0  0  0  0  0  0  0  0  0  0  0
    1.7719   -0.5804    0.0000 C   0  0  0  0  0  0  0  0  0  0  0  0
    1.0575   -1.8179    0.0000 C   0  0  0  0  0  0  0  0  0  0  0  0
    1.0575   -2.6429    0.0000 C   0  0  0  0  0  0  0  0  0  0  0  0
    0.3430   -3.0554    0.0000 C   0  0  0  0  0  0  0  0  0  0  0  0
    0.3430   -3.8804    0.0000 C   0  0  0  0  0  0  0  0  0  0  0  0
   -0.3715   -2.6429    0.0000 C   0  0  0  0  0  0  0  0  0  0  0  0
    1.7719   -3.0554    0.0000 C   0  0  0  0  0  0  0  0  0  0  0  0
  1  2  1  0  0  0  0
  2  3  1  0  0  0  0
  1  4  2  0  0  0  0
  1  5  1  0  0  0  0
  5  6  1  0  0  0  0
  7  6  1  0  0  0  0
  8  7  2  0  0  0  0
  8  9  1  0  0  0  0
 10  8  1  0  0  0  0
 11 10  2  0  0  0  0
 11 12  1  0  0  0  0
 12 13  1  0  0  0  0
 12 14  1  0  0  0  0
 15 11  1  0  0  0  0
  6 15  2  0  0  0  0
M  END
> <ChemID>
100481

> <CAS>
2631-37-0

> <Original_SMILES>
Cc1cc(cc(c1)OC(=O)NC)C(C)C

> <preferred_name>
Promecarb

> <dsstox_substance_id>
DTXSID4037617

> <dsstox_compound_id>
DTXCID2017617

> <qc_level>
DSSTox_Low

> <Canonical_QSARr>
CC1C=C(C=C(C=1)OC(=O)NC)C(C)C

> <InChI_Code_QSARr>
InChI=1S/C12H17NO2/c1-8(2)10-5-9(3)6-11(7-10)15-12(14)13-4/h5-8H,1-4H3,(H,13,14)

> <InChI Key_QSARr>
DTAPQAJKAFRNJB-UHFFFAOYSA-N

> <Salt_Solvent>


> <Salt_Solvent_ID>
0

> <MPID>
99751

> <KocRef>
USDA Pest Prop DB

> <LogKOC>
2.48

> <Tr_1_Tst_0>
0

$$$$
100482
  Mrv171c012251911022D          

 19 22  0  0  0  0            999 V2000
    2.6085    1.8201    0.0000 N   0  0  0  0  0  0  0  0  0  0  0  0
    2.8786    1.0405    0.0000 C   0  0  0  0  0  0  0  0  0  0  0  0
    3.6887    0.8846    0.0000 C   0  0  0  0  0  0  0  0  0  0  0  0
    3.9587    0.1051    0.0000 C   0  0  0  0  0  0  0  0  0  0  0  0
    4.7689   -0.0508    0.0000 C   0  0  0  0  0  0  0  0  0  0  0  0
    5.3090    0.5728    0.0000 C   0  0  0  0  0  0  0  0  0  0  0  0
    6.1191    0.4169    0.0000 C   0  0  0  0  0  0  0  0  0  0  0  0
    6.3892   -0.3627    0.0000 C   0  0  0  0  0  0  0  0  0  0  0  0
    5.8491   -0.9863    0.0000 C   0  0  0  0  0  0  0  0  0  0  0  0
    5.0389   -0.8304    0.0000 C   0  0  0  0  0  0  0  0  0  0  0  0
    4.4988   -1.4540    0.0000 C   0  0  0  0  0  0  0  0  0  0  0  0
    3.6887   -1.2981    0.0000 C   0  0  0  0  0  0  0  0  0  0  0  0
    3.4187   -0.5186    0.0000 C   0  0  0  0  0  0  0  0  0  0  0  0
    2.6085   -0.3627    0.0000 C   0  0  0  0  0  0  0  0  0  0  0  0
    2.0684   -0.9863    0.0000 C   0  0  0  0  0  0  0  0  0  0  0  0
    1.2583   -0.8304    0.0000 C   0  0  0  0  0  0  0  0  0  0  0  0
    0.9883   -0.0508    0.0000 C   0  0  0  0  0  0  0  0  0  0  0  0
    1.5283    0.5728    0.0000 C   0  0  0  0  0  0  0  0  0  0  0  0
    2.3385    0.4169    0.0000 C   0  0  0  0  0  0  0  0  0  0  0  0
  1  2  1  0  0  0  0
  3  2  2  0  0  0  0
  4  3  1  0  0  0  0
  4  5  1  0  0  0  0
  6  5  2  0  0  0  0
  7  6  1  0  0  0  0
  8  7  2  0  0  0  0
  9  8  1  0  0  0  0
 10  9  2  0  0  0  0
  5 10  1  0  0  0  0
 10 11  1  0  0  0  0
 11 12  2  0  0  0  0
 12 13  1  0  0  0  0
 13  4  2  0  0  0  0
 14 13  1  0  0  0  0
 14 15  2  0  0  0  0
 15 16  1  0  0  0  0
 16 17  2  0  0  0  0
 17 18  1  0  0  0  0
 18 19  2  0  0  0  0
  2 19  1  0  0  0  0
 19 14  1  0  0  0  0
M  END
> <ChemID>
100482

> <CAS>
2642-98-0

> <Original_SMILES>
Nc1cc2c3ccccc3ccc2c2ccccc21

> <preferred_name>
6-Chrysenamine

> <dsstox_substance_id>
DTXSID70181017

> <dsstox_compound_id>
DTXCID80103508

> <qc_level>
Public_Medium

> <Canonical_QSARr>
NC1=CC2C3=CC=CC=C3C=CC=2C2=CC=CC=C21

> <InChI_Code_QSARr>
InChI=1S/C18H13N/c19-18-11-17-13-6-2-1-5-12(13)9-10-15(17)14-7-3-4-8-16(14)18/h1-11H,19H2

> <InChI Key_QSARr>
KIVUHCNVDWYUNP-UHFFFAOYSA-N

> <Salt_Solvent>


> <Salt_Solvent_ID>
0

> <MPID>
99752

> <KocRef>
Sabljic-Ext

> <LogKOC>
5.21

> <Tr_1_Tst_0>
1

$$$$
100483
  Mrv171c012251911022D          

 13 13  0  0  0  0            999 V2000
    4.2990   -2.6885    0.0000 C   0  0  0  0  0  0  0  0  0  0  0  0
    3.5845   -2.2760    0.0000 C   0  0  0  0  0  0  0  0  0  0  0  0
    3.5845   -1.4510    0.0000 C   0  0  0  0  0  0  0  0  0  0  0  0
    2.8701   -1.0385    0.0000 C   0  0  0  0  0  0  0  0  0  0  0  0
    2.8701   -0.2135    0.0000 O   0  0  0  0  0  0  0  0  0  0  0  0
    2.1556    0.1990    0.0000 C   0  0  0  0  0  0  0  0  0  0  0  0
    1.4411   -0.2135    0.0000 O   0  0  0  0  0  0  0  0  0  0  0  0
    2.1556    1.0240    0.0000 N   0  0  0  0  0  0  0  0  0  0  0  0
    1.4411    1.4365    0.0000 C   0  0  0  0  0  0  0  0  0  0  0  0
    2.1556   -1.4510    0.0000 C   0  0  0  0  0  0  0  0  0  0  0  0
    2.1556   -2.2760    0.0000 C   0  0  0  0  0  0  0  0  0  0  0  0
    1.4411   -2.6885    0.0000 C   0  0  0  0  0  0  0  0  0  0  0  0
    2.8701   -2.6885    0.0000 C   0  0  0  0  0  0  0  0  0  0  0  0
  1  2  1  0  0  0  0
  3  2  1  0  0  0  0
  4  3  2  0  0  0  0
  4  5  1  0  0  0  0
  5  6  1  0  0  0  0
  6  7  2  0  0  0  0
  6  8  1  0  0  0  0
  8  9  1  0  0  0  0
 10  4  1  0  0  0  0
 11 10  2  0  0  0  0
 11 12  1  0  0  0  0
 13 11  1  0  0  0  0
  2 13  2  0  0  0  0
M  END
> <ChemID>
100483

> <CAS>
2655-14-3

> <Original_SMILES>
CNC(=O)Oc1cc(C)cc(C)c1

> <preferred_name>
XMC

> <dsstox_substance_id>
DTXSID7058042

> <dsstox_compound_id>
DTXCID3031810

> <qc_level>
DSSTox_High

> <Canonical_QSARr>
CC1=CC(=CC(C)=C1)OC(=O)NC

> <InChI_Code_QSARr>
InChI=1S/C10H13NO2/c1-7-4-8(2)6-9(5-7)13-10(12)11-3/h4-6H,1-3H3,(H,11,12)

> <InChI Key_QSARr>
CVQODEWAPZVVBU-UHFFFAOYSA-N

> <Salt_Solvent>


> <Salt_Solvent_ID>
0

> <MPID>
99753

> <KocRef>
Schuurmann-Main

> <LogKOC>
1.71

> <Tr_1_Tst_0>
1

$$$$
100484
  Mrv171c012251911022D          

 12 12  0  0  0  0            999 V2000
    2.1870    0.6071    0.0000 C   0  0  0  0  0  0  0  0  0  0  0  0
    1.4725    1.0196    0.0000 O   0  0  0  0  0  0  0  0  0  0  0  0
    0.7581    0.6071    0.0000 C   0  0  0  0  0  0  0  0  0  0  0  0
    0.0436    1.0196    0.0000 C   0  0  0  0  0  0  0  0  0  0  0  0
    0.0436    1.8446    0.0000 O   0  0  0  0  0  0  0  0  0  0  0  0
   -0.6709    0.6071    0.0000 C   0  0  0  0  0  0  0  0  0  0  0  0
   -1.3854    1.0196    0.0000 Cl  0  0  0  0  0  0  0  0  0  0  0  0
   -0.6709   -0.2179    0.0000 C   0  0  0  0  0  0  0  0  0  0  0  0
   -1.3854   -0.6304    0.0000 Cl  0  0  0  0  0  0  0  0  0  0  0  0
    0.0436   -0.6304    0.0000 C   0  0  0  0  0  0  0  0  0  0  0  0
    0.0436   -1.4554    0.0000 Cl  0  0  0  0  0  0  0  0  0  0  0  0
    0.7581   -0.2179    0.0000 C   0  0  0  0  0  0  0  0  0  0  0  0
  1  2  1  0  0  0  0
  2  3  1  0  0  0  0
  4  3  2  0  0  0  0
  4  5  1  0  0  0  0
  6  4  1  0  0  0  0
  6  7  1  0  0  0  0
  8  6  2  0  0  0  0
  8  9  1  0  0  0  0
 10  8  1  0  0  0  0
 10 11  1  0  0  0  0
 12 10  2  0  0  0  0
  3 12  1  0  0  0  0
M  END
> <ChemID>
100484

> <CAS>
2668-24-8

> <Original_SMILES>
COc1cc(Cl)c(Cl)c(Cl)c1O

> <preferred_name>
4,5,6-Trichloroguaiacol

> <dsstox_substance_id>
DTXSID00858745

> <dsstox_compound_id>
DTXCID80809477

> <qc_level>
DSSTox_Low

> <Canonical_QSARr>
COC1C=C(Cl)C(Cl)=C(Cl)C=1O

> <InChI_Code_QSARr>
InChI=1S/C7H5Cl3O2/c1-12-4-2-3(8)5(9)6(10)7(4)11/h2,11H,1H3

> <InChI Key_QSARr>
NIAJPNQTKGWEOI-UHFFFAOYSA-N

> <Salt_Solvent>


> <Salt_Solvent_ID>
0

> <MPID>
99754

> <KocRef>
SRC 1992 Validation

> <LogKOC>
2.8

> <Tr_1_Tst_0>
1

$$$$
100485
  Mrv171c012251911022D          

 12 12  0  0  0  0            999 V2000
    3.4915   -0.6051    0.0000 O   0  0  0  0  0  0  0  0  0  0  0  0
    2.7770   -1.0176    0.0000 C   0  0  0  0  0  0  0  0  0  0  0  0
    2.0626   -0.6051    0.0000 C   0  0  0  0  0  0  0  0  0  0  0  0
    2.0626    0.2199    0.0000 Cl  0  0  0  0  0  0  0  0  0  0  0  0
    1.3481   -1.0176    0.0000 C   0  0  0  0  0  0  0  0  0  0  0  0
    1.3481   -1.8426    0.0000 C   0  0  0  0  0  0  0  0  0  0  0  0
    0.6336   -2.2551    0.0000 O   0  0  0  0  0  0  0  0  0  0  0  0
    0.6336   -3.0801    0.0000 C   0  0  0  0  0  0  0  0  0  0  0  0
    2.0626   -2.2551    0.0000 C   0  0  0  0  0  0  0  0  0  0  0  0
    2.0626   -3.0801    0.0000 Cl  0  0  0  0  0  0  0  0  0  0  0  0
    2.7770   -1.8426    0.0000 C   0  0  0  0  0  0  0  0  0  0  0  0
    3.4915    0.2199    0.0000 C   0  0  0  0  0  0  0  0  0  0  0  0
  1  2  1  0  0  0  0
  3  2  1  0  0  0  0
  3  4  1  0  0  0  0
  5  3  2  0  0  0  0
  6  5  1  0  0  0  0
  6  7  1  0  0  0  0
  7  8  1  0  0  0  0
  9  6  2  0  0  0  0
  9 10  1  0  0  0  0
 11  9  1  0  0  0  0
  2 11  2  0  0  0  0
  1 12  1  0  0  0  0
M  END
> <ChemID>
100485

> <CAS>
2675-77-6

> <Original_SMILES>
COc1cc(Cl)c(cc1Cl)OC

> <preferred_name>
Chloroneb

> <dsstox_substance_id>
DTXSID2024793

> <dsstox_compound_id>
DTXCID704793

> <qc_level>
DSSTox_Low

> <Canonical_QSARr>
COC1C=C(Cl)C(=CC=1Cl)OC

> <InChI_Code_QSARr>
InChI=1S/C8H8Cl2O2/c1-11-7-3-6(10)8(12-2)4-5(7)9/h3-4H,1-2H3

> <InChI Key_QSARr>
PFIADAMVCJPXSF-UHFFFAOYSA-N

> <Salt_Solvent>


> <Salt_Solvent_ID>
0

> <MPID>
99755

> <KocRef>
Schuurmann-Main

> <LogKOC>
3.1

> <Tr_1_Tst_0>
0

$$$$
100486
  Mrv171c012251911022D          

 14 14  0  0  0  0            999 V2000
    3.9788   -2.7602    0.0000 C   0  0  0  0  0  0  0  0  0  0  0  0
    4.6933   -3.1727    0.0000 N   0  0  0  0  0  0  0  0  0  0  0  0
    4.6933   -3.9977    0.0000 C   0  0  0  0  0  0  0  0  0  0  0  0
    3.9788   -1.9352    0.0000 O   0  0  0  0  0  0  0  0  0  0  0  0
    3.2643   -1.5227    0.0000 C   0  0  0  0  0  0  0  0  0  0  0  0
    3.2643   -0.6977    0.0000 C   0  0  0  0  0  0  0  0  0  0  0  0
    2.5499   -0.2852    0.0000 C   0  0  0  0  0  0  0  0  0  0  0  0
    2.5499    0.5398    0.0000 C   0  0  0  0  0  0  0  0  0  0  0  0
    1.8354   -0.6977    0.0000 C   0  0  0  0  0  0  0  0  0  0  0  0
    1.1209   -0.2852    0.0000 C   0  0  0  0  0  0  0  0  0  0  0  0
    1.8354   -1.5227    0.0000 C   0  0  0  0  0  0  0  0  0  0  0  0
    1.1209   -1.9352    0.0000 C   0  0  0  0  0  0  0  0  0  0  0  0
    2.5499   -1.9352    0.0000 C   0  0  0  0  0  0  0  0  0  0  0  0
    3.2643   -3.1727    0.0000 O   0  0  0  0  0  0  0  0  0  0  0  0
  1  2  1  0  0  0  0
  2  3  1  0  0  0  0
  1  4  1  0  0  0  0
  4  5  1  0  0  0  0
  6  5  1  0  0  0  0
  7  6  2  0  0  0  0
  7  8  1  0  0  0  0
  9  7  1  0  0  0  0
  9 10  1  0  0  0  0
 11  9  2  0  0  0  0
 11 12  1  0  0  0  0
 13 11  1  0  0  0  0
  5 13  2  0  0  0  0
  1 14  2  0  0  0  0
M  END
> <ChemID>
100486

> <CAS>
2686-99-9

> <Original_SMILES>
CNC(=O)Oc1cc(C)c(C)c(C)c1

> <preferred_name>
3,4,5-Trimethylphenyl methylcarbamate

> <dsstox_substance_id>
DTXSID1040322

> <dsstox_compound_id>
DTXCID5012503

> <qc_level>
DSSTox_High

> <Canonical_QSARr>
CNC(=O)OC1C=C(C)C(C)=C(C)C=1

> <InChI_Code_QSARr>
InChI=1S/C11H15NO2/c1-7-5-10(14-11(13)12-4)6-8(2)9(7)3/h5-6H,1-4H3,(H,12,13)

> <InChI Key_QSARr>
AUQAUAIUNJIIEP-UHFFFAOYSA-N

> <Salt_Solvent>


> <Salt_Solvent_ID>
0

> <MPID>
99756

> <KocRef>
Schuurmann-Main

> <LogKOC>
2.6

> <Tr_1_Tst_0>
1

$$$$
100488
  Mrv171c012251911022D          

 18 18  0  0  0  0            999 V2000
    2.9781   -2.2291    0.0000 S   0  0  0  0  0  0  0  0  0  0  0  0
    3.3906   -1.5147    0.0000 P   0  0  0  0  0  0  0  0  0  0  0  0
    4.1050   -1.9272    0.0000 O   0  0  0  0  0  0  0  0  0  0  0  0
    4.8195   -1.5147    0.0000 C   0  0  0  0  0  0  0  0  0  0  0  0
    5.5340   -1.9272    0.0000 C   0  0  0  0  0  0  0  0  0  0  0  0
    3.8031   -0.8002    0.0000 O   0  0  0  0  0  0  0  0  0  0  0  0
    4.6281   -0.8002    0.0000 C   0  0  0  0  0  0  0  0  0  0  0  0
    5.0406   -0.0857    0.0000 C   0  0  0  0  0  0  0  0  0  0  0  0
    2.6761   -1.1022    0.0000 O   0  0  0  0  0  0  0  0  0  0  0  0
    1.9616   -1.5147    0.0000 C   0  0  0  0  0  0  0  0  0  0  0  0
    1.2471   -1.1022    0.0000 C   0  0  0  0  0  0  0  0  0  0  0  0
    1.2471   -0.2772    0.0000 Cl  0  0  0  0  0  0  0  0  0  0  0  0
    0.5327   -1.5147    0.0000 C   0  0  0  0  0  0  0  0  0  0  0  0
    0.5327   -2.3397    0.0000 C   0  0  0  0  0  0  0  0  0  0  0  0
   -0.1818   -2.7522    0.0000 Cl  0  0  0  0  0  0  0  0  0  0  0  0
    1.2471   -2.7522    0.0000 C   0  0  0  0  0  0  0  0  0  0  0  0
    1.2471   -3.5772    0.0000 Cl  0  0  0  0  0  0  0  0  0  0  0  0
    1.9616   -2.3397    0.0000 N   0  0  0  0  0  0  0  0  0  0  0  0
  1  2  2  0  0  0  0
  2  3  1  0  0  0  0
  3  4  1  0  0  0  0
  4  5  1  0  0  0  0
  2  6  1  0  0  0  0
  6  7  1  0  0  0  0
  7  8  1  0  0  0  0
  2  9  1  0  0  0  0
  9 10  1  0  0  0  0
 11 10  1  0  0  0  0
 11 12  1  0  0  0  0
 13 11  2  0  0  0  0
 14 13  1  0  0  0  0
 14 15  1  0  0  0  0
 16 14  2  0  0  0  0
 16 17  1  0  0  0  0
 18 16  1  0  0  0  0
 10 18  2  0  0  0  0
M  END
> <ChemID>
100488

> <CAS>
2921-88-2

> <Original_SMILES>
CCOP(=S)(Oc1[n]c(Cl)c(Cl)cc1Cl)OCC

> <preferred_name>
Chlorpyrifos

> <dsstox_substance_id>
DTXSID4020458

> <dsstox_compound_id>
DTXCID80458

> <qc_level>
DSSTox_Low

> <Canonical_QSARr>
CCOP(=S)(OC1=NC(Cl)=C(Cl)C=C1Cl)OCC

> <InChI_Code_QSARr>
InChI=1S/C9H11Cl3NO3PS/c1-3-14-17(18,15-4-2)16-9-7(11)5-6(10)8(12)13-9/h5H,3-4H2,1-2H3

> <InChI Key_QSARr>
SBPBAQFWLVIOKP-UHFFFAOYSA-N

> <Salt_Solvent>


> <Salt_Solvent_ID>
0

> <MPID>
99757

> <KocRef>
Schuurmann-Main

> <LogKOC>
3.7

> <Tr_1_Tst_0>
1

$$$$
100489
  Mrv171c012251911022D          

 11 11  0  0  0  0            999 V2000
    1.6499   -1.9841    0.0000 Br  0  0  0  0  0  0  0  0  0  0  0  0
    2.3644   -1.5716    0.0000 C   0  0  0  0  0  0  0  0  0  0  0  0
    3.0789   -1.9841    0.0000 C   0  0  0  0  0  0  0  0  0  0  0  0
    3.7933   -1.5716    0.0000 C   0  0  0  0  0  0  0  0  0  0  0  0
    3.7933   -0.7466    0.0000 C   0  0  0  0  0  0  0  0  0  0  0  0
    3.0789   -0.3341    0.0000 C   0  0  0  0  0  0  0  0  0  0  0  0
    3.0789    0.4909    0.0000 N   0  0  0  0  0  0  0  0  0  0  0  0
    3.7933    0.9034    0.0000 C   0  0  0  0  0  0  0  0  0  0  0  0
    3.7933    1.7284    0.0000 N   0  0  0  0  0  0  0  0  0  0  0  0
    4.5078    0.4909    0.0000 O   0  0  0  0  0  0  0  0  0  0  0  0
    2.3644   -0.7466    0.0000 C   0  0  0  0  0  0  0  0  0  0  0  0
  1  2  1  0  0  0  0
  3  2  2  0  0  0  0
  4  3  1  0  0  0  0
  5  4  2  0  0  0  0
  6  5  1  0  0  0  0
  6  7  1  0  0  0  0
  7  8  1  0  0  0  0
  8  9  1  0  0  0  0
  8 10  2  0  0  0  0
 11  6  2  0  0  0  0
  2 11  1  0  0  0  0
M  END
> <ChemID>
100489

> <CAS>
2989-98-2

> <Original_SMILES>
NC(=O)Nc1cccc(Br)c1

> <preferred_name>
3-Bromophenylurea

> <dsstox_substance_id>
DTXSID70184008

> <dsstox_compound_id>
DTXCID40106499

> <qc_level>
Public_Medium

> <Canonical_QSARr>
NC(=O)NC1C=CC=C(Br)C=1

> <InChI_Code_QSARr>
InChI=1S/C7H7BrN2O/c8-5-2-1-3-6(4-5)10-7(9)11/h1-4H,(H3,9,10,11)

> <InChI Key_QSARr>
DHMRSMNEKFDABI-UHFFFAOYSA-N

> <Salt_Solvent>


> <Salt_Solvent_ID>
0

> <MPID>
99758

> <KocRef>
Schuurmann-Main

> <LogKOC>
2.12

> <Tr_1_Tst_0>
1

$$$$
100490
  Mrv171c012251911022D          

 14 14  0  0  0  0            999 V2000
    1.8469   -1.5332    0.0000 C   0  0  0  0  0  0  0  0  0  0  0  0
    1.8469   -0.7082    0.0000 O   0  0  0  0  0  0  0  0  0  0  0  0
    1.1324   -1.9457    0.0000 N   0  0  0  0  0  0  0  0  0  0  0  0
    1.1324   -2.7707    0.0000 C   0  0  0  0  0  0  0  0  0  0  0  0
    0.4179   -1.5332    0.0000 O   0  0  0  0  0  0  0  0  0  0  0  0
   -0.2965   -1.9457    0.0000 C   0  0  0  0  0  0  0  0  0  0  0  0
    2.5614   -1.9457    0.0000 N   0  0  0  0  0  0  0  0  0  0  0  0
    3.2758   -1.5332    0.0000 C   0  0  0  0  0  0  0  0  0  0  0  0
    3.9903   -1.9457    0.0000 C   0  0  0  0  0  0  0  0  0  0  0  0
    4.7048   -1.5332    0.0000 C   0  0  0  0  0  0  0  0  0  0  0  0
    4.7048   -0.7082    0.0000 C   0  0  0  0  0  0  0  0  0  0  0  0
    5.4192   -0.2957    0.0000 Br  0  0  0  0  0  0  0  0  0  0  0  0
    3.9903   -0.2957    0.0000 C   0  0  0  0  0  0  0  0  0  0  0  0
    3.2758   -0.7082    0.0000 C   0  0  0  0  0  0  0  0  0  0  0  0
  1  2  2  0  0  0  0
  1  3  1  0  0  0  0
  3  4  1  0  0  0  0
  3  5  1  0  0  0  0
  5  6  1  0  0  0  0
  1  7  1  0  0  0  0
  7  8  1  0  0  0  0
  9  8  2  0  0  0  0
 10  9  1  0  0  0  0
 11 10  2  0  0  0  0
 11 12  1  0  0  0  0
 13 11  1  0  0  0  0
 14 13  2  0  0  0  0
  8 14  1  0  0  0  0
M  END
> <ChemID>
100490

> <CAS>
3060-89-7

> <Original_SMILES>
CN(OC)C(=O)Nc1ccc(Br)cc1

> <preferred_name>
Metobromuron

> <dsstox_substance_id>
DTXSID6042157

> <dsstox_compound_id>
DTXCID4022157

> <qc_level>
DSSTox_Low

> <Canonical_QSARr>
CON(C)C(=O)NC1C=CC(Br)=CC=1

> <InChI_Code_QSARr>
InChI=1S/C9H11BrN2O2/c1-12(14-2)9(13)11-8-5-3-7(10)4-6-8/h3-6H,1-2H3,(H,11,13)

> <InChI Key_QSARr>
WLFDQEVORAMCIM-UHFFFAOYSA-N

> <Salt_Solvent>


> <Salt_Solvent_ID>
0

> <MPID>
99759

> <KocRef>
Schuurmann-Main

> <LogKOC>
2.1

> <Tr_1_Tst_0>
0

$$$$
100491
  Mrv171c012251911022D          

 17 17  0  0  0  0            999 V2000
   -0.3345   -0.2717    0.0000 O   0  0  0  0  0  0  0  0  0  0  0  0
   -0.3345   -1.0967    0.0000 C   0  0  0  0  0  0  0  0  0  0  0  0
   -1.0489   -1.5092    0.0000 C   0  0  0  0  0  0  0  0  0  0  0  0
    0.3800    0.1408    0.0000 P   0  0  0  0  0  0  0  0  0  0  0  0
    0.7925   -0.5736    0.0000 S   0  0  0  0  0  0  0  0  0  0  0  0
    1.0945    0.5533    0.0000 O   0  0  0  0  0  0  0  0  0  0  0  0
    1.0945    1.3783    0.0000 C   0  0  0  0  0  0  0  0  0  0  0  0
    1.8089    1.7908    0.0000 C   0  0  0  0  0  0  0  0  0  0  0  0
    1.8089    2.6158    0.0000 C   0  0  0  0  0  0  0  0  0  0  0  0
    1.0945    3.0283    0.0000 C   0  0  0  0  0  0  0  0  0  0  0  0
    1.0945    3.8533    0.0000 S   0  0  0  0  0  0  0  0  0  0  0  0
    0.3800    4.2658    0.0000 C   0  0  0  0  0  0  0  0  0  0  0  0
    0.3800    2.6158    0.0000 C   0  0  0  0  0  0  0  0  0  0  0  0
    0.3800    1.7908    0.0000 C   0  0  0  0  0  0  0  0  0  0  0  0
   -0.0325    0.8553    0.0000 O   0  0  0  0  0  0  0  0  0  0  0  0
   -0.8575    0.8553    0.0000 C   0  0  0  0  0  0  0  0  0  0  0  0
   -1.2700    1.5698    0.0000 C   0  0  0  0  0  0  0  0  0  0  0  0
  1  2  1  0  0  0  0
  2  3  1  0  0  0  0
  1  4  1  0  0  0  0
  4  5  2  0  0  0  0
  4  6  1  0  0  0  0
  6  7  1  0  0  0  0
  8  7  1  0  0  0  0
  9  8  2  0  0  0  0
 10  9  1  0  0  0  0
 10 11  1  0  0  0  0
 11 12  1  0  0  0  0
 13 10  2  0  0  0  0
 14 13  1  0  0  0  0
  7 14  2  0  0  0  0
  4 15  1  0  0  0  0
 15 16  1  0  0  0  0
 16 17  1  0  0  0  0
M  END
> <ChemID>
100491

> <CAS>
3070-15-3

> <Original_SMILES>
CSc1ccc(cc1)OP(=S)(OCC)OCC

> <preferred_name>
Phosphorothioic acid, O,O-diethyl O-[4-(methylthio)phenyl] ester

> <dsstox_substance_id>
DTXSID7062827

> <dsstox_compound_id>
DTXCID6038243

> <qc_level>
Public_High

> <Canonical_QSARr>
CSC1C=CC(=CC=1)OP(=S)(OCC)OCC

> <InChI_Code_QSARr>
InChI=1S/C11H17O3PS2/c1-4-12-15(16,13-5-2)14-10-6-8-11(17-3)9-7-10/h6-9H,4-5H2,1-3H3

> <InChI Key_QSARr>
NYAZLCBHRWRNRY-UHFFFAOYSA-N

> <Salt_Solvent>


> <Salt_Solvent_ID>
0

> <MPID>
99760

> <KocRef>
Schuurmann-Main

> <LogKOC>
3.18

> <Tr_1_Tst_0>
1

$$$$
100492
  Mrv171c012251911022D          

 15 15  0  0  0  0            999 V2000
    3.3315   -2.7637    0.0000 C   0  0  0  0  0  0  0  0  0  0  0  0
    2.6170   -2.3512    0.0000 N   0  0  0  0  0  0  0  0  0  0  0  0
    2.6170   -1.5262    0.0000 S   0  0  0  0  0  0  0  0  0  0  0  0
    2.6170   -0.7012    0.0000 C   0  0  0  0  0  0  0  0  0  0  0  0
    3.3315   -0.2887    0.0000 C   0  0  0  0  0  0  0  0  0  0  0  0
    3.3315    0.5363    0.0000 C   0  0  0  0  0  0  0  0  0  0  0  0
    2.6170    0.9488    0.0000 C   0  0  0  0  0  0  0  0  0  0  0  0
    2.6170    1.7738    0.0000 N   0  0  0  0  0  0  0  0  0  0  0  0
    1.9025    0.5363    0.0000 C   0  0  0  0  0  0  0  0  0  0  0  0
    1.9025   -0.2887    0.0000 C   0  0  0  0  0  0  0  0  0  0  0  0
    1.7920   -1.5262    0.0000 O   0  0  0  0  0  0  0  0  0  0  0  0
    3.4420   -1.5262    0.0000 O   0  0  0  0  0  0  0  0  0  0  0  0
    3.3315   -3.5887    0.0000 O   0  0  0  0  0  0  0  0  0  0  0  0
    4.0459   -4.0012    0.0000 C   0  0  0  0  0  0  0  0  0  0  0  0
    4.0459   -2.3512    0.0000 O   0  0  0  0  0  0  0  0  0  0  0  0
  1  2  1  0  0  0  0
  2  3  1  0  0  0  0
  3  4  1  0  0  0  0
  5  4  1  0  0  0  0
  6  5  2  0  0  0  0
  7  6  1  0  0  0  0
  7  8  1  0  0  0  0
  9  7  2  0  0  0  0
 10  9  1  0  0  0  0
  4 10  2  0  0  0  0
  3 11  2  0  0  0  0
  3 12  2  0  0  0  0
  1 13  1  0  0  0  0
 13 14  1  0  0  0  0
  1 15  2  0  0  0  0
M  END
> <ChemID>
100492

> <CAS>
3337-71-1

> <Original_SMILES>
COC(=O)NS(=O)(=O)c1ccc(N)cc1

> <preferred_name>
Asulam

> <dsstox_substance_id>
DTXSID8023890

> <dsstox_compound_id>
DTXCID603890

> <qc_level>
DSSTox_High

> <Canonical_QSARr>
COC(=O)NS(=O)(=O)C1C=CC(N)=CC=1

> <InChI_Code_QSARr>
InChI=1S/C8H10N2O4S/c1-14-8(11)10-15(12,13)7-4-2-6(9)3-5-7/h2-5H,9H2,1H3,(H,10,11)

> <InChI Key_QSARr>
VGPYEHKOIGNJKV-UHFFFAOYSA-N

> <Salt_Solvent>


> <Salt_Solvent_ID>
0

> <MPID>
99761

> <KocRef>
Schuurmann-Main

> <LogKOC>
1.6

> <Tr_1_Tst_0>
1

$$$$
100493
  Mrv171c012251911022D          

 27 28  0  0  0  0            999 V2000
    6.8021   -2.2034    0.0000 C   0  0  0  0  0  0  0  0  0  0  0  0
    6.8021   -1.3784    0.0000 C   0  0  0  0  0  0  0  0  0  0  0  0
    6.0876   -0.9659    0.0000 C   0  0  0  0  0  0  0  0  0  0  0  0
    6.0876   -0.1409    0.0000 S   0  0  0  0  0  0  0  0  0  0  0  0
    5.3731    0.2716    0.0000 C   0  0  0  0  0  0  0  0  0  0  0  0
    5.3731    1.0966    0.0000 C   0  0  0  0  0  0  0  0  0  0  0  0
    4.6587    1.5091    0.0000 C   0  0  0  0  0  0  0  0  0  0  0  0
    3.9442    1.0966    0.0000 C   0  0  0  0  0  0  0  0  0  0  0  0
    3.2297    1.5091    0.0000 O   0  0  0  0  0  0  0  0  0  0  0  0
    2.5153    1.0966    0.0000 P   0  0  0  0  0  0  0  0  0  0  0  0
    2.1028    1.8111    0.0000 S   0  0  0  0  0  0  0  0  0  0  0  0
    1.8008    0.6841    0.0000 O   0  0  0  0  0  0  0  0  0  0  0  0
    1.0863    1.0966    0.0000 C   0  0  0  0  0  0  0  0  0  0  0  0
    2.9278    0.3822    0.0000 O   0  0  0  0  0  0  0  0  0  0  0  0
    2.5153   -0.3323    0.0000 C   0  0  0  0  0  0  0  0  0  0  0  0
    3.9442    0.2716    0.0000 C   0  0  0  0  0  0  0  0  0  0  0  0
    4.6587   -0.1409    0.0000 C   0  0  0  0  0  0  0  0  0  0  0  0
    5.3731   -1.3784    0.0000 C   0  0  0  0  0  0  0  0  0  0  0  0
    5.3731   -2.2034    0.0000 C   0  0  0  0  0  0  0  0  0  0  0  0
    6.0876   -2.6159    0.0000 C   0  0  0  0  0  0  0  0  0  0  0  0
    6.0876   -3.4409    0.0000 O   0  0  0  0  0  0  0  0  0  0  0  0
    6.8021   -3.8534    0.0000 P   0  0  0  0  0  0  0  0  0  0  0  0
    7.5166   -4.2659    0.0000 O   0  0  0  0  0  0  0  0  0  0  0  0
    8.2310   -3.8534    0.0000 C   0  0  0  0  0  0  0  0  0  0  0  0
    6.3896   -4.5678    0.0000 O   0  0  0  0  0  0  0  0  0  0  0  0
    6.8021   -5.2823    0.0000 C   0  0  0  0  0  0  0  0  0  0  0  0
    7.2146   -3.1389    0.0000 S   0  0  0  0  0  0  0  0  0  0  0  0
  2  1  2  0  0  0  0
  3  2  1  0  0  0  0
  3  4  1  0  0  0  0
  4  5  1  0  0  0  0
  6  5  2  0  0  0  0
  7  6  1  0  0  0  0
  8  7  2  0  0  0  0
  8  9  1  0  0  0  0
  9 10  1  0  0  0  0
 10 11  2  0  0  0  0
 10 12  1  0  0  0  0
 12 13  1  0  0  0  0
 10 14  1  0  0  0  0
 14 15  1  0  0  0  0
 16  8  1  0  0  0  0
 17 16  2  0  0  0  0
  5 17  1  0  0  0  0
 18  3  2  0  0  0  0
 19 18  1  0  0  0  0
 20 19  2  0  0  0  0
  1 20  1  0  0  0  0
 20 21  1  0  0  0  0
 21 22  1  0  0  0  0
 22 23  1  0  0  0  0
 23 24  1  0  0  0  0
 22 25  1  0  0  0  0
 25 26  1  0  0  0  0
 22 27  2  0  0  0  0
M  END
> <ChemID>
100493

> <CAS>
3383-96-8

> <Original_SMILES>
COP(=S)(Oc1ccc(cc1)Sc1ccc(cc1)OP(=S)(OC)OC)OC

> <preferred_name>
Temephos

> <dsstox_substance_id>
DTXSID1032484

> <dsstox_compound_id>
DTXCID9012484

> <qc_level>
DSSTox_Low

> <Canonical_QSARr>
COP(=S)(OC1C=CC(=CC=1)SC1C=CC(=CC=1)OP(=S)(OC)OC)OC

> <InChI_Code_QSARr>
InChI=1S/C16H20O6P2S3/c1-17-23(25,18-2)21-13-5-9-15(10-6-13)27-16-11-7-14(8-12-16)22-24(26,19-3)20-4/h5-12H,1-4H3

> <InChI Key_QSARr>
WWJZWCUNLNYYAU-UHFFFAOYSA-N

> <Salt_Solvent>


> <Salt_Solvent_ID>
0

> <MPID>
99762

> <KocRef>
Schuurmann-Main

> <LogKOC>
5.0

> <Tr_1_Tst_0>
1

$$$$
100494
  Mrv171c012251911022D          

 12 12  0  0  0  0            999 V2000
    2.7428   -0.6169    0.0000 C   0  0  0  0  0  0  0  0  0  0  0  0
    3.4573   -1.0294    0.0000 O   0  0  0  0  0  0  0  0  0  0  0  0
    2.0283   -1.0294    0.0000 C   0  0  0  0  0  0  0  0  0  0  0  0
    1.3139   -0.6169    0.0000 C   0  0  0  0  0  0  0  0  0  0  0  0
    1.3139    0.2081    0.0000 Cl  0  0  0  0  0  0  0  0  0  0  0  0
    0.5994   -1.0294    0.0000 C   0  0  0  0  0  0  0  0  0  0  0  0
    0.5994   -1.8544    0.0000 C   0  0  0  0  0  0  0  0  0  0  0  0
    1.3139   -2.2669    0.0000 C   0  0  0  0  0  0  0  0  0  0  0  0
    1.3139   -3.0919    0.0000 Cl  0  0  0  0  0  0  0  0  0  0  0  0
    2.0283   -1.8544    0.0000 C   0  0  0  0  0  0  0  0  0  0  0  0
    2.7428   -2.2669    0.0000 O   0  0  0  0  0  0  0  0  0  0  0  0
    2.7428    0.2081    0.0000 O   0  0  0  0  0  0  0  0  0  0  0  0
  1  2  1  0  0  0  0
  1  3  1  0  0  0  0
  4  3  1  0  0  0  0
  4  5  1  0  0  0  0
  6  4  2  0  0  0  0
  7  6  1  0  0  0  0
  8  7  2  0  0  0  0
  8  9  1  0  0  0  0
 10  8  1  0  0  0  0
  3 10  2  0  0  0  0
 10 11  1  0  0  0  0
  1 12  2  0  0  0  0
M  END
> <ChemID>
100494

> <CAS>
3401-80-7

> <Original_SMILES>
Oc1c(c(Cl)ccc1Cl)C(O)=O

> <preferred_name>
Benzoic acid, 3,6-dichloro-2-hydroxy-

> <dsstox_substance_id>
DTXSID9041657

> <dsstox_compound_id>
DTXCID7021657

> <qc_level>
DSSTox_Low

> <Canonical_QSARr>
OC1C(Cl)=CC=C(Cl)C=1C(O)=O

> <InChI_Code_QSARr>
InChI=1S/C7H4Cl2O3/c8-3-1-2-4(9)6(10)5(3)7(11)12/h1-2,10H,(H,11,12)

> <InChI Key_QSARr>
FKIKPQHMWFZFEB-UHFFFAOYSA-N

> <Salt_Solvent>


> <Salt_Solvent_ID>
0

> <MPID>
99763

> <KocRef>
SRC 1992 Validation

> <LogKOC>
2.3

> <Tr_1_Tst_0>
0

$$$$
100495
  Mrv171c012251911022D          

 18 19  0  0  0  0            999 V2000
    3.8892   -2.7489    0.0000 C   0  0  0  0  0  0  0  0  0  0  0  0
    4.6037   -2.3364    0.0000 Cl  0  0  0  0  0  0  0  0  0  0  0  0
    3.1748   -2.3364    0.0000 C   0  0  0  0  0  0  0  0  0  0  0  0
    3.1748   -1.5114    0.0000 C   0  0  0  0  0  0  0  0  0  0  0  0
    2.4603   -1.0989    0.0000 C   0  0  0  0  0  0  0  0  0  0  0  0
    2.4603   -0.2739    0.0000 C   0  0  0  0  0  0  0  0  0  0  0  0
    1.7458    0.1386    0.0000 C   0  0  0  0  0  0  0  0  0  0  0  0
    1.0314   -0.2739    0.0000 C   0  0  0  0  0  0  0  0  0  0  0  0
    0.3169    0.1386    0.0000 Cl  0  0  0  0  0  0  0  0  0  0  0  0
    1.0314   -1.0989    0.0000 C   0  0  0  0  0  0  0  0  0  0  0  0
    1.7458   -1.5114    0.0000 C   0  0  0  0  0  0  0  0  0  0  0  0
    3.8892   -1.0989    0.0000 C   0  0  0  0  0  0  0  0  0  0  0  0
    4.6037   -1.5114    0.0000 Cl  0  0  0  0  0  0  0  0  0  0  0  0
    3.8892   -0.2739    0.0000 Cl  0  0  0  0  0  0  0  0  0  0  0  0
    2.4603   -2.7489    0.0000 C   0  0  0  0  0  0  0  0  0  0  0  0
    2.4603   -3.5739    0.0000 C   0  0  0  0  0  0  0  0  0  0  0  0
    3.1748   -3.9864    0.0000 C   0  0  0  0  0  0  0  0  0  0  0  0
    3.8892   -3.5739    0.0000 C   0  0  0  0  0  0  0  0  0  0  0  0
  1  2  1  0  0  0  0
  3  1  2  0  0  0  0
  3  4  1  0  0  0  0
  4  5  1  0  0  0  0
  6  5  1  0  0  0  0
  7  6  2  0  0  0  0
  8  7  1  0  0  0  0
  8  9  1  0  0  0  0
 10  8  2  0  0  0  0
 11 10  1  0  0  0  0
  5 11  2  0  0  0  0
  4 12  2  0  0  0  0
 12 13  1  0  0  0  0
 12 14  1  0  0  0  0
 15  3  1  0  0  0  0
 16 15  2  0  0  0  0
 17 16  1  0  0  0  0
 18 17  2  0  0  0  0
  1 18  1  0  0  0  0
M  END
> <ChemID>
100495

> <CAS>
3424-82-6

> <Original_SMILES>
ClC(Cl)=C(c1ccccc1Cl)c1ccc(Cl)cc1

> <preferred_name>
o,p'-DDE

> <dsstox_substance_id>
DTXSID4022313

> <dsstox_compound_id>
DTXCID302313

> <qc_level>
DSSTox_Low

> <Canonical_QSARr>
ClC(Cl)=C(C1C=CC=CC=1Cl)C1C=CC(Cl)=CC=1

> <InChI_Code_QSARr>
InChI=1S/C14H8Cl4/c15-10-7-5-9(6-8-10)13(14(17)18)11-3-1-2-4-12(11)16/h1-8H

> <InChI Key_QSARr>
ZDYJWDIWLRZXDB-UHFFFAOYSA-N

> <Salt_Solvent>


> <Salt_Solvent_ID>
0

> <MPID>
99764

> <KocRef>
USDA Pest Prop DB

> <LogKOC>
5.49

> <Tr_1_Tst_0>
1

$$$$
100496
  Mrv171c012251911022D          

 21 22  0  0  0  0            999 V2000
    2.7112   -0.8032    0.0000 C   0  0  0  0  0  0  0  0  0  0  0  0
    3.4257   -1.2157    0.0000 O   0  0  0  0  0  0  0  0  0  0  0  0
    4.1402   -0.8032    0.0000 C   0  0  0  0  0  0  0  0  0  0  0  0
    4.8547   -1.2157    0.0000 C   0  0  0  0  0  0  0  0  0  0  0  0
    5.5691   -0.8032    0.0000 C   0  0  0  0  0  0  0  0  0  0  0  0
    6.2836   -1.2157    0.0000 N   0  0  0  0  0  0  0  0  0  0  0  0
    6.2836   -2.0407    0.0000 C   0  0  0  0  0  0  0  0  0  0  0  0
    6.9981   -2.4532    0.0000 C   0  0  0  0  0  0  0  0  0  0  0  0
    7.7125   -2.0407    0.0000 C   0  0  0  0  0  0  0  0  0  0  0  0
    7.7125   -1.2157    0.0000 C   0  0  0  0  0  0  0  0  0  0  0  0
    6.9981   -0.8032    0.0000 C   0  0  0  0  0  0  0  0  0  0  0  0
    6.9981    0.0218    0.0000 C   0  0  0  0  0  0  0  0  0  0  0  0
    1.9968   -1.2157    0.0000 C   0  0  0  0  0  0  0  0  0  0  0  0
    1.2823   -0.8032    0.0000 C   0  0  0  0  0  0  0  0  0  0  0  0
    0.5678   -1.2157    0.0000 C   0  0  0  0  0  0  0  0  0  0  0  0
    0.5678   -2.0407    0.0000 C   0  0  0  0  0  0  0  0  0  0  0  0
   -0.1466   -2.4532    0.0000 Cl  0  0  0  0  0  0  0  0  0  0  0  0
    1.2823   -2.4532    0.0000 C   0  0  0  0  0  0  0  0  0  0  0  0
    1.2823   -3.2782    0.0000 Cl  0  0  0  0  0  0  0  0  0  0  0  0
    1.9968   -2.0407    0.0000 C   0  0  0  0  0  0  0  0  0  0  0  0
    2.7112    0.0218    0.0000 O   0  0  0  0  0  0  0  0  0  0  0  0
  1  2  1  0  0  0  0
  2  3  1  0  0  0  0
  3  4  1  0  0  0  0
  4  5  1  0  0  0  0
  5  6  1  0  0  0  0
  7  6  1  0  0  0  0
  8  7  1  0  0  0  0
  9  8  1  0  0  0  0
 10  9  1  0  0  0  0
 11 10  1  0  0  0  0
  6 11  1  0  0  0  0
 11 12  1  0  0  0  0
  1 13  1  0  0  0  0
 14 13  1  0  0  0  0
 15 14  2  0  0  0  0
 16 15  1  0  0  0  0
 16 17  1  0  0  0  0
 18 16  2  0  0  0  0
 18 19  1  0  0  0  0
 20 18  1  0  0  0  0
 13 20  2  0  0  0  0
  1 21  2  0  0  0  0
M  END
> <ChemID>
100496

> <CAS>
3478-94-2

> <Original_SMILES>
CC1CCCCN1CCCOC(=O)c1cc(Cl)c(Cl)cc1

> <preferred_name>
Piperalin

> <dsstox_substance_id>
DTXSID7032634

> <dsstox_compound_id>
DTXCID5012634

> <qc_level>
DSSTox_Low

> <Canonical_QSARr>
CC1CCCCN1CCCOC(=O)C1=CC(Cl)=C(Cl)C=C1

> <InChI_Code_QSARr>
InChI=1S/C16H21Cl2NO2/c1-12-5-2-3-8-19(12)9-4-10-21-16(20)13-6-7-14(17)15(18)11-13/h6-7,11-12H,2-5,8-10H2,1H3

> <InChI Key_QSARr>
BZGLBXYQOMFXAU-UHFFFAOYSA-N

> <Salt_Solvent>


> <Salt_Solvent_ID>
0

> <MPID>
99765

> <KocRef>
Schuurmann-Main

> <LogKOC>
3.7

> <Tr_1_Tst_0>
1

$$$$
100497
  Mrv171c012251911022D          

 11 11  0  0  0  0            999 V2000
    2.8003   -0.6797    0.0000 N   0  0  0  0  0  0  0  0  0  0  0  0
    2.0858   -1.0922    0.0000 C   0  0  0  0  0  0  0  0  0  0  0  0
    1.3713   -0.6797    0.0000 C   0  0  0  0  0  0  0  0  0  0  0  0
    1.3713    0.1453    0.0000 Cl  0  0  0  0  0  0  0  0  0  0  0  0
    0.6569   -1.0922    0.0000 C   0  0  0  0  0  0  0  0  0  0  0  0
   -0.0576   -0.6797    0.0000 Cl  0  0  0  0  0  0  0  0  0  0  0  0
    0.6569   -1.9172    0.0000 C   0  0  0  0  0  0  0  0  0  0  0  0
    1.3713   -2.3297    0.0000 C   0  0  0  0  0  0  0  0  0  0  0  0
    1.3713   -3.1547    0.0000 Cl  0  0  0  0  0  0  0  0  0  0  0  0
    2.0858   -1.9172    0.0000 C   0  0  0  0  0  0  0  0  0  0  0  0
    2.8003   -2.3297    0.0000 Cl  0  0  0  0  0  0  0  0  0  0  0  0
  1  2  1  0  0  0  0
  3  2  1  0  0  0  0
  3  4  1  0  0  0  0
  5  3  2  0  0  0  0
  5  6  1  0  0  0  0
  7  5  1  0  0  0  0
  8  7  2  0  0  0  0
  8  9  1  0  0  0  0
 10  8  1  0  0  0  0
  2 10  2  0  0  0  0
 10 11  1  0  0  0  0
M  END
> <ChemID>
100497

> <CAS>
3481-20-7

> <Original_SMILES>
Nc1c(Cl)c(Cl)cc(Cl)c1Cl

> <preferred_name>
2,3,5,6-Tetrachloroaniline

> <dsstox_substance_id>
DTXSID2022208

> <dsstox_compound_id>
DTXCID802208

> <qc_level>
DSSTox_Low

> <Canonical_QSARr>
NC1=C(Cl)C(Cl)=CC(Cl)=C1Cl

> <InChI_Code_QSARr>
InChI=1S/C6H3Cl4N/c7-2-1-3(8)5(10)6(11)4(2)9/h1H,11H2

> <InChI Key_QSARr>
YTDHEFNWWHSXSU-UHFFFAOYSA-N

> <Salt_Solvent>


> <Salt_Solvent_ID>
0

> <MPID>
99766

> <KocRef>
Schuurmann-Main

> <LogKOC>
3.94

> <Tr_1_Tst_0>
1

$$$$
100498
  Mrv171c012251911022D          

 13 13  0  0  0  0            999 V2000
    1.9775   -2.9833    0.0000 C   0  0  0  0  0  0  0  0  0  0  0  0
    1.9775   -3.8083    0.0000 N   0  0  0  0  0  0  0  0  0  0  0  0
    1.2630   -4.2208    0.0000 C   0  0  0  0  0  0  0  0  0  0  0  0
    1.2630   -2.5708    0.0000 O   0  0  0  0  0  0  0  0  0  0  0  0
    2.6920   -2.5708    0.0000 N   0  0  0  0  0  0  0  0  0  0  0  0
    2.6920   -1.7458    0.0000 C   0  0  0  0  0  0  0  0  0  0  0  0
    3.4064   -1.3333    0.0000 C   0  0  0  0  0  0  0  0  0  0  0  0
    3.4064   -0.5083    0.0000 C   0  0  0  0  0  0  0  0  0  0  0  0
    2.6920   -0.0958    0.0000 C   0  0  0  0  0  0  0  0  0  0  0  0
    2.6920    0.7292    0.0000 Cl  0  0  0  0  0  0  0  0  0  0  0  0
    1.9775   -0.5083    0.0000 C   0  0  0  0  0  0  0  0  0  0  0  0
    1.2630   -0.0958    0.0000 Cl  0  0  0  0  0  0  0  0  0  0  0  0
    1.9775   -1.3333    0.0000 C   0  0  0  0  0  0  0  0  0  0  0  0
  1  2  1  0  0  0  0
  2  3  1  0  0  0  0
  1  4  2  0  0  0  0
  1  5  1  0  0  0  0
  5  6  1  0  0  0  0
  7  6  1  0  0  0  0
  8  7  2  0  0  0  0
  9  8  1  0  0  0  0
  9 10  1  0  0  0  0
 11  9  2  0  0  0  0
 11 12  1  0  0  0  0
 13 11  1  0  0  0  0
  6 13  2  0  0  0  0
M  END
> <ChemID>
100498

> <CAS>
3567-62-2

> <Original_SMILES>
CNC(=O)Nc1ccc(Cl)c(Cl)c1

> <preferred_name>
N-(3,4-Dichlorophenyl)-N'-methylurea

> <dsstox_substance_id>
DTXSID3042180

> <dsstox_compound_id>
DTXCID1022180

> <qc_level>
DSSTox_Low

> <Canonical_QSARr>
CNC(=O)NC1=CC(Cl)=C(Cl)C=C1

> <InChI_Code_QSARr>
InChI=1S/C8H8Cl2N2O/c1-11-8(13)12-5-2-3-6(9)7(10)4-5/h2-4H,1H3,(H2,11,12,13)

> <InChI Key_QSARr>
IDQHRQQSSQDLTR-UHFFFAOYSA-N

> <Salt_Solvent>


> <Salt_Solvent_ID>
0

> <MPID>
99767

> <KocRef>
Schuurmann-Main

> <LogKOC>
2.46

> <Tr_1_Tst_0>
0

$$$$
100499
  Mrv171c012251911022D          

 14 15  0  0  0  0            999 V2000
    0.7145    2.0626    0.0000 C   0  0  0  0  0  0  0  0  0  0  0  0
    1.4290    2.4751    0.0000 C   0  0  0  0  0  0  0  0  0  0  0  0
    1.4290    3.3001    0.0000 C   0  0  0  0  0  0  0  0  0  0  0  0
    0.7145    3.7126    0.0000 C   0  0  0  0  0  0  0  0  0  0  0  0
    0.7145    4.5376    0.0000 C   0  0  0  0  0  0  0  0  0  0  0  0
    0.0000    4.9501    0.0000 O   0  0  0  0  0  0  0  0  0  0  0  0
    0.0000    3.3001    0.0000 C   0  0  0  0  0  0  0  0  0  0  0  0
    0.0000    2.4751    0.0000 C   0  0  0  0  0  0  0  0  0  0  0  0
    0.7145    1.2376    0.0000 C   0  0  0  0  0  0  0  0  0  0  0  0
    0.0000    0.8251    0.0000 C   0  0  0  0  0  0  0  0  0  0  0  0
    0.0000    0.0001    0.0000 C   0  0  0  0  0  0  0  0  0  0  0  0
    0.7145   -0.4124    0.0000 C   0  0  0  0  0  0  0  0  0  0  0  0
    1.4290    0.0001    0.0000 C   0  0  0  0  0  0  0  0  0  0  0  0
    1.4290    0.8251    0.0000 C   0  0  0  0  0  0  0  0  0  0  0  0
  2  1  1  0  0  0  0
  3  2  2  0  0  0  0
  4  3  1  0  0  0  0
  4  5  1  0  0  0  0
  5  6  1  0  0  0  0
  7  4  2  0  0  0  0
  8  7  1  0  0  0  0
  1  8  2  0  0  0  0
  1  9  1  0  0  0  0
 10  9  1  0  0  0  0
 11 10  2  0  0  0  0
 12 11  1  0  0  0  0
 13 12  2  0  0  0  0
 14 13  1  0  0  0  0
  9 14  2  0  0  0  0
M  END
> <ChemID>
100499

> <CAS>
3597-91-9

> <Original_SMILES>
OCc1ccc(cc1)-c1ccccc1

> <preferred_name>
4-Biphenylmethanol

> <dsstox_substance_id>
DTXSID5075234

> <dsstox_compound_id>
DTXCID3039119

> <qc_level>
Public_High

> <Canonical_QSARr>
OCC1C=CC(=CC=1)C1C=CC=CC=1

> <InChI_Code_QSARr>
InChI=1S/C13H12O/c14-10-11-6-8-13(9-7-11)12-4-2-1-3-5-12/h1-9,14H,10H2

> <InChI Key_QSARr>
AXCHZLOJGKSWLV-UHFFFAOYSA-N

> <Salt_Solvent>


> <Salt_Solvent_ID>
0

> <MPID>
99768

> <KocRef>
Schuurmann-Main

> <LogKOC>
2.54

> <Tr_1_Tst_0>
1

$$$$
100500
  Mrv171c012251911022D          

 15 15  0  0  0  0            999 V2000
    4.8220   -2.1478    0.0000 C   0  0  0  0  0  0  0  0  0  0  0  0
    4.1075   -2.5603    0.0000 C   0  0  0  0  0  0  0  0  0  0  0  0
    3.3931   -2.1478    0.0000 C   0  0  0  0  0  0  0  0  0  0  0  0
    2.6786   -2.5603    0.0000 C   0  0  0  0  0  0  0  0  0  0  0  0
    1.9641   -2.1478    0.0000 C   0  0  0  0  0  0  0  0  0  0  0  0
    1.9641   -1.3228    0.0000 O   0  0  0  0  0  0  0  0  0  0  0  0
    1.2497   -0.9103    0.0000 C   0  0  0  0  0  0  0  0  0  0  0  0
    0.5352   -1.3228    0.0000 O   0  0  0  0  0  0  0  0  0  0  0  0
    1.2497   -0.0853    0.0000 N   0  0  0  0  0  0  0  0  0  0  0  0
    0.5352    0.3272    0.0000 C   0  0  0  0  0  0  0  0  0  0  0  0
    1.2497   -2.5603    0.0000 C   0  0  0  0  0  0  0  0  0  0  0  0
    1.2497   -3.3853    0.0000 C   0  0  0  0  0  0  0  0  0  0  0  0
    1.9641   -3.7978    0.0000 C   0  0  0  0  0  0  0  0  0  0  0  0
    2.6786   -3.3853    0.0000 C   0  0  0  0  0  0  0  0  0  0  0  0
    3.3931   -1.3228    0.0000 C   0  0  0  0  0  0  0  0  0  0  0  0
  1  2  1  0  0  0  0
  2  3  1  0  0  0  0
  3  4  1  0  0  0  0
  5  4  1  0  0  0  0
  5  6  1  0  0  0  0
  6  7  1  0  0  0  0
  7  8  2  0  0  0  0
  7  9  1  0  0  0  0
  9 10  1  0  0  0  0
 11  5  2  0  0  0  0
 12 11  1  0  0  0  0
 13 12  2  0  0  0  0
 14 13  1  0  0  0  0
  4 14  2  0  0  0  0
  3 15  1  0  0  0  0
M  END
> <ChemID>
100500

> <CAS>
3766-81-2

> <Original_SMILES>
CCC(C)c1ccccc1OC(=O)NC

> <preferred_name>
Fenobucarb

> <dsstox_substance_id>
DTXSID4058077

> <dsstox_compound_id>
DTXCID0031845

> <qc_level>
DSSTox_High

> <Canonical_QSARr>
CCC(C)C1=CC=CC=C1OC(=O)NC

> <InChI_Code_QSARr>
InChI=1S/C12H17NO2/c1-4-9(2)10-7-5-6-8-11(10)15-12(14)13-3/h5-9H,4H2,1-3H3,(H,13,14)

> <InChI Key_QSARr>
DIRFUJHNVNOBMY-UHFFFAOYSA-N

> <Salt_Solvent>


> <Salt_Solvent_ID>
0

> <MPID>
99769

> <KocRef>
Schuurmann-Main

> <LogKOC>
1.71

> <Tr_1_Tst_0>
1

$$$$
100501
  Mrv171c012251911022D          

 15 16  0  0  0  0            999 V2000
    1.5541    0.0320    0.0000 C   0  0  0  0  0  0  0  0  0  0  0  0
    1.0020   -0.5811    0.0000 C   0  0  0  0  0  0  0  0  0  0  0  0
    1.2570   -1.3658    0.0000 N   0  0  0  0  0  0  0  0  0  0  0  0
    2.0416   -1.6207    0.0000 C   0  0  0  0  0  0  0  0  0  0  0  0
    2.7561   -1.2082    0.0000 C   0  0  0  0  0  0  0  0  0  0  0  0
    2.7561   -0.3832    0.0000 Cl  0  0  0  0  0  0  0  0  0  0  0  0
    3.4705   -1.6207    0.0000 C   0  0  0  0  0  0  0  0  0  0  0  0
    3.4705   -2.4457    0.0000 C   0  0  0  0  0  0  0  0  0  0  0  0
    2.7561   -2.8582    0.0000 C   0  0  0  0  0  0  0  0  0  0  0  0
    2.0416   -2.4457    0.0000 C   0  0  0  0  0  0  0  0  0  0  0  0
    1.2570   -2.7006    0.0000 S   0  0  0  0  0  0  0  0  0  0  0  0
    0.7720   -2.0332    0.0000 C   0  0  0  0  0  0  0  0  0  0  0  0
   -0.0530   -2.0332    0.0000 O   0  0  0  0  0  0  0  0  0  0  0  0
    1.2991    0.8166    0.0000 O   0  0  0  0  0  0  0  0  0  0  0  0
    2.3610   -0.1396    0.0000 O   0  0  0  0  0  0  0  0  0  0  0  0
  1  2  1  0  0  0  0
  2  3  1  0  0  0  0
  4  3  1  0  0  0  0
  4  5  2  0  0  0  0
  5  6  1  0  0  0  0
  5  7  1  0  0  0  0
  7  8  2  0  0  0  0
  8  9  1  0  0  0  0
  9 10  2  0  0  0  0
 10  4  1  0  0  0  0
 11 10  1  0  0  0  0
 12 11  1  0  0  0  0
  3 12  1  0  0  0  0
 12 13  2  0  0  0  0
  1 14  1  0  0  0  0
  1 15  2  0  0  0  0
M  END
> <ChemID>
100501

> <CAS>
3813-05-6

> <Original_SMILES>
OC(=O)CN1c2c(Cl)cccc2SC1=O

> <preferred_name>
Benazolin

> <dsstox_substance_id>
DTXSID2041620

> <dsstox_compound_id>
DTXCID0021620

> <qc_level>
DSSTox_Low

> <Canonical_QSARr>
OC(=O)CN1C2=C(Cl)C=CC=C2SC1=O

> <InChI_Code_QSARr>
InChI=1S/C9H6ClNO3S/c10-5-2-1-3-6-8(5)11(4-7(12)13)9(14)15-6/h1-3H,4H2,(H,12,13)

> <InChI Key_QSARr>
HYJSGOXICXYZGS-UHFFFAOYSA-N

> <Salt_Solvent>


> <Salt_Solvent_ID>
0

> <MPID>
99770

> <KocRef>
Schuurmann-Main

> <LogKOC>
1.52

> <Tr_1_Tst_0>
1

$$$$
100502
  Mrv171c012251911022D          

 16 16  0  0  0  0            999 V2000
    4.6413   -1.2383    0.0000 C   0  0  0  0  0  0  0  0  0  0  0  0
    3.9269   -0.8258    0.0000 O   0  0  0  0  0  0  0  0  0  0  0  0
    3.2124   -1.2383    0.0000 C   0  0  0  0  0  0  0  0  0  0  0  0
    2.4979   -0.8258    0.0000 C   0  0  0  0  0  0  0  0  0  0  0  0
    2.4979   -0.0008    0.0000 Br  0  0  0  0  0  0  0  0  0  0  0  0
    1.7835   -1.2383    0.0000 C   0  0  0  0  0  0  0  0  0  0  0  0
    1.7835   -2.0633    0.0000 C   0  0  0  0  0  0  0  0  0  0  0  0
    1.0690   -2.4758    0.0000 C   0  0  0  0  0  0  0  0  0  0  0  0
    0.3545   -2.8883    0.0000 N   0  0  0  0  0  0  0  0  0  0  0  0
    2.4979   -2.4758    0.0000 C   0  0  0  0  0  0  0  0  0  0  0  0
    3.2124   -2.0633    0.0000 C   0  0  0  0  0  0  0  0  0  0  0  0
    3.9269   -2.4758    0.0000 Br  0  0  0  0  0  0  0  0  0  0  0  0
    5.3558   -0.8258    0.0000 C   0  0  0  0  0  0  0  0  0  0  0  0
    6.0703   -1.2383    0.0000 C   0  0  0  0  0  0  0  0  0  0  0  0
    6.7847   -0.8258    0.0000 C   0  0  0  0  0  0  0  0  0  0  0  0
    4.6413   -2.0633    0.0000 O   0  0  0  0  0  0  0  0  0  0  0  0
  1  2  1  0  0  0  0
  2  3  1  0  0  0  0
  4  3  1  0  0  0  0
  4  5  1  0  0  0  0
  6  4  2  0  0  0  0
  7  6  1  0  0  0  0
  7  8  1  0  0  0  0
  8  9  3  0  0  0  0
 10  7  2  0  0  0  0
 11 10  1  0  0  0  0
  3 11  2  0  0  0  0
 11 12  1  0  0  0  0
  1 13  1  0  0  0  0
 13 14  1  0  0  0  0
 14 15  1  0  0  0  0
  1 16  2  0  0  0  0
M  END
> <ChemID>
100502

> <CAS>
3861-41-4

> <Original_SMILES>
CCCC(=O)Oc1c(Br)cc(cc1Br)C#N

> <preferred_name>
Bromoxynil butyrate

> <dsstox_substance_id>
DTXSID3032335

> <dsstox_compound_id>
DTXCID1012335

> <qc_level>
DSSTox_Low

> <Canonical_QSARr>
CCCC(=O)OC1C(Br)=CC(=CC=1Br)C#N

> <InChI_Code_QSARr>
InChI=1S/C11H9Br2NO2/c1-2-3-10(15)16-11-8(12)4-7(6-14)5-9(11)13/h4-5H,2-3H2,1H3

> <InChI Key_QSARr>
PGMZYNZXIYOOHJ-UHFFFAOYSA-N

> <Salt_Solvent>


> <Salt_Solvent_ID>
0

> <MPID>
99771

> <KocRef>
USDA Pest Prop DB

> <LogKOC>
3.03

> <Tr_1_Tst_0>
0

$$$$
100504
  Mrv171c012251911022D          

 17 17  0  0  0  0            999 V2000
    4.6692   -3.8260    0.0000 C   0  0  0  0  0  0  0  0  0  0  0  0
    3.9548   -3.4135    0.0000 C   0  0  0  0  0  0  0  0  0  0  0  0
    3.9548   -2.5885    0.0000 N   0  0  0  0  0  0  0  0  0  0  0  0
    3.2403   -2.1760    0.0000 C   0  0  0  0  0  0  0  0  0  0  0  0
    3.2403   -1.3510    0.0000 N   0  0  0  0  0  0  0  0  0  0  0  0
    2.5258   -0.9385    0.0000 C   0  0  0  0  0  0  0  0  0  0  0  0
    2.5258   -0.1135    0.0000 N   0  0  0  0  0  0  0  0  0  0  0  0
    3.2403    0.2990    0.0000 C   0  0  0  0  0  0  0  0  0  0  0  0
    3.2403    1.1240    0.0000 C   0  0  0  0  0  0  0  0  0  0  0  0
    3.9548   -0.1135    0.0000 C   0  0  0  0  0  0  0  0  0  0  0  0
    1.8114   -1.3510    0.0000 N   0  0  0  0  0  0  0  0  0  0  0  0
    1.8114   -2.1760    0.0000 C   0  0  0  0  0  0  0  0  0  0  0  0
    1.0969   -2.5885    0.0000 S   0  0  0  0  0  0  0  0  0  0  0  0
    1.0969   -3.4135    0.0000 C   0  0  0  0  0  0  0  0  0  0  0  0
    0.3824   -3.8260    0.0000 C   0  0  0  0  0  0  0  0  0  0  0  0
    2.5258   -2.5885    0.0000 N   0  0  0  0  0  0  0  0  0  0  0  0
    3.2403   -3.8260    0.0000 C   0  0  0  0  0  0  0  0  0  0  0  0
  1  2  1  0  0  0  0
  2  3  1  0  0  0  0
  3  4  1  0  0  0  0
  5  4  1  0  0  0  0
  6  5  2  0  0  0  0
  6  7  1  0  0  0  0
  7  8  1  0  0  0  0
  8  9  1  0  0  0  0
  8 10  1  0  0  0  0
 11  6  1  0  0  0  0
 12 11  2  0  0  0  0
 12 13  1  0  0  0  0
 13 14  1  0  0  0  0
 14 15  1  0  0  0  0
 16 12  1  0  0  0  0
  4 16  2  0  0  0  0
  2 17  1  0  0  0  0
M  END
> <ChemID>
100504

> <CAS>
4147-51-7

> <Original_SMILES>
CCSc1[n]c(NC(C)C)[n]c(NC(C)C)[n]1

> <preferred_name>
Dipropetryn

> <dsstox_substance_id>
DTXSID9037533

> <dsstox_compound_id>
DTXCID7017533

> <qc_level>
DSSTox_Low

> <Canonical_QSARr>
CCSC1N=C(NC(C)C)N=C(NC(C)C)N=1

> <InChI_Code_QSARr>
InChI=1S/C11H21N5S/c1-6-17-11-15-9(12-7(2)3)14-10(16-11)13-8(4)5/h7-8H,6H2,1-5H3,(H2,12,13,14,15,16)

> <InChI Key_QSARr>
NPWMZOGDXOFZIN-UHFFFAOYSA-N

> <Salt_Solvent>


> <Salt_Solvent_ID>
0

> <MPID>
99772

> <KocRef>
Schuurmann-Main

> <LogKOC>
3.07

> <Tr_1_Tst_0>
1

$$$$
100505
  Mrv171c012251911022D          

 10 10  0  0  0  0            999 V2000
    2.0080   -0.7510    0.0000 N   0  0  0  0  0  0  0  0  0  0  0  0
    1.2935   -0.3385    0.0000 C   0  0  0  0  0  0  0  0  0  0  0  0
    1.2935    0.4865    0.0000 Cl  0  0  0  0  0  0  0  0  0  0  0  0
    0.5791   -0.7510    0.0000 C   0  0  0  0  0  0  0  0  0  0  0  0
    0.5791   -1.5760    0.0000 C   0  0  0  0  0  0  0  0  0  0  0  0
    1.2935   -1.9885    0.0000 C   0  0  0  0  0  0  0  0  0  0  0  0
    2.0080   -1.5760    0.0000 C   0  0  0  0  0  0  0  0  0  0  0  0
    2.7225   -1.9885    0.0000 C   0  0  0  0  0  0  0  0  0  0  0  0
    3.4370   -1.5760    0.0000 O   0  0  0  0  0  0  0  0  0  0  0  0
    2.7225   -2.8135    0.0000 O   0  0  0  0  0  0  0  0  0  0  0  0
  2  1  1  0  0  0  0
  2  3  1  0  0  0  0
  4  2  2  0  0  0  0
  5  4  1  0  0  0  0
  6  5  2  0  0  0  0
  7  6  1  0  0  0  0
  1  7  2  0  0  0  0
  7  8  1  0  0  0  0
  8  9  1  0  0  0  0
  8 10  2  0  0  0  0
M  END
> <ChemID>
100505

> <CAS>
4684-94-0

> <Original_SMILES>
OC(=O)c1cccc(Cl)[n]1

> <preferred_name>
6-Chloro-2-picolinic acid

> <dsstox_substance_id>
DTXSID7040289

> <dsstox_compound_id>
DTXCID5020289

> <qc_level>
DSSTox_High

> <Canonical_QSARr>
OC(=O)C1C=CC=C(Cl)N=1

> <InChI_Code_QSARr>
InChI=1S/C6H4ClNO2/c7-5-3-1-2-4(8-5)6(9)10/h1-3H,(H,9,10)

> <InChI Key_QSARr>
ZLKMOIHCHCMSFW-UHFFFAOYSA-N

> <Salt_Solvent>


> <Salt_Solvent_ID>
0

> <MPID>
99773

> <KocRef>
Schuurmann-Main

> <LogKOC>
1.37

> <Tr_1_Tst_0>
1

$$$$
100506
  Mrv171c012251911022D          

 23 23  0  0  0  0            999 V2000
    1.8680   -2.4509    0.0000 C   0  0  0  0  0  0  0  0  0  0  0  0
    1.8680   -3.2759    0.0000 C   0  0  0  0  0  0  0  0  0  0  0  0
    2.5825   -3.6884    0.0000 C   0  0  0  0  0  0  0  0  0  0  0  0
    2.5825   -4.5134    0.0000 S   0  0  0  0  0  0  0  0  0  0  0  0
    2.5825   -5.3384    0.0000 C   0  0  0  0  0  0  0  0  0  0  0  0
    3.4075   -4.5134    0.0000 O   0  0  0  0  0  0  0  0  0  0  0  0
    1.7575   -4.5134    0.0000 O   0  0  0  0  0  0  0  0  0  0  0  0
    3.2970   -3.2759    0.0000 C   0  0  0  0  0  0  0  0  0  0  0  0
    3.2970   -2.4509    0.0000 C   0  0  0  0  0  0  0  0  0  0  0  0
    4.0114   -2.0384    0.0000 N   0  3  0  0  0  0  0  0  0  0  0  0
    4.0114   -1.2134    0.0000 O   0  0  0  0  0  0  0  0  0  0  0  0
    4.7259   -2.4509    0.0000 O   0  5  0  0  0  0  0  0  0  0  0  0
    2.5825   -2.0384    0.0000 C   0  0  0  0  0  0  0  0  0  0  0  0
    2.5825   -1.2134    0.0000 N   0  0  0  0  0  0  0  0  0  0  0  0
    1.8680   -0.8009    0.0000 C   0  0  0  0  0  0  0  0  0  0  0  0
    1.8680    0.0241    0.0000 C   0  0  0  0  0  0  0  0  0  0  0  0
    1.1535    0.4366    0.0000 C   0  0  0  0  0  0  0  0  0  0  0  0
    3.2970   -0.8009    0.0000 C   0  0  0  0  0  0  0  0  0  0  0  0
    3.2970    0.0241    0.0000 C   0  0  0  0  0  0  0  0  0  0  0  0
    4.0114    0.4366    0.0000 C   0  0  0  0  0  0  0  0  0  0  0  0
    1.1535   -2.0384    0.0000 N   0  3  0  0  0  0  0  0  0  0  0  0
    1.1535   -1.2134    0.0000 O   0  0  0  0  0  0  0  0  0  0  0  0
    0.4391   -2.4509    0.0000 O   0  5  0  0  0  0  0  0  0  0  0  0
  2  1  1  0  0  0  0
  3  2  2  0  0  0  0
  3  4  1  0  0  0  0
  4  5  1  0  0  0  0
  4  6  2  0  0  0  0
  4  7  2  0  0  0  0
  8  3  1  0  0  0  0
  9  8  2  0  0  0  0
  9 10  1  0  0  0  0
 10 11  2  0  0  0  0
 10 12  1  0  0  0  0
 13  9  1  0  0  0  0
  1 13  2  0  0  0  0
 13 14  1  0  0  0  0
 14 15  1  0  0  0  0
 15 16  1  0  0  0  0
 16 17  1  0  0  0  0
 14 18  1  0  0  0  0
 18 19  1  0  0  0  0
 19 20  1  0  0  0  0
  1 21  1  0  0  0  0
 21 22  2  0  0  0  0
 21 23  1  0  0  0  0
M  CHG  4  10   1  12  -1  21   1  23  -1
M  END
> <ChemID>
100506

> <CAS>
4726-14-1

> <Original_SMILES>
CS(=O)(=O)c1cc(c(c(c1)[N+]([O-])=O)N(CCC)CCC)[N+]([O-])=O

> <preferred_name>
Nitralin

> <dsstox_substance_id>
DTXSID9042203

> <dsstox_compound_id>
DTXCID7022203

> <qc_level>
DSSTox_Low

> <Canonical_QSARr>
CS(=O)(=O)C1=CC(=C(C(=C1)[N+]([O-])=O)N(CCC)CCC)[N+]([O-])=O

> <InChI_Code_QSARr>
InChI=1S/C13H19N3O6S/c1-4-6-14(7-5-2)13-11(15(17)18)8-10(23(3,21)22)9-12(13)16(19)20/h8-9H,4-7H2,1-3H3

> <InChI Key_QSARr>
UMKANAFDOQQUKE-UHFFFAOYSA-N

> <Salt_Solvent>


> <Salt_Solvent_ID>
0

> <MPID>
99774

> <KocRef>
Schuurmann-Main

> <LogKOC>
2.92

> <Tr_1_Tst_0>
1

$$$$
100507
  Mrv171c012251911022D          

 12 13  0  0  0  0            999 V2000
    1.6630   -1.2023    0.0000 O   0  0  0  0  0  0  0  0  0  0  0  0
    2.3774   -0.7898    0.0000 C   0  0  0  0  0  0  0  0  0  0  0  0
    2.3774    0.0352    0.0000 C   0  0  0  0  0  0  0  0  0  0  0  0
    1.6630    0.4477    0.0000 C   0  0  0  0  0  0  0  0  0  0  0  0
    1.6630    1.2727    0.0000 C   0  0  0  0  0  0  0  0  0  0  0  0
    2.3774    1.6852    0.0000 C   0  0  0  0  0  0  0  0  0  0  0  0
    3.0919    1.2727    0.0000 C   0  0  0  0  0  0  0  0  0  0  0  0
    3.8064    1.6852    0.0000 C   0  0  0  0  0  0  0  0  0  0  0  0
    4.5209    1.2727    0.0000 C   0  0  0  0  0  0  0  0  0  0  0  0
    4.5209    0.4477    0.0000 C   0  0  0  0  0  0  0  0  0  0  0  0
    3.8064    0.0352    0.0000 C   0  0  0  0  0  0  0  0  0  0  0  0
    3.0919    0.4477    0.0000 C   0  0  0  0  0  0  0  0  0  0  0  0
  1  2  1  0  0  0  0
  2  3  1  0  0  0  0
  4  3  2  0  0  0  0
  5  4  1  0  0  0  0
  6  5  2  0  0  0  0
  7  6  1  0  0  0  0
  7  8  2  0  0  0  0
  8  9  1  0  0  0  0
  9 10  2  0  0  0  0
 10 11  1  0  0  0  0
 11 12  2  0  0  0  0
  3 12  1  0  0  0  0
 12  7  1  0  0  0  0
M  END
> <ChemID>
100507

> <CAS>
4780-79-4

> <Original_SMILES>
OCc1cccc2ccccc21

> <preferred_name>
1-Hydroxymethylnaphthalene

> <dsstox_substance_id>
DTXSID30197295

> <dsstox_compound_id>
DTXCID40119786

> <qc_level>
Public_Medium

> <Canonical_QSARr>
OCC1=CC=CC2=CC=CC=C21

> <InChI_Code_QSARr>
InChI=1S/C11H10O/c12-8-10-6-3-5-9-4-1-2-7-11(9)10/h1-7,12H,8H2

> <InChI Key_QSARr>
PBLNHHSDYFYZNC-UHFFFAOYSA-N

> <Salt_Solvent>


> <Salt_Solvent_ID>
0

> <MPID>
99775

> <KocRef>
Schuurmann-Main

> <LogKOC>
2.17

> <Tr_1_Tst_0>
0

$$$$
100508
  Mrv171c012251911022D          

 11 11  0  0  0  0            999 V2000
    3.0601   -2.1797    0.0000 O   0  0  0  0  0  0  0  0  0  0  0  0
    2.3456   -1.7672    0.0000 C   0  0  0  0  0  0  0  0  0  0  0  0
    2.3456   -0.9422    0.0000 C   0  0  0  0  0  0  0  0  0  0  0  0
    1.6311   -0.5297    0.0000 C   0  0  0  0  0  0  0  0  0  0  0  0
    1.6311    0.2953    0.0000 Cl  0  0  0  0  0  0  0  0  0  0  0  0
    0.9167   -0.9422    0.0000 C   0  0  0  0  0  0  0  0  0  0  0  0
    0.2022   -0.5297    0.0000 Cl  0  0  0  0  0  0  0  0  0  0  0  0
    0.9167   -1.7672    0.0000 C   0  0  0  0  0  0  0  0  0  0  0  0
    0.2022   -2.1797    0.0000 Cl  0  0  0  0  0  0  0  0  0  0  0  0
    1.6311   -2.1797    0.0000 C   0  0  0  0  0  0  0  0  0  0  0  0
    1.6311   -3.0047    0.0000 Cl  0  0  0  0  0  0  0  0  0  0  0  0
  1  2  1  0  0  0  0
  3  2  1  0  0  0  0
  4  3  2  0  0  0  0
  4  5  1  0  0  0  0
  6  4  1  0  0  0  0
  6  7  1  0  0  0  0
  8  6  2  0  0  0  0
  8  9  1  0  0  0  0
 10  8  1  0  0  0  0
  2 10  2  0  0  0  0
 10 11  1  0  0  0  0
M  END
> <ChemID>
100508

> <CAS>
4901-51-3

> <Original_SMILES>
Oc1cc(Cl)c(Cl)c(Cl)c1Cl

> <preferred_name>
2,3,4,5-Tetrachlorophenol

> <dsstox_substance_id>
DTXSID0022220

> <dsstox_compound_id>
DTXCID202220

> <qc_level>
DSSTox_Low

> <Canonical_QSARr>
OC1C=C(Cl)C(Cl)=C(Cl)C=1Cl

> <InChI_Code_QSARr>
InChI=1S/C6H2Cl4O/c7-2-1-3(11)5(9)6(10)4(2)8/h1,11H

> <InChI Key_QSARr>
RULKYXXCCZZKDZ-UHFFFAOYSA-N

> <Salt_Solvent>


> <Salt_Solvent_ID>
0

> <MPID>
99776

> <KocRef>
Baker-Data

> <LogKOC>
4.12

> <Tr_1_Tst_0>
1

$$$$
100509
  Mrv171c012251911022D          

 15 15  0  0  0  0            999 V2000
    4.2964   -1.2922    0.0000 N   0  0  0  0  0  0  0  0  0  0  0  0
    3.5820   -0.8797    0.0000 C   0  0  0  0  0  0  0  0  0  0  0  0
    3.5820   -0.0547    0.0000 O   0  0  0  0  0  0  0  0  0  0  0  0
    2.8675   -1.2922    0.0000 C   0  0  0  0  0  0  0  0  0  0  0  0
    2.1530   -0.8797    0.0000 C   0  0  0  0  0  0  0  0  0  0  0  0
    1.4386   -1.2922    0.0000 C   0  0  0  0  0  0  0  0  0  0  0  0
    0.7241   -0.8797    0.0000 C   0  0  0  0  0  0  0  0  0  0  0  0
    0.0096   -1.2922    0.0000 C   0  0  0  0  0  0  0  0  0  0  0  0
    2.8675   -2.1172    0.0000 C   0  0  0  0  0  0  0  0  0  0  0  0
    2.1530   -2.5297    0.0000 C   0  0  0  0  0  0  0  0  0  0  0  0
    3.5820   -2.5297    0.0000 N   0  0  0  0  0  0  0  0  0  0  0  0
    4.2964   -2.1172    0.0000 C   0  0  0  0  0  0  0  0  0  0  0  0
    5.0109   -2.5297    0.0000 N   0  0  0  0  0  0  0  0  0  0  0  0
    5.7254   -2.1172    0.0000 C   0  0  0  0  0  0  0  0  0  0  0  0
    5.0109   -3.3547    0.0000 C   0  0  0  0  0  0  0  0  0  0  0  0
  2  1  1  0  0  0  0
  2  3  1  0  0  0  0
  4  2  2  0  0  0  0
  4  5  1  0  0  0  0
  5  6  1  0  0  0  0
  6  7  1  0  0  0  0
  7  8  1  0  0  0  0
  9  4  1  0  0  0  0
  9 10  1  0  0  0  0
 11  9  2  0  0  0  0
 12 11  1  0  0  0  0
  1 12  2  0  0  0  0
 12 13  1  0  0  0  0
 13 14  1  0  0  0  0
 13 15  1  0  0  0  0
M  END
> <ChemID>
100509

> <CAS>
5221-53-4

> <Original_SMILES>
Cc1[n]c([n]c(O)c1CCCC)N(C)C

> <preferred_name>
Dimethirimol

> <dsstox_substance_id>
DTXSID8041874

> <dsstox_compound_id>
DTXCID6021874

> <qc_level>
DSSTox_Low

> <Canonical_QSARr>
CC1=NC(=NC(O)=C1CCCC)N(C)C

> <InChI_Code_QSARr>
InChI=1S/C11H19N3O/c1-5-6-7-9-8(2)12-11(14(3)4)13-10(9)15/h5-7H2,1-4H3,(H,12,13,15)

> <InChI Key_QSARr>
CJHXCRMKMMBYJQ-UHFFFAOYSA-N

> <Salt_Solvent>


> <Salt_Solvent_ID>
0

> <MPID>
99777

> <KocRef>
USDA Pest Prop DB

> <LogKOC>
1.95

> <Tr_1_Tst_0>
1

$$$$
100510
  Mrv171c012251911022D          

 16 17  0  0  0  0            999 V2000
    3.0373   -2.1126    0.0000 C   0  0  0  0  0  0  0  0  0  0  0  0
    3.0373   -2.9376    0.0000 S   0  0  0  0  0  0  0  0  0  0  0  0
    3.7518   -3.3501    0.0000 C   0  0  0  0  0  0  0  0  0  0  0  0
    4.4662   -2.9376    0.0000 C   0  0  0  0  0  0  0  0  0  0  0  0
    4.4662   -2.1126    0.0000 O   0  0  0  0  0  0  0  0  0  0  0  0
    3.7518   -1.7001    0.0000 C   0  0  0  0  0  0  0  0  0  0  0  0
    3.7518   -0.8751    0.0000 C   0  0  0  0  0  0  0  0  0  0  0  0
    2.3228   -1.7001    0.0000 C   0  0  0  0  0  0  0  0  0  0  0  0
    1.6084   -2.1126    0.0000 O   0  0  0  0  0  0  0  0  0  0  0  0
    2.3228   -0.8751    0.0000 N   0  0  0  0  0  0  0  0  0  0  0  0
    1.6084   -0.4626    0.0000 C   0  0  0  0  0  0  0  0  0  0  0  0
    1.6084    0.3624    0.0000 C   0  0  0  0  0  0  0  0  0  0  0  0
    0.8939    0.7749    0.0000 C   0  0  0  0  0  0  0  0  0  0  0  0
    0.1794    0.3624    0.0000 C   0  0  0  0  0  0  0  0  0  0  0  0
    0.1794   -0.4626    0.0000 C   0  0  0  0  0  0  0  0  0  0  0  0
    0.8939   -0.8751    0.0000 C   0  0  0  0  0  0  0  0  0  0  0  0
  2  1  1  0  0  0  0
  3  2  1  0  0  0  0
  4  3  1  0  0  0  0
  5  4  1  0  0  0  0
  6  5  1  0  0  0  0
  1  6  2  0  0  0  0
  6  7  1  0  0  0  0
  1  8  1  0  0  0  0
  8  9  2  0  0  0  0
  8 10  1  0  0  0  0
 10 11  1  0  0  0  0
 12 11  2  0  0  0  0
 13 12  1  0  0  0  0
 14 13  2  0  0  0  0
 15 14  1  0  0  0  0
 16 15  2  0  0  0  0
 11 16  1  0  0  0  0
M  END
> <ChemID>
100510

> <CAS>
5234-68-4

> <Original_SMILES>
CC1OCCSC=1C(=O)Nc1ccccc1

> <preferred_name>
Carboxin

> <dsstox_substance_id>
DTXSID0023951

> <dsstox_compound_id>
DTXCID003951

> <qc_level>
DSSTox_Low

> <Canonical_QSARr>
CC1OCCSC=1C(=O)NC1C=CC=CC=1

> <InChI_Code_QSARr>
InChI=1S/C12H13NO2S/c1-9-11(16-8-7-15-9)12(14)13-10-5-3-2-4-6-10/h2-6H,7-8H2,1H3,(H,13,14)

> <InChI Key_QSARr>
GYSSRZJIHXQEHQ-UHFFFAOYSA-N

> <Salt_Solvent>


> <Salt_Solvent_ID>
0

> <MPID>
99778

> <KocRef>
Schuurmann-Main

> <LogKOC>
2.41

> <Tr_1_Tst_0>
1

$$$$
100511
  Mrv171c012251911022D          

 18 19  0  0  0  0            999 V2000
    3.9834   -3.6303    0.0000 O   0  0  0  0  0  0  0  0  0  0  0  0
    4.6979   -3.2178    0.0000 C   0  0  0  0  0  0  0  0  0  0  0  0
    4.6979   -2.3928    0.0000 C   0  0  0  0  0  0  0  0  0  0  0  0
    3.9834   -1.9803    0.0000 S   0  0  0  0  0  0  0  0  0  0  0  0
    4.5137   -1.3483    0.0000 O   0  0  0  0  0  0  0  0  0  0  0  0
    3.4531   -1.3483    0.0000 O   0  0  0  0  0  0  0  0  0  0  0  0
    3.2689   -2.3928    0.0000 C   0  0  0  0  0  0  0  0  0  0  0  0
    2.5545   -1.9803    0.0000 C   0  0  0  0  0  0  0  0  0  0  0  0
    2.5545   -1.1553    0.0000 N   0  0  0  0  0  0  0  0  0  0  0  0
    1.8400   -0.7428    0.0000 C   0  0  0  0  0  0  0  0  0  0  0  0
    1.8400    0.0822    0.0000 C   0  0  0  0  0  0  0  0  0  0  0  0
    1.1255    0.4947    0.0000 C   0  0  0  0  0  0  0  0  0  0  0  0
    0.4111    0.0822    0.0000 C   0  0  0  0  0  0  0  0  0  0  0  0
    0.4111   -0.7428    0.0000 C   0  0  0  0  0  0  0  0  0  0  0  0
    1.1255   -1.1553    0.0000 C   0  0  0  0  0  0  0  0  0  0  0  0
    1.8400   -2.3928    0.0000 O   0  0  0  0  0  0  0  0  0  0  0  0
    3.2689   -3.2178    0.0000 C   0  0  0  0  0  0  0  0  0  0  0  0
    2.5545   -3.6303    0.0000 C   0  0  0  0  0  0  0  0  0  0  0  0
  2  1  1  0  0  0  0
  3  2  1  0  0  0  0
  4  3  1  0  0  0  0
  4  5  2  0  0  0  0
  4  6  2  0  0  0  0
  7  4  1  0  0  0  0
  7  8  1  0  0  0  0
  8  9  1  0  0  0  0
  9 10  1  0  0  0  0
 11 10  1  0  0  0  0
 12 11  2  0  0  0  0
 13 12  1  0  0  0  0
 14 13  2  0  0  0  0
 15 14  1  0  0  0  0
 10 15  2  0  0  0  0
  8 16  2  0  0  0  0
 17  7  2  0  0  0  0
  1 17  1  0  0  0  0
 17 18  1  0  0  0  0
M  END
> <ChemID>
100511

> <CAS>
5259-88-1

> <Original_SMILES>
CC1OCCS(=O)(=O)C=1C(=O)Nc1ccccc1

> <preferred_name>
Oxycarboxin

> <dsstox_substance_id>
DTXSID8034792

> <dsstox_compound_id>
DTXCID6014792

> <qc_level>
DSSTox_Low

> <Canonical_QSARr>
CC1OCCS(=O)(=O)C=1C(=O)NC1C=CC=CC=1

> <InChI_Code_QSARr>
InChI=1S/C12H13NO4S/c1-9-11(18(15,16)8-7-17-9)12(14)13-10-5-3-2-4-6-10/h2-6H,7-8H2,1H3,(H,13,14)

> <InChI Key_QSARr>
AMEKQAFGQBKLKX-UHFFFAOYSA-N

> <Salt_Solvent>


> <Salt_Solvent_ID>
0

> <MPID>
99779

> <KocRef>
Schuurmann-Main

> <LogKOC>
1.98

> <Tr_1_Tst_0>
0

$$$$
100512
  Mrv171c012251911022D          

 10 10  0  0  0  0            999 V2000
    4.2220   -0.7466    0.0000 Cl  0  0  0  0  0  0  0  0  0  0  0  0
    3.5076   -0.3341    0.0000 C   0  0  0  0  0  0  0  0  0  0  0  0
    3.5076    0.4909    0.0000 C   0  0  0  0  0  0  0  0  0  0  0  0
    2.7931    0.9034    0.0000 C   0  0  0  0  0  0  0  0  0  0  0  0
    2.7931    1.7284    0.0000 N   0  0  0  0  0  0  0  0  0  0  0  0
    2.0786    0.4909    0.0000 C   0  0  0  0  0  0  0  0  0  0  0  0
    2.0786   -0.3341    0.0000 C   0  0  0  0  0  0  0  0  0  0  0  0
    2.7931   -0.7466    0.0000 C   0  0  0  0  0  0  0  0  0  0  0  0
    2.7931   -1.5716    0.0000 O   0  0  0  0  0  0  0  0  0  0  0  0
    3.5076   -1.9841    0.0000 C   0  0  0  0  0  0  0  0  0  0  0  0
  1  2  1  0  0  0  0
  3  2  1  0  0  0  0
  4  3  2  0  0  0  0
  4  5  1  0  0  0  0
  6  4  1  0  0  0  0
  7  6  2  0  0  0  0
  8  7  1  0  0  0  0
  2  8  2  0  0  0  0
  8  9  1  0  0  0  0
  9 10  1  0  0  0  0
M  END
> <ChemID>
100512

> <CAS>
5345-54-0

> <Original_SMILES>
COc1ccc(N)cc1Cl

> <preferred_name>
2-Chloro-4-anisidine

> <dsstox_substance_id>
DTXSID00201616

> <dsstox_compound_id>
DTXCID30124107

> <qc_level>
Public_Medium

> <Canonical_QSARr>
COC1C=CC(N)=CC=1Cl

> <InChI_Code_QSARr>
InChI=1S/C7H8ClNO/c1-10-7-3-2-5(9)4-6(7)8/h2-4H,9H2,1H3

> <InChI Key_QSARr>
XQVCBOLNTSUFGD-UHFFFAOYSA-N

> <Salt_Solvent>


> <Salt_Solvent_ID>
0

> <MPID>
99780

> <KocRef>
Schuurmann-Main

> <LogKOC>
1.93

> <Tr_1_Tst_0>
1

$$$$
100513
  Mrv171c012251911022D          

 13 13  0  0  0  0            999 V2000
    4.1781   -0.8726    0.0000 O   0  0  0  0  0  0  0  0  0  0  0  0
    3.4637   -0.4601    0.0000 C   0  0  0  0  0  0  0  0  0  0  0  0
    2.7492   -0.8726    0.0000 N   0  0  0  0  0  0  0  0  0  0  0  0
    2.0347   -0.4601    0.0000 C   0  0  0  0  0  0  0  0  0  0  0  0
    2.0347    0.3649    0.0000 C   0  0  0  0  0  0  0  0  0  0  0  0
    1.3203    0.7774    0.0000 C   0  0  0  0  0  0  0  0  0  0  0  0
    0.6058    0.3649    0.0000 C   0  0  0  0  0  0  0  0  0  0  0  0
    0.6058   -0.4601    0.0000 C   0  0  0  0  0  0  0  0  0  0  0  0
    1.3203   -0.8726    0.0000 C   0  0  0  0  0  0  0  0  0  0  0  0
    3.4637    0.3649    0.0000 O   0  0  0  0  0  0  0  0  0  0  0  0
    4.8926   -0.4601    0.0000 C   0  0  0  0  0  0  0  0  0  0  0  0
    5.6071   -0.8726    0.0000 C   0  0  0  0  0  0  0  0  0  0  0  0
    6.3216   -0.4601    0.0000 C   0  0  0  0  0  0  0  0  0  0  0  0
  1  2  1  0  0  0  0
  2  3  1  0  0  0  0
  3  4  1  0  0  0  0
  5  4  1  0  0  0  0
  6  5  2  0  0  0  0
  7  6  1  0  0  0  0
  8  7  2  0  0  0  0
  9  8  1  0  0  0  0
  4  9  2  0  0  0  0
  2 10  2  0  0  0  0
  1 11  1  0  0  0  0
 11 12  1  0  0  0  0
 12 13  1  0  0  0  0
M  END
> <ChemID>
100513

> <CAS>
5532-90-1

> <Original_SMILES>
CCCOC(=O)Nc1ccccc1

> <preferred_name>
Propyl N-phenylcarbamate

> <dsstox_substance_id>
DTXSID70203884

> <dsstox_compound_id>
DTXCID00126375

> <qc_level>
Public_Medium

> <Canonical_QSARr>
CCCOC(=O)NC1C=CC=CC=1

> <InChI_Code_QSARr>
InChI=1S/C10H13NO2/c1-2-8-13-10(12)11-9-6-4-3-5-7-9/h3-7H,2,8H2,1H3,(H,11,12)

> <InChI Key_QSARr>
QDZXCXBFZLLQFT-UHFFFAOYSA-N

> <Salt_Solvent>


> <Salt_Solvent_ID>
0

> <MPID>
99781

> <KocRef>
Schuurmann-Main

> <LogKOC>
2.06

> <Tr_1_Tst_0>
1

$$$$
100514
  Mrv171c012251911022D          

 16 16  0  0  0  0            999 V2000
    1.8766   -1.1674    0.0000 C   0  0  0  0  0  0  0  0  0  0  0  0
    1.1622   -0.7549    0.0000 C   0  0  0  0  0  0  0  0  0  0  0  0
    1.1622    0.0701    0.0000 Cl  0  0  0  0  0  0  0  0  0  0  0  0
    0.4477   -1.1674    0.0000 C   0  0  0  0  0  0  0  0  0  0  0  0
    0.4477   -1.9924    0.0000 C   0  0  0  0  0  0  0  0  0  0  0  0
   -0.2668   -2.4049    0.0000 Cl  0  0  0  0  0  0  0  0  0  0  0  0
    1.1622   -2.4049    0.0000 C   0  0  0  0  0  0  0  0  0  0  0  0
    1.1622   -3.2299    0.0000 Cl  0  0  0  0  0  0  0  0  0  0  0  0
    1.8766   -1.9924    0.0000 N   0  0  0  0  0  0  0  0  0  0  0  0
    2.5911   -0.7549    0.0000 O   0  0  0  0  0  0  0  0  0  0  0  0
    3.3056   -1.1674    0.0000 P   0  0  0  0  0  0  0  0  0  0  0  0
    4.0201   -1.5799    0.0000 O   0  0  0  0  0  0  0  0  0  0  0  0
    4.7345   -1.1674    0.0000 C   0  0  0  0  0  0  0  0  0  0  0  0
    2.8931   -1.8819    0.0000 O   0  0  0  0  0  0  0  0  0  0  0  0
    3.3056   -2.5964    0.0000 C   0  0  0  0  0  0  0  0  0  0  0  0
    3.7181   -0.4530    0.0000 S   0  0  0  0  0  0  0  0  0  0  0  0
  2  1  1  0  0  0  0
  2  3  1  0  0  0  0
  4  2  2  0  0  0  0
  5  4  1  0  0  0  0
  5  6  1  0  0  0  0
  7  5  2  0  0  0  0
  7  8  1  0  0  0  0
  9  7  1  0  0  0  0
  1  9  2  0  0  0  0
  1 10  1  0  0  0  0
 10 11  1  0  0  0  0
 11 12  1  0  0  0  0
 12 13  1  0  0  0  0
 11 14  1  0  0  0  0
 14 15  1  0  0  0  0
 11 16  2  0  0  0  0
M  END
> <ChemID>
100514

> <CAS>
5598-13-0

> <Original_SMILES>
COP(=S)(Oc1[n]c(Cl)c(Cl)cc1Cl)OC

> <preferred_name>
Chlorpyrifos-methyl

> <dsstox_substance_id>
DTXSID6032352

> <dsstox_compound_id>
DTXCID4012352

> <qc_level>
DSSTox_Low

> <Canonical_QSARr>
COP(=S)(OC1=NC(Cl)=C(Cl)C=C1Cl)OC

> <InChI_Code_QSARr>
InChI=1S/C7H7Cl3NO3PS/c1-12-15(16,13-2)14-7-5(9)3-4(8)6(10)11-7/h3H,1-2H3

> <InChI Key_QSARr>
HRBKVYFZANMGRE-UHFFFAOYSA-N

> <Salt_Solvent>


> <Salt_Solvent_ID>
0

> <MPID>
99782

> <KocRef>
Schuurmann-Main

> <LogKOC>
3.52

> <Tr_1_Tst_0>
1

$$$$
100515
  Mrv171c012251911022D          

 14 14  0  0  0  0            999 V2000
    0.8791    0.1631    0.0000 N   0  0  0  0  0  0  0  0  0  0  0  0
    0.1647    0.5756    0.0000 C   0  0  0  0  0  0  0  0  0  0  0  0
    0.1647    1.4006    0.0000 O   0  0  0  0  0  0  0  0  0  0  0  0
   -0.5498    0.1631    0.0000 N   0  0  0  0  0  0  0  0  0  0  0  0
   -1.2643    0.5756    0.0000 C   0  0  0  0  0  0  0  0  0  0  0  0
   -1.9788    0.9881    0.0000 C   0  0  0  0  0  0  0  0  0  0  0  0
   -1.6768   -0.1389    0.0000 C   0  0  0  0  0  0  0  0  0  0  0  0
   -0.8518    1.2901    0.0000 C   0  0  0  0  0  0  0  0  0  0  0  0
   -0.5498   -0.6619    0.0000 C   0  0  0  0  0  0  0  0  0  0  0  0
   -1.2643   -1.0744    0.0000 O   0  0  0  0  0  0  0  0  0  0  0  0
    0.1647   -1.0744    0.0000 C   0  0  0  0  0  0  0  0  0  0  0  0
    0.1647   -1.8994    0.0000 Cl  0  0  0  0  0  0  0  0  0  0  0  0
    0.8791   -0.6619    0.0000 C   0  0  0  0  0  0  0  0  0  0  0  0
    1.5936   -1.0744    0.0000 C   0  0  0  0  0  0  0  0  0  0  0  0
  2  1  1  0  0  0  0
  2  3  2  0  0  0  0
  4  2  1  0  0  0  0
  4  5  1  0  0  0  0
  5  6  1  0  0  0  0
  5  7  1  0  0  0  0
  5  8  1  0  0  0  0
  9  4  1  0  0  0  0
  9 10  2  0  0  0  0
 11  9  1  0  0  0  0
 11 12  1  0  0  0  0
 13 11  1  0  0  0  0
  1 13  2  0  0  0  0
 13 14  1  0  0  0  0
M  END
> <ChemID>
100515

> <CAS>
5902-51-2

> <Original_SMILES>
CC1NC(=O)N(C(=O)C=1Cl)C(C)(C)C

> <preferred_name>
Terbacil

> <dsstox_substance_id>
DTXSID8024317

> <dsstox_compound_id>
DTXCID104317

> <qc_level>
DSSTox_Low

> <Canonical_QSARr>
CC1=NC(=O)N(C(=O)C1Cl)C(C)(C)C

> <InChI_Code_QSARr>
InChI=1S/C9H13ClN2O2/c1-5-6(10)7(13)12(8(14)11-5)9(2,3)4/h6H,1-4H3

> <InChI Key_QSARr>
FNEQOVOLKIIMTA-UHFFFAOYSA-N

> <Salt_Solvent>


> <Salt_Solvent_ID>
0

> <MPID>
99783

> <KocRef>
Schuurmann-Main

> <LogKOC>
1.66

> <Tr_1_Tst_0>
0

$$$$
100516
  Mrv171c012251911022D          

 15 15  0  0  0  0            999 V2000
    3.3420   -1.6518    0.0000 N   0  0  0  0  0  0  0  0  0  0  0  0
    2.6275   -1.2393    0.0000 C   0  0  0  0  0  0  0  0  0  0  0  0
    2.6275   -0.4143    0.0000 Cl  0  0  0  0  0  0  0  0  0  0  0  0
    1.9130   -1.6518    0.0000 N   0  0  0  0  0  0  0  0  0  0  0  0
    1.9130   -2.4768    0.0000 C   0  0  0  0  0  0  0  0  0  0  0  0
    1.1986   -2.8893    0.0000 N   0  0  0  0  0  0  0  0  0  0  0  0
    0.4841   -2.4768    0.0000 C   0  0  0  0  0  0  0  0  0  0  0  0
   -0.2304   -2.8893    0.0000 C   0  0  0  0  0  0  0  0  0  0  0  0
    2.6275   -2.8893    0.0000 N   0  0  0  0  0  0  0  0  0  0  0  0
    3.3420   -2.4768    0.0000 C   0  0  0  0  0  0  0  0  0  0  0  0
    4.0564   -2.8894    0.0000 N   0  0  0  0  0  0  0  0  0  0  0  0
    4.7709   -2.4769    0.0000 C   0  0  0  0  0  0  0  0  0  0  0  0
    5.4854   -2.0644    0.0000 C   0  0  0  0  0  0  0  0  0  0  0  0
    5.1834   -3.1913    0.0000 C   0  0  0  0  0  0  0  0  0  0  0  0
    4.3584   -1.7624    0.0000 C   0  0  0  0  0  0  0  0  0  0  0  0
  2  1  1  0  0  0  0
  2  3  1  0  0  0  0
  4  2  2  0  0  0  0
  5  4  1  0  0  0  0
  5  6  1  0  0  0  0
  6  7  1  0  0  0  0
  7  8  1  0  0  0  0
  9  5  2  0  0  0  0
 10  9  1  0  0  0  0
  1 10  2  0  0  0  0
 10 11  1  0  0  0  0
 11 12  1  0  0  0  0
 12 13  1  0  0  0  0
 12 14  1  0  0  0  0
 12 15  1  0  0  0  0
M  END
> <ChemID>
100516

> <CAS>
5915-41-3

> <Original_SMILES>
CCNc1[n]c(Cl)[n]c(NC(C)(C)C)[n]1

> <preferred_name>
Terbuthylazine

> <dsstox_substance_id>
DTXSID4027608

> <dsstox_compound_id>
DTXCID107608

> <qc_level>
DSSTox_Low

> <Canonical_QSARr>
CCNC1N=C(Cl)N=C(NC(C)(C)C)N=1

> <InChI_Code_QSARr>
InChI=1S/C9H16ClN5/c1-5-11-7-12-6(10)13-8(14-7)15-9(2,3)4/h5H2,1-4H3,(H2,11,12,13,14,15)

> <InChI Key_QSARr>
FZXISNSWEXTPMF-UHFFFAOYSA-N

> <Salt_Solvent>


> <Salt_Solvent_ID>
0

> <MPID>
99784

> <KocRef>
Schuurmann-Main

> <LogKOC>
2.32

> <Tr_1_Tst_0>
1

$$$$
100517
  Mrv171c012251911022D          

 13 13  0  0  0  0            999 V2000
    3.0700   -2.0225    0.0000 N   0  0  0  0  0  0  0  0  0  0  0  0
    3.0700   -1.1975    0.0000 C   0  0  0  0  0  0  0  0  0  0  0  0
    3.7844   -0.7850    0.0000 C   0  0  0  0  0  0  0  0  0  0  0  0
    3.7844    0.0400    0.0000 C   0  0  0  0  0  0  0  0  0  0  0  0
    3.0700    0.4525    0.0000 C   0  0  0  0  0  0  0  0  0  0  0  0
    3.0700    1.2775    0.0000 Cl  0  0  0  0  0  0  0  0  0  0  0  0
    2.3555    0.0400    0.0000 C   0  0  0  0  0  0  0  0  0  0  0  0
    2.3555   -0.7850    0.0000 C   0  0  0  0  0  0  0  0  0  0  0  0
    1.6410   -1.1975    0.0000 C   0  0  0  0  0  0  0  0  0  0  0  0
    2.3555   -2.4350    0.0000 C   0  0  0  0  0  0  0  0  0  0  0  0
    2.3555   -3.2600    0.0000 N   0  0  0  0  0  0  0  0  0  0  0  0
    3.0700   -3.6725    0.0000 C   0  0  0  0  0  0  0  0  0  0  0  0
    1.6410   -3.6725    0.0000 C   0  0  0  0  0  0  0  0  0  0  0  0
  1  2  1  4  0  0  0
  3  2  2  0  0  0  0
  4  3  1  0  0  0  0
  5  4  2  0  0  0  0
  5  6  1  0  0  0  0
  7  5  1  0  0  0  0
  8  7  2  0  0  0  0
  2  8  1  0  0  0  0
  8  9  1  0  0  0  0
  1 10  2  0  0  0  0
 10 11  1  0  0  0  0
 11 12  1  0  0  0  0
 11 13  1  0  0  0  0
M  END
> <ChemID>
100517

> <CAS>
6164-98-3

> <Original_SMILES>
Cc1cc(Cl)ccc1N=CN(C)C

> <preferred_name>
Chlordimeform

> <dsstox_substance_id>
DTXSID2037508

> <dsstox_compound_id>
DTXCID30197018

> <qc_level>
DSSTox_Low

> <Canonical_QSARr>
CC1=CC(Cl)=CC=C1N=CN(C)C

> <InChI_Code_QSARr>
InChI=1S/C10H13ClN2/c1-8-6-9(11)4-5-10(8)12-7-13(2)3/h4-7H,1-3H3

> <InChI Key_QSARr>
STUSTWKEFDQFFZ-UHFFFAOYSA-N

> <Salt_Solvent>


> <Salt_Solvent_ID>
0

> <MPID>
99785

> <KocRef>
USDA Pest Prop DB

> <LogKOC>
2.91

> <Tr_1_Tst_0>
1

$$$$
100518
  Mrv171c012251911022D          

 28 28  0  0  0  0            999 V2000
    3.2628   -4.8431    0.0000 C   0  0  0  0  0  0  0  0  0  0  0  0
    2.5483   -4.4306    0.0000 C   0  0  0  0  0  0  0  0  0  0  0  0
    2.5483   -3.6056    0.0000 O   0  0  0  0  0  0  0  0  0  0  0  0
    1.8339   -3.1931    0.0000 C   0  0  0  0  0  0  0  0  0  0  0  0
    1.8339   -2.3681    0.0000 C   0  0  0  0  0  0  0  0  0  0  0  0
    2.5483   -1.9556    0.0000 C   0  0  0  0  0  0  0  0  0  0  0  0
    2.5483   -1.1306    0.0000 C   0  0  0  0  0  0  0  0  0  0  0  0
    1.1194   -1.9556    0.0000 C   0  0  0  0  0  0  0  0  0  0  0  0
    1.1194   -1.1306    0.0000 C   0  0  0  0  0  0  0  0  0  0  0  0
    0.4049   -0.7181    0.0000 C   0  0  0  0  0  0  0  0  0  0  0  0
    0.4049    0.1069    0.0000 C   0  0  0  0  0  0  0  0  0  0  0  0
    1.8339   -4.8431    0.0000 O   0  0  0  0  0  0  0  0  0  0  0  0
    3.2628   -5.6681    0.0000 C   0  0  0  0  0  0  0  0  0  0  0  0
    3.9773   -6.0806    0.0000 C   0  0  0  0  0  0  0  0  0  0  0  0
    4.6917   -5.6681    0.0000 C   0  0  0  0  0  0  0  0  0  0  0  0
    5.4062   -6.0806    0.0000 C   0  0  0  0  0  0  0  0  0  0  0  0
    6.1207   -5.6681    0.0000 O   0  0  0  0  0  0  0  0  0  0  0  0
    6.8352   -6.0806    0.0000 C   0  0  0  0  0  0  0  0  0  0  0  0
    7.5496   -5.6681    0.0000 C   0  0  0  0  0  0  0  0  0  0  0  0
    7.5496   -4.8431    0.0000 C   0  0  0  0  0  0  0  0  0  0  0  0
    8.2641   -4.4306    0.0000 C   0  0  0  0  0  0  0  0  0  0  0  0
    8.2641   -6.0806    0.0000 C   0  0  0  0  0  0  0  0  0  0  0  0
    8.9786   -5.6681    0.0000 C   0  0  0  0  0  0  0  0  0  0  0  0
    9.6930   -6.0806    0.0000 C   0  0  0  0  0  0  0  0  0  0  0  0
   10.4075   -5.6681    0.0000 C   0  0  0  0  0  0  0  0  0  0  0  0
    5.4062   -6.9056    0.0000 O   0  0  0  0  0  0  0  0  0  0  0  0
    4.6917   -4.8431    0.0000 C   0  0  0  0  0  0  0  0  0  0  0  0
    3.9773   -4.4306    0.0000 C   0  0  0  0  0  0  0  0  0  0  0  0
  1  2  1  0  0  0  0
  2  3  1  0  0  0  0
  3  4  1  0  0  0  0
  4  5  1  0  0  0  0
  5  6  1  0  0  0  0
  6  7  1  0  0  0  0
  5  8  1  0  0  0  0
  8  9  1  0  0  0  0
  9 10  1  0  0  0  0
 10 11  1  0  0  0  0
  2 12  2  0  0  0  0
 13  1  1  0  0  0  0
 14 13  2  0  0  0  0
 15 14  1  0  0  0  0
 15 16  1  0  0  0  0
 16 17  1  0  0  0  0
 17 18  1  0  0  0  0
 18 19  1  0  0  0  0
 19 20  1  0  0  0  0
 20 21  1  0  0  0  0
 19 22  1  0  0  0  0
 22 23  1  0  0  0  0
 23 24  1  0  0  0  0
 24 25  1  0  0  0  0
 16 26  2  0  0  0  0
 27 15  2  0  0  0  0
 28 27  1  0  0  0  0
  1 28  2  0  0  0  0
M  END
> <ChemID>
100518

> <CAS>
6422-86-2

> <Original_SMILES>
CCCCC(COC(=O)c1ccc(cc1)C(=O)OCC(CCCC)CC)CC

> <preferred_name>
Bis(2-ethylhexyl) terephthalate

> <dsstox_substance_id>
DTXSID7027625

> <dsstox_compound_id>
DTXCID507625

> <qc_level>
DSSTox_Low

> <Canonical_QSARr>
CCCCC(COC(=O)C1C=CC(=CC=1)C(=O)OCC(CCCC)CC)CC

> <InChI_Code_QSARr>
InChI=1S/C24H38O4/c1-5-9-11-19(7-3)17-27-23(25)21-13-15-22(16-14-21)24(26)28-18-20(8-4)12-10-6-2/h13-16,19-20H,5-12,17-18H2,1-4H3

> <InChI Key_QSARr>
RWPICVVBGZBXNA-UHFFFAOYSA-N

> <Salt_Solvent>


> <Salt_Solvent_ID>
0

> <MPID>
99786

> <KocRef>
Schuurmann-Main

> <LogKOC>
4.16

> <Tr_1_Tst_0>
1

$$$$
100519
  Mrv171c012251911022D          

 14 13  0  0  0  0            999 V2000
    1.2375   -0.7145    0.0000 C   0  0  0  0  0  0  0  0  0  0  0  0
    0.8250    0.0000    0.0000 C   0  0  0  0  0  0  0  0  0  0  0  0
    0.0000    0.0000    0.0000 C   0  0  0  0  0  0  0  0  0  0  0  0
   -0.4125   -0.7145    0.0000 C   0  0  0  0  0  0  0  0  0  0  0  0
    0.0000   -1.4289    0.0000 O   0  0  0  0  0  0  0  0  0  0  0  0
   -1.2375   -0.7145    0.0000 N   0  0  0  0  0  0  0  0  0  0  0  0
   -1.6500   -1.4289    0.0000 C   0  0  0  0  0  0  0  0  0  0  0  0
    1.2375    0.7145    0.0000 O   0  0  0  0  0  0  0  0  0  0  0  0
    2.0625    0.7145    0.0000 P   0  0  0  0  0  0  0  0  0  0  0  0
    2.0625   -0.1105    0.0000 O   0  0  0  0  0  0  0  0  0  0  0  0
    2.8875    0.7145    0.0000 O   0  0  0  0  0  0  0  0  0  0  0  0
    3.3000    1.4289    0.0000 C   0  0  0  0  0  0  0  0  0  0  0  0
    2.0625    1.5395    0.0000 O   0  0  0  0  0  0  0  0  0  0  0  0
    2.7770    1.9520    0.0000 C   0  0  0  0  0  0  0  0  0  0  0  0
  1  2  1  0  0  0  0
  2  3  2  0  0  0  0
  3  4  1  4  0  0  0
  4  5  2  0  0  0  0
  4  6  1  0  0  0  0
  6  7  1  0  0  0  0
  2  8  1  0  0  0  0
  8  9  1  0  0  0  0
  9 10  2  0  0  0  0
  9 11  1  0  0  0  0
 11 12  1  0  0  0  0
  9 13  1  0  0  0  0
 13 14  1  0  0  0  0
M  END
> <ChemID>
100519

> <CAS>
6923-22-4

> <Original_SMILES>
C/C(=C\C(=O)NC)/OP(=O)(OC)OC

> <preferred_name>
Monocrotophos

> <dsstox_substance_id>
DTXSID9034816

> <dsstox_compound_id>
DTXCID7014816

> <qc_level>
DSSTox_Low

> <Canonical_QSARr>
CC(=CC(=O)NC)OP(=O)(OC)OC

> <InChI_Code_QSARr>
InChI=1S/C7H14NO5P/c1-6(5-7(9)8-2)13-14(10,11-3)12-4/h5H,1-4H3,(H,8,9)

> <InChI Key_QSARr>
KRTSDMXIXPKRQR-UHFFFAOYSA-N

> <Salt_Solvent>


> <Salt_Solvent_ID>
0

> <MPID>
99787

> <KocRef>
Schuurmann-Main

> <LogKOC>
0.0

> <Tr_1_Tst_0>
0

$$$$
100520
  Mrv171c012251911022D          

  9  9  0  0  0  0            999 V2000
    3.0790   -1.7779    0.0000 Br  0  0  0  0  0  0  0  0  0  0  0  0
    3.0790   -0.9529    0.0000 C   0  0  0  0  0  0  0  0  0  0  0  0
    3.7934   -0.5404    0.0000 C   0  0  0  0  0  0  0  0  0  0  0  0
    3.7934    0.2846    0.0000 C   0  0  0  0  0  0  0  0  0  0  0  0
    3.0790    0.6971    0.0000 C   0  0  0  0  0  0  0  0  0  0  0  0
    3.0790    1.5221    0.0000 N   0  0  0  0  0  0  0  0  0  0  0  0
    2.3645    0.2846    0.0000 C   0  0  0  0  0  0  0  0  0  0  0  0
    2.3645   -0.5404    0.0000 C   0  0  0  0  0  0  0  0  0  0  0  0
    1.6500   -0.9529    0.0000 C   0  0  0  0  0  0  0  0  0  0  0  0
  1  2  1  0  0  0  0
  3  2  1  0  0  0  0
  4  3  2  0  0  0  0
  5  4  1  0  0  0  0
  5  6  1  0  0  0  0
  7  5  2  0  0  0  0
  8  7  1  0  0  0  0
  2  8  2  0  0  0  0
  8  9  1  0  0  0  0
M  END
> <ChemID>
100520

> <CAS>
6933-10-4

> <Original_SMILES>
Cc1cc(N)ccc1Br

> <preferred_name>
4-Bromo-m-toluidine

> <dsstox_substance_id>
DTXSID10219383

> <dsstox_compound_id>
DTXCID30141874

> <qc_level>
Public_Medium

> <Canonical_QSARr>
CC1C=C(N)C=CC=1Br

> <InChI_Code_QSARr>
InChI=1S/C7H8BrN/c1-5-4-6(9)2-3-7(5)8/h2-4H,9H2,1H3

> <InChI Key_QSARr>
MMEGELSFOYDPQW-UHFFFAOYSA-N

> <Salt_Solvent>


> <Salt_Solvent_ID>
0

> <MPID>
99788

> <KocRef>
Schuurmann-Main

> <LogKOC>
2.26

> <Tr_1_Tst_0>
1

$$$$
100521
  Mrv171c012251911022D          

 16 17  0  0  0  0            999 V2000
    2.8470   -1.2418    0.0000 C   0  0  0  0  0  0  0  0  0  0  0  0
    3.5615   -1.6543    0.0000 N   0  0  0  0  0  0  0  0  0  0  0  0
    4.2759   -1.2418    0.0000 C   0  0  0  0  0  0  0  0  0  0  0  0
    2.1325   -1.6543    0.0000 O   0  0  0  0  0  0  0  0  0  0  0  0
    1.4181   -1.2418    0.0000 C   0  0  0  0  0  0  0  0  0  0  0  0
    1.4181   -0.4168    0.0000 C   0  0  0  0  0  0  0  0  0  0  0  0
    0.7036   -0.0043    0.0000 C   0  0  0  0  0  0  0  0  0  0  0  0
   -0.0109   -0.4168    0.0000 C   0  0  0  0  0  0  0  0  0  0  0  0
   -0.0109   -1.2418    0.0000 C   0  0  0  0  0  0  0  0  0  0  0  0
    0.7036   -1.6543    0.0000 C   0  0  0  0  0  0  0  0  0  0  0  0
    0.7036   -2.4793    0.0000 C   0  0  0  0  0  0  0  0  0  0  0  0
    0.0361   -2.9642    0.0000 O   0  0  0  0  0  0  0  0  0  0  0  0
    0.2911   -3.7488    0.0000 C   0  0  0  0  0  0  0  0  0  0  0  0
    1.1161   -3.7488    0.0000 C   0  0  0  0  0  0  0  0  0  0  0  0
    1.3710   -2.9642    0.0000 O   0  0  0  0  0  0  0  0  0  0  0  0
    2.8470   -0.4168    0.0000 O   0  0  0  0  0  0  0  0  0  0  0  0
  1  2  1  0  0  0  0
  2  3  1  0  0  0  0
  1  4  1  0  0  0  0
  4  5  1  0  0  0  0
  6  5  1  0  0  0  0
  7  6  2  0  0  0  0
  8  7  1  0  0  0  0
  9  8  2  0  0  0  0
 10  9  1  0  0  0  0
  5 10  2  0  0  0  0
 10 11  1  0  0  0  0
 12 11  1  0  0  0  0
 13 12  1  0  0  0  0
 14 13  1  0  0  0  0
 15 14  1  0  0  0  0
 11 15  1  0  0  0  0
  1 16  2  0  0  0  0
M  END
> <ChemID>
100521

> <CAS>
6988-21-2

> <Original_SMILES>
CNC(=O)Oc1ccccc1C1OCCO1

> <preferred_name>
Dioxacarb

> <dsstox_substance_id>
DTXSID2041886

> <dsstox_compound_id>
DTXCID0021886

> <qc_level>
DSSTox_Low

> <Canonical_QSARr>
CNC(=O)OC1C=CC=CC=1C1OCCO1

> <InChI_Code_QSARr>
InChI=1S/C11H13NO4/c1-12-11(13)16-9-5-3-2-4-8(9)10-14-6-7-15-10/h2-5,10H,6-7H2,1H3,(H,12,13)

> <InChI Key_QSARr>
SDKQRNRRDYRQKY-UHFFFAOYSA-N

> <Salt_Solvent>


> <Salt_Solvent_ID>
0

> <MPID>
99789

> <KocRef>
USDA Pest Prop DB

> <LogKOC>
1.6

> <Tr_1_Tst_0>
1

$$$$
100522
  Mrv171c012251911022D          

 15 16  0  0  0  0            999 V2000
    3.4818   -0.5312    0.0000 C   0  0  0  0  0  0  0  0  0  0  0  0
    4.1963   -0.9437    0.0000 Cl  0  0  0  0  0  0  0  0  0  0  0  0
    3.4818    0.2938    0.0000 C   0  0  0  0  0  0  0  0  0  0  0  0
    2.7673    0.7063    0.0000 C   0  0  0  0  0  0  0  0  0  0  0  0
    2.7673    1.5313    0.0000 Cl  0  0  0  0  0  0  0  0  0  0  0  0
    2.0528    0.2938    0.0000 C   0  0  0  0  0  0  0  0  0  0  0  0
    2.0528   -0.5312    0.0000 C   0  0  0  0  0  0  0  0  0  0  0  0
    2.7673   -0.9437    0.0000 C   0  0  0  0  0  0  0  0  0  0  0  0
    2.7673   -1.7687    0.0000 C   0  0  0  0  0  0  0  0  0  0  0  0
    2.0528   -2.1812    0.0000 C   0  0  0  0  0  0  0  0  0  0  0  0
    2.0528   -3.0062    0.0000 C   0  0  0  0  0  0  0  0  0  0  0  0
    2.7673   -3.4187    0.0000 C   0  0  0  0  0  0  0  0  0  0  0  0
    2.7673   -4.2437    0.0000 Cl  0  0  0  0  0  0  0  0  0  0  0  0
    3.4818   -3.0062    0.0000 C   0  0  0  0  0  0  0  0  0  0  0  0
    3.4818   -2.1812    0.0000 C   0  0  0  0  0  0  0  0  0  0  0  0
  1  2  1  0  0  0  0
  3  1  1  0  0  0  0
  4  3  2  0  0  0  0
  4  5  1  0  0  0  0
  6  4  1  0  0  0  0
  7  6  2  0  0  0  0
  8  7  1  0  0  0  0
  1  8  2  0  0  0  0
  8  9  1  0  0  0  0
 10  9  2  0  0  0  0
 11 10  1  0  0  0  0
 12 11  2  0  0  0  0
 12 13  1  0  0  0  0
 14 12  1  0  0  0  0
 15 14  2  0  0  0  0
  9 15  1  0  0  0  0
M  END
> <ChemID>
100522

> <CAS>
7012-37-5

> <Original_SMILES>
Clc1cc(Cl)ccc1-c1ccc(Cl)cc1

> <preferred_name>
2,4,4'-Trichlorobiphenyl

> <dsstox_substance_id>
DTXSID2038310

> <dsstox_compound_id>
DTXCID0018310

> <qc_level>
DSSTox_Low

> <Canonical_QSARr>
ClC1=CC(Cl)=C(C=C1)C1C=CC(Cl)=CC=1

> <InChI_Code_QSARr>
InChI=1S/C12H7Cl3/c13-9-3-1-8(2-4-9)11-6-5-10(14)7-12(11)15/h1-7H

> <InChI Key_QSARr>
BZTYNSQSZHARAZ-UHFFFAOYSA-N

> <Salt_Solvent>


> <Salt_Solvent_ID>
0

> <MPID>
99790

> <KocRef>
Schuurmann-Main

> <LogKOC>
4.63

> <Tr_1_Tst_0>
1

$$$$
100523
  Mrv171c012251911022D          

 13 13  0  0  0  0            999 V2000
    4.8375    0.9837    0.0000 Cl  0  0  0  0  0  0  0  0  0  0  0  0
    4.1230    0.5712    0.0000 C   0  0  0  0  0  0  0  0  0  0  0  0
    3.4085    0.9837    0.0000 C   0  0  0  0  0  0  0  0  0  0  0  0
    3.4085    1.8087    0.0000 O   0  0  0  0  0  0  0  0  0  0  0  0
    2.6941    2.2212    0.0000 C   0  0  0  0  0  0  0  0  0  0  0  0
    2.6941    0.5712    0.0000 C   0  0  0  0  0  0  0  0  0  0  0  0
    2.6941   -0.2538    0.0000 C   0  0  0  0  0  0  0  0  0  0  0  0
    3.4085   -0.6663    0.0000 C   0  0  0  0  0  0  0  0  0  0  0  0
    3.4085   -1.4913    0.0000 N   0  0  0  0  0  0  0  0  0  0  0  0
    2.6941   -1.9038    0.0000 C   0  0  0  0  0  0  0  0  0  0  0  0
    2.6941   -2.7288    0.0000 C   0  0  0  0  0  0  0  0  0  0  0  0
    1.9796   -1.4913    0.0000 O   0  0  0  0  0  0  0  0  0  0  0  0
    4.1230   -0.2538    0.0000 C   0  0  0  0  0  0  0  0  0  0  0  0
  1  2  1  0  0  0  0
  3  2  2  0  0  0  0
  3  4  1  0  0  0  0
  4  5  1  0  0  0  0
  6  3  1  0  0  0  0
  7  6  2  0  0  0  0
  8  7  1  0  0  0  0
  8  9  1  0  0  0  0
  9 10  1  0  0  0  0
 10 11  1  0  0  0  0
 10 12  2  0  0  0  0
 13  8  2  0  0  0  0
  2 13  1  0  0  0  0
M  END
> <ChemID>
100523

> <CAS>
7073-42-9

> <Original_SMILES>
CC(=O)Nc1cc(Cl)c(cc1)OC

> <preferred_name>
Acetamide, N-(3-chloro-4-methoxyphenyl)-

> <dsstox_substance_id>
DTXSID20220985

> <dsstox_compound_id>
DTXCID50143476

> <qc_level>
Public_Medium

> <Canonical_QSARr>
CC(=O)NC1=CC(Cl)=C(C=C1)OC

> <InChI_Code_QSARr>
InChI=1S/C9H10ClNO2/c1-6(12)11-7-3-4-9(13-2)8(10)5-7/h3-5H,1-2H3,(H,11,12)

> <InChI Key_QSARr>
WNOVNNUWOUKIOL-UHFFFAOYSA-N

> <Salt_Solvent>


> <Salt_Solvent_ID>
0

> <MPID>
99791

> <KocRef>
Schuurmann-Main

> <LogKOC>
1.95

> <Tr_1_Tst_0>
0

$$$$
100524
  Mrv171c012251911022D          

 13 13  0  0  0  0            999 V2000
    2.9191   -1.3962    0.0000 N   0  0  0  0  0  0  0  0  0  0  0  0
    2.2046   -0.9837    0.0000 C   0  0  0  0  0  0  0  0  0  0  0  0
    2.2046   -0.1587    0.0000 Cl  0  0  0  0  0  0  0  0  0  0  0  0
    1.4902   -1.3962    0.0000 C   0  0  0  0  0  0  0  0  0  0  0  0
    1.4902   -2.2212    0.0000 C   0  0  0  0  0  0  0  0  0  0  0  0
    0.7757   -2.6337    0.0000 C   0  0  0  0  0  0  0  0  0  0  0  0
    0.0612   -3.0462    0.0000 Cl  0  0  0  0  0  0  0  0  0  0  0  0
    1.1882   -3.3482    0.0000 Cl  0  0  0  0  0  0  0  0  0  0  0  0
    0.3632   -1.9192    0.0000 Cl  0  0  0  0  0  0  0  0  0  0  0  0
    2.2046   -2.6337    0.0000 C   0  0  0  0  0  0  0  0  0  0  0  0
    2.9191   -2.2212    0.0000 C   0  0  0  0  0  0  0  0  0  0  0  0
    3.6336   -2.6337    0.0000 O   0  0  0  0  0  0  0  0  0  0  0  0
    4.3480   -2.2212    0.0000 C   0  0  0  0  0  0  0  0  0  0  0  0
  2  1  1  0  0  0  0
  2  3  1  0  0  0  0
  4  2  2  0  0  0  0
  5  4  1  0  0  0  0
  5  6  1  0  0  0  0
  6  7  1  0  0  0  0
  6  8  1  0  0  0  0
  6  9  1  0  0  0  0
 10  5  2  0  0  0  0
 11 10  1  0  0  0  0
  1 11  2  0  0  0  0
 11 12  1  0  0  0  0
 12 13  1  0  0  0  0
M  END
> <ChemID>
100524

> <CAS>
7159-34-4

> <Original_SMILES>
COc1cc(cc(Cl)[n]1)C(Cl)(Cl)Cl

> <preferred_name>
Pyroxychlor

> <dsstox_substance_id>
DTXSID1042362

> <dsstox_compound_id>
DTXCID9022362

> <qc_level>
DSSTox_Low

> <Canonical_QSARr>
COC1C=C(C=C(Cl)N=1)C(Cl)(Cl)Cl

> <InChI_Code_QSARr>
InChI=1S/C7H5Cl4NO/c1-13-6-3-4(7(9,10)11)2-5(8)12-6/h2-3H,1H3

> <InChI Key_QSARr>
RPCKKUFLSMORHB-UHFFFAOYSA-N

> <Salt_Solvent>


> <Salt_Solvent_ID>
0

> <MPID>
99792

> <KocRef>
Schuurmann-Main

> <LogKOC>
3.48

> <Tr_1_Tst_0>
1

$$$$
100525
  Mrv171c012251911022D          

 13 13  0  0  0  0            999 V2000
    1.5949   -0.4442    0.0000 O   0  0  0  0  0  0  0  0  0  0  0  0
    2.3094   -0.8567    0.0000 C   0  0  0  0  0  0  0  0  0  0  0  0
    2.3094   -1.6817    0.0000 N   0  0  0  0  0  0  0  0  0  0  0  0
    1.5949   -2.0942    0.0000 C   0  0  0  0  0  0  0  0  0  0  0  0
    3.0238   -2.0942    0.0000 C   0  0  0  0  0  0  0  0  0  0  0  0
    3.0238   -0.4442    0.0000 N   0  0  0  0  0  0  0  0  0  0  0  0
    3.0238    0.3808    0.0000 C   0  0  0  0  0  0  0  0  0  0  0  0
    3.7383    0.7933    0.0000 C   0  0  0  0  0  0  0  0  0  0  0  0
    3.7383    1.6183    0.0000 C   0  0  0  0  0  0  0  0  0  0  0  0
    3.0238    2.0308    0.0000 C   0  0  0  0  0  0  0  0  0  0  0  0
    3.0238    2.8558    0.0000 C   0  0  0  0  0  0  0  0  0  0  0  0
    2.3094    1.6183    0.0000 C   0  0  0  0  0  0  0  0  0  0  0  0
    2.3094    0.7933    0.0000 C   0  0  0  0  0  0  0  0  0  0  0  0
  1  2  2  0  0  0  0
  2  3  1  0  0  0  0
  3  4  1  0  0  0  0
  3  5  1  0  0  0  0
  2  6  1  0  0  0  0
  6  7  1  0  0  0  0
  8  7  1  0  0  0  0
  9  8  2  0  0  0  0
 10  9  1  0  0  0  0
 10 11  1  0  0  0  0
 12 10  2  0  0  0  0
 13 12  1  0  0  0  0
  7 13  2  0  0  0  0
M  END
> <ChemID>
100525

> <CAS>
7160-01-2

> <Original_SMILES>
Cc1ccc(cc1)NC(=O)N(C)C

> <preferred_name>
Urea, N,N-dimethyl-N'-(4-methylphenyl)-

> <dsstox_substance_id>
DTXSID60221835

> <dsstox_compound_id>
DTXCID90144326

> <qc_level>
Public_Medium

> <Canonical_QSARr>
CC1C=CC(=CC=1)NC(=O)N(C)C

> <InChI_Code_QSARr>
InChI=1S/C10H14N2O/c1-8-4-6-9(7-5-8)11-10(13)12(2)3/h4-7H,1-3H3,(H,11,13)

> <InChI Key_QSARr>
QTERLAXNZRFFMZ-UHFFFAOYSA-N

> <Salt_Solvent>


> <Salt_Solvent_ID>
0

> <MPID>
99793

> <KocRef>
Schuurmann-Main

> <LogKOC>
1.51

> <Tr_1_Tst_0>
1

$$$$
100526
  Mrv171c012251911022D          

 14 14  0  0  0  0            999 V2000
    3.3214   -2.4406    0.0000 C   0  0  0  0  0  0  0  0  0  0  0  0
    2.6069   -2.0281    0.0000 N   0  0  0  0  0  0  0  0  0  0  0  0
    2.6069   -1.2031    0.0000 C   0  0  0  0  0  0  0  0  0  0  0  0
    3.3214   -0.7906    0.0000 C   0  0  0  0  0  0  0  0  0  0  0  0
    3.3214    0.0344    0.0000 C   0  0  0  0  0  0  0  0  0  0  0  0
    2.6069    0.4469    0.0000 C   0  0  0  0  0  0  0  0  0  0  0  0
    2.6069    1.2719    0.0000 O   0  0  0  0  0  0  0  0  0  0  0  0
    1.8924    1.6844    0.0000 C   0  0  0  0  0  0  0  0  0  0  0  0
    1.8924    0.0344    0.0000 C   0  0  0  0  0  0  0  0  0  0  0  0
    1.8924   -0.7906    0.0000 C   0  0  0  0  0  0  0  0  0  0  0  0
    3.3214   -3.2656    0.0000 N   0  0  0  0  0  0  0  0  0  0  0  0
    4.0358   -3.6781    0.0000 C   0  0  0  0  0  0  0  0  0  0  0  0
    2.6069   -3.6781    0.0000 C   0  0  0  0  0  0  0  0  0  0  0  0
    4.0358   -2.0281    0.0000 O   0  0  0  0  0  0  0  0  0  0  0  0
  1  2  1  0  0  0  0
  2  3  1  0  0  0  0
  4  3  1  0  0  0  0
  5  4  2  0  0  0  0
  6  5  1  0  0  0  0
  6  7  1  0  0  0  0
  7  8  1  0  0  0  0
  9  6  2  0  0  0  0
 10  9  1  0  0  0  0
  3 10  2  0  0  0  0
  1 11  1  0  0  0  0
 11 12  1  0  0  0  0
 11 13  1  0  0  0  0
  1 14  2  0  0  0  0
M  END
> <ChemID>
100526

> <CAS>
7160-02-3

> <Original_SMILES>
CN(C)C(=O)Nc1ccc(cc1)OC

> <preferred_name>


> <dsstox_substance_id>
DTXSID00876065

> <dsstox_compound_id>
DTXCID301014178

> <qc_level>


> <Canonical_QSARr>
COC1C=CC(=CC=1)NC(=O)N(C)C

> <InChI_Code_QSARr>
InChI=1S/C10H14N2O2/c1-12(2)10(13)11-8-4-6-9(14-3)7-5-8/h4-7H,1-3H3,(H,11,13)

> <InChI Key_QSARr>
LCLYWJDPJMDAQN-UHFFFAOYSA-N

> <Salt_Solvent>


> <Salt_Solvent_ID>
0

> <MPID>
99794

> <KocRef>
Schuurmann-Main

> <LogKOC>
1.4

> <Tr_1_Tst_0>
1

$$$$
100527
  Mrv171c012251911022D          

 13 13  0  0  0  0            999 V2000
    2.6934   -1.3715    0.0000 Cl  0  0  0  0  0  0  0  0  0  0  0  0
    1.9790   -1.7840    0.0000 C   0  0  0  0  0  0  0  0  0  0  0  0
    1.2645   -1.3715    0.0000 C   0  0  0  0  0  0  0  0  0  0  0  0
    1.2645   -0.5465    0.0000 C   0  0  0  0  0  0  0  0  0  0  0  0
    1.9790   -0.1340    0.0000 O   0  0  0  0  0  0  0  0  0  0  0  0
    1.9790    0.6910    0.0000 C   0  0  0  0  0  0  0  0  0  0  0  0
    0.5500   -0.1340    0.0000 O   0  0  0  0  0  0  0  0  0  0  0  0
    0.5500   -1.7840    0.0000 C   0  0  0  0  0  0  0  0  0  0  0  0
    0.5500   -2.6090    0.0000 C   0  0  0  0  0  0  0  0  0  0  0  0
   -0.1644   -3.0215    0.0000 Cl  0  0  0  0  0  0  0  0  0  0  0  0
    1.2645   -3.0215    0.0000 C   0  0  0  0  0  0  0  0  0  0  0  0
    1.9790   -2.6090    0.0000 C   0  0  0  0  0  0  0  0  0  0  0  0
    2.6934   -3.0215    0.0000 N   0  0  0  0  0  0  0  0  0  0  0  0
  1  2  1  0  0  0  0
  3  2  1  0  0  0  0
  3  4  1  0  0  0  0
  4  5  1  0  0  0  0
  5  6  1  0  0  0  0
  4  7  2  0  0  0  0
  8  3  2  0  0  0  0
  9  8  1  0  0  0  0
  9 10  1  0  0  0  0
 11  9  2  0  0  0  0
 12 11  1  0  0  0  0
  2 12  2  0  0  0  0
 12 13  1  0  0  0  0
M  END
> <ChemID>
100527

> <CAS>
7286-84-2

> <Original_SMILES>
COC(=O)c1cc(Cl)cc(N)c1Cl

> <preferred_name>
Chloramben-methyl

> <dsstox_substance_id>
DTXSID1041762

> <dsstox_compound_id>
DTXCID9021762

> <qc_level>
DSSTox_Low

> <Canonical_QSARr>
COC(=O)C1=CC(Cl)=CC(N)=C1Cl

> <InChI_Code_QSARr>
InChI=1S/C8H7Cl2NO2/c1-13-8(12)5-2-4(9)3-6(11)7(5)10/h2-3H,11H2,1H3

> <InChI Key_QSARr>
DTSSCQVCVYZGSI-UHFFFAOYSA-N

> <Salt_Solvent>


> <Salt_Solvent_ID>
0

> <MPID>
99795

> <KocRef>
Schuurmann-Main

> <LogKOC>
2.74

> <Tr_1_Tst_0>
0

$$$$
100528
  Mrv171c012251911022D          

 16 16  0  0  0  0            999 V2000
    5.7152   -2.8770    0.0000 C   0  0  0  0  0  0  0  0  0  0  0  0
    5.0007   -2.4645    0.0000 C   0  0  0  0  0  0  0  0  0  0  0  0
    4.2862   -2.8770    0.0000 N   0  0  0  0  0  0  0  0  0  0  0  0
    3.5717   -2.4645    0.0000 C   0  0  0  0  0  0  0  0  0  0  0  0
    3.5717   -1.6395    0.0000 N   0  0  0  0  0  0  0  0  0  0  0  0
    2.8573   -1.2270    0.0000 C   0  0  0  0  0  0  0  0  0  0  0  0
    2.8573   -0.4020    0.0000 S   0  0  0  0  0  0  0  0  0  0  0  0
    2.1428    0.0105    0.0000 C   0  0  0  0  0  0  0  0  0  0  0  0
    2.1428   -1.6395    0.0000 N   0  0  0  0  0  0  0  0  0  0  0  0
    2.1428   -2.4645    0.0000 C   0  0  0  0  0  0  0  0  0  0  0  0
    1.4283   -2.8770    0.0000 N   0  0  0  0  0  0  0  0  0  0  0  0
    0.7139   -2.4645    0.0000 C   0  0  0  0  0  0  0  0  0  0  0  0
   -0.0006   -2.8770    0.0000 C   0  0  0  0  0  0  0  0  0  0  0  0
    0.7139   -1.6395    0.0000 C   0  0  0  0  0  0  0  0  0  0  0  0
    2.8573   -2.8770    0.0000 N   0  0  0  0  0  0  0  0  0  0  0  0
    5.0007   -1.6395    0.0000 C   0  0  0  0  0  0  0  0  0  0  0  0
  1  2  1  0  0  0  0
  2  3  1  0  0  0  0
  3  4  1  0  0  0  0
  5  4  1  0  0  0  0
  6  5  2  0  0  0  0
  6  7  1  0  0  0  0
  7  8  1  0  0  0  0
  9  6  1  0  0  0  0
 10  9  2  0  0  0  0
 10 11  1  0  0  0  0
 11 12  1  0  0  0  0
 12 13  1  0  0  0  0
 12 14  1  0  0  0  0
 15 10  1  0  0  0  0
  4 15  2  0  0  0  0
  2 16  1  0  0  0  0
M  END
> <ChemID>
100528

> <CAS>
7287-19-6

> <Original_SMILES>
CSc1[n]c(NC(C)C)[n]c(NC(C)C)[n]1

> <preferred_name>
Prometryn

> <dsstox_substance_id>
DTXSID4024272

> <dsstox_compound_id>
DTXCID704272

> <qc_level>
DSSTox_Low

> <Canonical_QSARr>
CSC1N=C(NC(C)C)N=C(NC(C)C)N=1

> <InChI_Code_QSARr>
InChI=1S/C10H19N5S/c1-6(2)11-8-13-9(12-7(3)4)15-10(14-8)16-5/h6-7H,1-5H3,(H2,11,12,13,14,15)

> <InChI Key_QSARr>
AAEVYOVXGOFMJO-UHFFFAOYSA-N

> <Salt_Solvent>


> <Salt_Solvent_ID>
0

> <MPID>
99796

> <KocRef>
Schuurmann-Main

> <LogKOC>
2.85

> <Tr_1_Tst_0>
1

$$$$
100529
  Mrv171c012251911022D          

 21 21  0  0  0  0            999 V2000
    0.0000    4.9500    0.0000 C   0  0  0  0  0  0  0  0  0  0  0  0
   -0.7145    4.5375    0.0000 C   0  0  0  0  0  0  0  0  0  0  0  0
   -0.7145    3.7125    0.0000 C   0  0  0  0  0  0  0  0  0  0  0  0
    0.0000    3.3000    0.0000 C   0  0  0  0  0  0  0  0  0  0  0  0
    0.7145    3.7125    0.0000 O   0  0  0  0  0  0  0  0  0  0  0  0
    0.0000    2.4750    0.0000 O   0  0  0  0  0  0  0  0  0  0  0  0
    0.7145    2.0625    0.0000 C   0  0  0  0  0  0  0  0  0  0  0  0
    1.4289    2.4750    0.0000 C   0  0  0  0  0  0  0  0  0  0  0  0
    0.7145    1.2375    0.0000 C   0  0  0  0  0  0  0  0  0  0  0  0
    1.4289    0.8250    0.0000 C   0  0  0  0  0  0  0  0  0  0  0  0
    1.4289   -0.0000    0.0000 C   0  0  0  0  0  0  0  0  0  0  0  0
    0.7145   -0.4125    0.0000 C   0  0  0  0  0  0  0  0  0  0  0  0
    0.0000    0.0000    0.0000 C   0  0  0  0  0  0  0  0  0  0  0  0
    0.0000    0.8250    0.0000 C   0  0  0  0  0  0  0  0  0  0  0  0
   -1.4289    4.9500    0.0000 O   0  0  0  0  0  0  0  0  0  0  0  0
   -1.4289    5.7750    0.0000 P   0  0  0  0  0  0  0  0  0  0  0  0
   -0.6039    5.7750    0.0000 O   0  0  0  0  0  0  0  0  0  0  0  0
   -1.4289    6.6000    0.0000 O   0  0  0  0  0  0  0  0  0  0  0  0
   -2.1434    7.0125    0.0000 C   0  0  0  0  0  0  0  0  0  0  0  0
   -2.2539    5.7750    0.0000 O   0  0  0  0  0  0  0  0  0  0  0  0
   -2.6664    6.4895    0.0000 C   0  0  0  0  0  0  0  0  0  0  0  0
  1  2  1  0  0  0  0
  2  3  2  0  0  0  0
  3  4  1  4  0  0  0
  4  5  2  0  0  0  0
  4  6  1  0  0  0  0
  6  7  1  0  0  0  0
  7  8  1  0  0  0  0
  7  9  1  0  0  0  0
  9 10  1  0  0  0  0
 10 11  2  0  0  0  0
 11 12  1  0  0  0  0
 12 13  2  0  0  0  0
 13 14  1  0  0  0  0
  9 14  2  0  0  0  0
  2 15  1  0  0  0  0
 15 16  1  0  0  0  0
 16 17  2  0  0  0  0
 16 18  1  0  0  0  0
 18 19  1  0  0  0  0
 16 20  1  0  0  0  0
 20 21  1  0  0  0  0
M  END
> <ChemID>
100529

> <CAS>
7700-17-6

> <Original_SMILES>
C/C(=C\C(=O)OC(C)c1ccccc1)/OP(=O)(OC)OC

> <preferred_name>
Crotoxyphos

> <dsstox_substance_id>
DTXSID6037514

> <dsstox_compound_id>
DTXCID4017514

> <qc_level>
DSSTox_Low

> <Canonical_QSARr>
CC(=CC(=O)OC(C)C1C=CC=CC=1)OP(=O)(OC)OC

> <InChI_Code_QSARr>
InChI=1S/C14H19O6P/c1-11(20-21(16,17-3)18-4)10-14(15)19-12(2)13-8-6-5-7-9-13/h5-10,12H,1-4H3

> <InChI Key_QSARr>
XXXSILNSXNPGKG-UHFFFAOYSA-N

> <Salt_Solvent>


> <Salt_Solvent_ID>
0

> <MPID>
99797

> <KocRef>
Schuurmann-Main

> <LogKOC>
2.0

> <Tr_1_Tst_0>
1

$$$$
100536
  Mrv171c012251911022D          

  7  6  0  0  0  0            999 V2000
    1.1671   -1.1025    0.0000 P   0  0  0  0  0  0  0  0  0  0  0  0
    1.1671   -1.9275    0.0000 O   0  0  0  0  0  0  0  0  0  0  0  0
    1.8816   -2.3400    0.0000 C   0  0  0  0  0  0  0  0  0  0  0  0
    1.9921   -1.1025    0.0000 N   0  0  0  0  0  0  0  0  0  0  0  0
    1.1671   -0.2775    0.0000 S   0  0  0  0  0  0  0  0  0  0  0  0
    0.4527    0.1350    0.0000 C   0  0  0  0  0  0  0  0  0  0  0  0
    0.3421   -1.1025    0.0000 O   0  0  0  0  0  0  0  0  0  0  0  0
  1  2  1  0  0  0  0
  2  3  1  0  0  0  0
  1  4  1  0  0  0  0
  1  5  1  0  0  0  0
  5  6  1  0  0  0  0
  1  7  2  0  0  0  0
M  END
> <ChemID>
100536

> <CAS>
10265-92-6

> <Original_SMILES>
COP(N)(=O)SC

> <preferred_name>
Methamidophos

> <dsstox_substance_id>
DTXSID6024177

> <dsstox_compound_id>
DTXCID504177

> <qc_level>
DSSTox_Low

> <Canonical_QSARr>
COP(N)(=O)SC

> <InChI_Code_QSARr>
InChI=1S/C2H8NO2PS/c1-5-6(3,4)7-2/h1-2H3,(H2,3,4)

> <InChI Key_QSARr>
NNKVPIKMPCQWCG-UHFFFAOYSA-N

> <Salt_Solvent>


> <Salt_Solvent_ID>
0

> <MPID>
99799

> <KocRef>
Schuurmann-Main

> <LogKOC>
0.7

> <Tr_1_Tst_0>
0

$$$$
100537
  Mrv171c012251911022D          

 25 27  0  0  0  0            999 V2000
    6.8623   -1.5828    0.0000 C   0  0  0  0  0  0  0  0  0  0  0  0
    6.1478   -1.9953    0.0000 C   0  0  0  0  0  0  0  0  0  0  0  0
    5.4334   -1.5828    0.0000 O   0  0  0  0  0  0  0  0  0  0  0  0
    4.7189   -1.9953    0.0000 C   0  0  0  0  0  0  0  0  0  0  0  0
    4.0044   -1.5828    0.0000 C   0  0  0  0  0  0  0  0  0  0  0  0
    3.9182   -0.7624    0.0000 C   0  0  0  0  0  0  0  0  0  0  0  0
    3.1112   -0.5908    0.0000 C   0  0  0  0  0  0  0  0  0  0  0  0
    2.7757    0.1628    0.0000 C   0  0  0  0  0  0  0  0  0  0  0  0
    1.9552    0.2491    0.0000 C   0  0  0  0  0  0  0  0  0  0  0  0
    1.6196    1.0028    0.0000 C   0  0  0  0  0  0  0  0  0  0  0  0
    0.7991    1.0890    0.0000 C   0  0  0  0  0  0  0  0  0  0  0  0
    0.3142    0.4216    0.0000 C   0  0  0  0  0  0  0  0  0  0  0  0
    0.6498   -0.3321    0.0000 C   0  0  0  0  0  0  0  0  0  0  0  0
    1.4703   -0.4184    0.0000 C   0  0  0  0  0  0  0  0  0  0  0  0
    2.6987   -1.3053    0.0000 O   0  0  0  0  0  0  0  0  0  0  0  0
    3.2508   -1.9184    0.0000 C   0  0  0  0  0  0  0  0  0  0  0  0
    6.1478   -2.8203    0.0000 O   0  0  0  0  0  0  0  0  0  0  0  0
    7.6873   -1.5828    0.0000 C   0  0  0  0  0  0  0  0  0  0  0  0
    8.4018   -1.9953    0.0000 C   0  0  0  0  0  0  0  0  0  0  0  0
    8.4018   -2.8203    0.0000 C   0  0  0  0  0  0  0  0  0  0  0  0
    9.1163   -3.2328    0.0000 C   0  0  0  0  0  0  0  0  0  0  0  0
    7.6873   -3.2328    0.0000 C   0  0  0  0  0  0  0  0  0  0  0  0
    7.2748   -0.8684    0.0000 C   0  0  0  0  0  0  0  0  0  0  0  0
    7.7480   -0.1926    0.0000 C   0  0  0  0  0  0  0  0  0  0  0  0
    6.8016   -0.1926    0.0000 C   0  0  0  0  0  0  0  0  0  0  0  0
  1  2  1  0  0  0  0
  2  3  1  0  0  0  0
  3  4  1  0  0  0  0
  4  5  1  0  0  0  0
  6  5  1  0  0  0  0
  7  6  2  0  0  0  0
  7  8  1  0  0  0  0
  8  9  1  0  0  0  0
 10  9  1  0  0  0  0
 11 10  2  0  0  0  0
 12 11  1  0  0  0  0
 13 12  2  0  0  0  0
 14 13  1  0  0  0  0
  9 14  2  0  0  0  0
 15  7  1  0  0  0  0
 16 15  1  0  0  0  0
  5 16  2  0  0  0  0
  2 17  2  0  0  0  0
 18  1  1  0  0  0  0
 18 19  1  0  0  0  0
 19 20  2  0  0  0  0
 20 21  1  0  0  0  0
 20 22  1  0  0  0  0
 23 18  1  0  0  0  0
  1 23  1  0  0  0  0
 23 24  1  0  0  0  0
 23 25  1  0  0  0  0
M  END
> <ChemID>
100537

> <CAS>
10453-86-8

> <Original_SMILES>
CC(C)=CC1C(C(=O)OCc2coc(Cc3ccccc3)c2)C1(C)C

> <preferred_name>
Resmethrin

> <dsstox_substance_id>
DTXSID7022253

> <dsstox_compound_id>
DTXCID302253

> <qc_level>
DSSTox_High

> <Canonical_QSARr>
CC(C)=CC1C(C(=O)OCC2C=C(CC3C=CC=CC=3)OC=2)C1(C)C

> <InChI_Code_QSARr>
InChI=1S/C22H26O3/c1-15(2)10-19-20(22(19,3)4)21(23)25-14-17-12-18(24-13-17)11-16-8-6-5-7-9-16/h5-10,12-13,19-20H,11,14H2,1-4H3

> <InChI Key_QSARr>
VEMKTZHHVJILDY-UHFFFAOYSA-N

> <Salt_Solvent>


> <Salt_Solvent_ID>
0

> <MPID>
99800

> <KocRef>
USDA Pest Prop DB

> <LogKOC>
5.0

> <Tr_1_Tst_0>
1

$$$$
100538
  Mrv171c012251911022D          

 16 15  0  0  0  0            999 V2000
    3.1832   -4.9016    0.0000 C   0  0  0  0  0  0  0  0  0  0  0  0
    3.1832   -4.0766    0.0000 C   0  0  0  0  0  0  0  0  0  0  0  0
    2.4688   -3.6641    0.0000 O   0  0  0  0  0  0  0  0  0  0  0  0
    2.4688   -2.8391    0.0000 P   0  0  0  0  0  0  0  0  0  0  0  0
    2.4688   -2.0141    0.0000 S   0  0  0  0  0  0  0  0  0  0  0  0
    1.7543   -1.6016    0.0000 C   0  0  0  0  0  0  0  0  0  0  0  0
    1.7543   -0.7766    0.0000 S   0  0  0  0  0  0  0  0  0  0  0  0
    2.4688   -0.3641    0.0000 O   0  0  0  0  0  0  0  0  0  0  0  0
    1.0398   -0.3641    0.0000 C   0  0  0  0  0  0  0  0  0  0  0  0
    0.3253    0.0484    0.0000 C   0  0  0  0  0  0  0  0  0  0  0  0
    1.4523    0.3503    0.0000 C   0  0  0  0  0  0  0  0  0  0  0  0
    0.6273   -1.0786    0.0000 C   0  0  0  0  0  0  0  0  0  0  0  0
    3.2938   -2.8391    0.0000 O   0  0  0  0  0  0  0  0  0  0  0  0
    3.7063   -2.1247    0.0000 C   0  0  0  0  0  0  0  0  0  0  0  0
    4.5313   -2.1247    0.0000 C   0  0  0  0  0  0  0  0  0  0  0  0
    1.6438   -2.8391    0.0000 S   0  0  0  0  0  0  0  0  0  0  0  0
  1  2  1  0  0  0  0
  2  3  1  0  0  0  0
  3  4  1  0  0  0  0
  4  5  1  0  0  0  0
  5  6  1  0  0  0  0
  6  7  1  0  0  0  0
  7  8  2  0  0  0  0
  7  9  1  0  0  0  0
  9 10  1  0  0  0  0
  9 11  1  0  0  0  0
  9 12  1  0  0  0  0
  4 13  1  0  0  0  0
 13 14  1  0  0  0  0
 14 15  1  0  0  0  0
  4 16  2  0  0  0  0
M  END
> <ChemID>
100538

> <CAS>
10548-10-4

> <Original_SMILES>
CC(C)(C)S(=O)CSP(=S)(OCC)OCC

> <preferred_name>
Terbufos sulfoxide

> <dsstox_substance_id>
DTXSID6042444

> <dsstox_compound_id>
DTXCID4022444

> <qc_level>
DSSTox_High

> <Canonical_QSARr>
CC(C)(C)S(=O)CSP(=S)(OCC)OCC

> <InChI_Code_QSARr>
InChI=1S/C9H21O3PS3/c1-6-11-13(14,12-7-2)15-8-16(10)9(3,4)5/h6-8H2,1-5H3

> <InChI Key_QSARr>
KKOYBOFPUBHPFO-UHFFFAOYSA-N

> <Salt_Solvent>


> <Salt_Solvent_ID>
0

> <MPID>
99801

> <KocRef>
Schuurmann-Main

> <LogKOC>
2.18

> <Tr_1_Tst_0>
1

$$$$
100539
  Mrv171c012251911022D          

 14 15  0  0  0  0            999 V2000
    1.0943   -0.7248    0.0000 N   0  0  0  0  0  0  0  0  0  0  0  0
    1.9193   -0.7248    0.0000 C   0  0  0  0  0  0  0  0  0  0  0  0
    2.4042   -0.0574    0.0000 N   0  0  0  0  0  0  0  0  0  0  0  0
    3.1888   -0.3123    0.0000 C   0  0  0  0  0  0  0  0  0  0  0  0
    3.9033    0.1002    0.0000 C   0  0  0  0  0  0  0  0  0  0  0  0
    4.6177   -0.3123    0.0000 C   0  0  0  0  0  0  0  0  0  0  0  0
    4.6177   -1.1373    0.0000 C   0  0  0  0  0  0  0  0  0  0  0  0
    3.9033   -1.5498    0.0000 C   0  0  0  0  0  0  0  0  0  0  0  0
    3.1888   -1.1373    0.0000 C   0  0  0  0  0  0  0  0  0  0  0  0
    2.4042   -1.3923    0.0000 N   0  0  0  0  0  0  0  0  0  0  0  0
    0.6818   -1.4393    0.0000 C   0  0  0  0  0  0  0  0  0  0  0  0
   -0.1432   -1.4393    0.0000 O   0  0  0  0  0  0  0  0  0  0  0  0
   -0.5557   -2.1538    0.0000 C   0  0  0  0  0  0  0  0  0  0  0  0
    1.0943   -2.1538    0.0000 O   0  0  0  0  0  0  0  0  0  0  0  0
  1  2  1  0  0  0  0
  3  2  1  0  0  0  0
  4  3  1  0  0  0  0
  4  5  2  0  0  0  0
  5  6  1  0  0  0  0
  6  7  2  0  0  0  0
  7  8  1  0  0  0  0
  8  9  2  0  0  0  0
  9  4  1  0  0  0  0
 10  9  1  0  0  0  0
  2 10  2  0  0  0  0
  1 11  1  0  0  0  0
 11 12  1  0  0  0  0
 12 13  1  0  0  0  0
 11 14  2  0  0  0  0
M  END
> <ChemID>
100539

> <CAS>
10605-21-7

> <Original_SMILES>
COC(=O)Nc1[nH]c2ccccc2[n]1

> <preferred_name>
Carbendazim

> <dsstox_substance_id>
DTXSID4024729

> <dsstox_compound_id>
DTXCID004729

> <qc_level>
DSSTox_High

> <Canonical_QSARr>
COC(=O)NC1NC2=CC=CC=C2N=1

> <InChI_Code_QSARr>
InChI=1S/C9H9N3O2/c1-14-9(13)12-8-10-6-4-2-3-5-7(6)11-8/h2-5H,1H3,(H2,10,11,12,13)

> <InChI Key_QSARr>
TWFZGCMQGLPBSX-UHFFFAOYSA-N

> <Salt_Solvent>


> <Salt_Solvent_ID>
0

> <MPID>
99802

> <KocRef>
Schuurmann-Main

> <LogKOC>
2.35

> <Tr_1_Tst_0>
1

$$$$
100540
  Mrv171c012251911022D          

 10  9  0  0  0  0            999 V2000
   -0.7144   -0.4125    0.0000 S   0  0  0  0  0  0  0  0  0  0  0  0
    0.0000   -0.0000    0.0000 C   0  0  0  0  0  0  0  0  0  0  0  0
    0.0000    0.8250    0.0000 S   0  0  0  0  0  0  0  0  0  0  0  0
    0.7145   -0.4125    0.0000 N   0  0  0  0  0  0  0  0  0  0  0  0
    1.4290   -0.0000    0.0000 C   0  0  0  0  0  0  0  0  0  0  0  0
    2.1435   -0.4125    0.0000 C   0  0  0  0  0  0  0  0  0  0  0  0
    2.8579   -0.0000    0.0000 N   0  0  0  0  0  0  0  0  0  0  0  0
    3.5724   -0.4125    0.0000 C   0  0  0  0  0  0  0  0  0  0  0  0
    4.2869   -0.0000    0.0000 S   0  0  0  0  0  0  0  0  0  0  0  0
    3.5724   -1.2375    0.0000 S   0  0  0  0  0  0  0  0  0  0  0  0
  1  2  1  0  0  0  0
  2  3  2  0  0  0  0
  2  4  1  0  0  0  0
  4  5  1  0  0  0  0
  5  6  1  0  0  0  0
  6  7  1  0  0  0  0
  7  8  1  0  0  0  0
  8  9  1  0  0  0  0
  8 10  2  0  0  0  0
M  END
> <ChemID>
100540

> <CAS>
12122-67-7

> <Original_SMILES>
[Zn+2].[S-]C(=S)NCCNC([S-])=S

> <preferred_name>
Zineb

> <dsstox_substance_id>
DTXSID5021465

> <dsstox_compound_id>
DTXCID701465

> <qc_level>
DSSTox_High

> <Canonical_QSARr>
SC(=S)NCCNC(S)=S

> <InChI_Code_QSARr>
InChI=1S/C4H8N2S4/c7-3(8)5-1-2-6-4(9)10/h1-2H2,(H2,5,7,8)(H2,6,9,10)

> <InChI Key_QSARr>
AWYFNIZYMPNGAI-UHFFFAOYSA-N

> <Salt_Solvent>
[Zn+2]

> <Salt_Solvent_ID>
300

> <MPID>
99803

> <KocRef>
USDA Pest Prop DB

> <LogKOC>
3.0

> <Tr_1_Tst_0>
1

$$$$
100541
  Mrv171c012251911022D          

 10  9  0  0  0  0            999 V2000
   -0.7144   -0.4125    0.0000 S   0  0  0  0  0  0  0  0  0  0  0  0
    0.0000   -0.0000    0.0000 C   0  0  0  0  0  0  0  0  0  0  0  0
    0.0000    0.8250    0.0000 S   0  0  0  0  0  0  0  0  0  0  0  0
    0.7145   -0.4125    0.0000 N   0  0  0  0  0  0  0  0  0  0  0  0
    1.4290   -0.0000    0.0000 C   0  0  0  0  0  0  0  0  0  0  0  0
    2.1435   -0.4125    0.0000 C   0  0  0  0  0  0  0  0  0  0  0  0
    2.8579   -0.0000    0.0000 N   0  0  0  0  0  0  0  0  0  0  0  0
    3.5724   -0.4125    0.0000 C   0  0  0  0  0  0  0  0  0  0  0  0
    4.2869   -0.0000    0.0000 S   0  0  0  0  0  0  0  0  0  0  0  0
    3.5724   -1.2375    0.0000 S   0  0  0  0  0  0  0  0  0  0  0  0
  1  2  1  0  0  0  0
  2  3  2  0  0  0  0
  2  4  1  0  0  0  0
  4  5  1  0  0  0  0
  5  6  1  0  0  0  0
  6  7  1  0  0  0  0
  7  8  1  0  0  0  0
  8  9  1  0  0  0  0
  8 10  2  0  0  0  0
M  END
> <ChemID>
100541

> <CAS>
12427-38-2

> <Original_SMILES>
[Mn+2].[S-]C(=S)NCCNC([S-])=S

> <preferred_name>
Maneb

> <dsstox_substance_id>
DTXSID9020794

> <dsstox_compound_id>
DTXCID70794

> <qc_level>
DSSTox_High

> <Canonical_QSARr>
SC(=S)NCCNC(S)=S

> <InChI_Code_QSARr>
InChI=1S/C4H8N2S4/c7-3(8)5-1-2-6-4(9)10/h1-2H2,(H2,5,7,8)(H2,6,9,10)

> <InChI Key_QSARr>
AWYFNIZYMPNGAI-UHFFFAOYSA-N

> <Salt_Solvent>
[Mn+2]

> <Salt_Solvent_ID>
250

> <MPID>
99804

> <KocRef>
USDA Pest Prop DB

> <LogKOC>
2.38

> <Tr_1_Tst_0>
1

$$$$
100542
  Mrv171c012251911022D          

 19 21  0  0  0  0            999 V2000
    3.2202   -0.7465    0.0000 C   0  0  0  0  0  0  0  0  0  0  0  0
    3.2202    0.0785    0.0000 O   0  0  0  0  0  0  0  0  0  0  0  0
    2.3952   -0.7465    0.0000 C   0  0  0  0  0  0  0  0  0  0  0  0
    1.9827   -0.0320    0.0000 C   0  0  0  0  0  0  0  0  0  0  0  0
    1.1577   -0.0320    0.0000 C   0  0  0  0  0  0  0  0  0  0  0  0
    0.7452   -0.7465    0.0000 C   0  0  0  0  0  0  0  0  0  0  0  0
   -0.0798   -0.7465    0.0000 O   0  0  0  0  0  0  0  0  0  0  0  0
   -0.4923   -1.4609    0.0000 C   0  0  0  0  0  0  0  0  0  0  0  0
    1.1577   -1.4609    0.0000 C   0  0  0  0  0  0  0  0  0  0  0  0
    1.9827   -1.4609    0.0000 C   0  0  0  0  0  0  0  0  0  0  0  0
    4.0452   -0.7465    0.0000 C   0  0  0  0  0  0  0  0  0  0  0  0
    4.4577   -1.4609    0.0000 C   0  0  0  0  0  0  0  0  0  0  0  0
    5.2827   -1.4609    0.0000 N   0  0  0  0  0  0  0  0  0  0  0  0
    5.6952   -0.7465    0.0000 C   0  0  0  0  0  0  0  0  0  0  0  0
    5.2827   -0.0320    0.0000 N   0  0  0  0  0  0  0  0  0  0  0  0
    4.4577   -0.0320    0.0000 C   0  0  0  0  0  0  0  0  0  0  0  0
    3.2202   -1.5715    0.0000 C   0  0  0  0  0  0  0  0  0  0  0  0
    2.8077   -2.2859    0.0000 C   0  0  0  0  0  0  0  0  0  0  0  0
    3.6327   -2.2859    0.0000 C   0  0  0  0  0  0  0  0  0  0  0  0
  1  2  1  0  0  0  0
  1  3  1  0  0  0  0
  4  3  2  0  0  0  0
  5  4  1  0  0  0  0
  6  5  2  0  0  0  0
  6  7  1  0  0  0  0
  7  8  1  0  0  0  0
  9  6  1  0  0  0  0
 10  9  2  0  0  0  0
  3 10  1  0  0  0  0
  1 11  1  0  0  0  0
 12 11  1  0  0  0  0
 13 12  2  0  0  0  0
 14 13  1  0  0  0  0
 15 14  2  0  0  0  0
 16 15  1  0  0  0  0
 11 16  2  0  0  0  0
  1 17  1  0  0  0  0
 18 17  1  0  0  0  0
 19 18  1  0  0  0  0
 17 19  1  0  0  0  0
M  END
> <ChemID>
100542

> <CAS>
12771-68-5

> <Original_SMILES>
COc1ccc(cc1)C(O)(C1CC1)c1c[n]c[n]c1

> <preferred_name>
Ancymidol

> <dsstox_substance_id>
DTXSID2034338

> <dsstox_compound_id>
DTXCID0014338

> <qc_level>
DSSTox_Low

> <Canonical_QSARr>
COC1C=CC(=CC=1)C(O)(C1CC1)C1C=NC=NC=1

> <InChI_Code_QSARr>
InChI=1S/C15H16N2O2/c1-19-14-6-4-12(5-7-14)15(18,11-2-3-11)13-8-16-10-17-9-13/h4-11,18H,2-3H2,1H3

> <InChI Key_QSARr>
HUTDUHSNJYTCAR-UHFFFAOYSA-N

> <Salt_Solvent>


> <Salt_Solvent_ID>
0

> <MPID>
99805

> <KocRef>
Schuurmann-Main

> <LogKOC>
2.08

> <Tr_1_Tst_0>
0

$$$$
100543
  Mrv171c012251911022D          

 14 15  0  0  0  0            999 V2000
    2.1410   -1.6566    0.0000 C   0  0  0  0  0  0  0  0  0  0  0  0
    2.1410   -2.4816    0.0000 C   0  0  0  0  0  0  0  0  0  0  0  0
    2.8555   -2.8941    0.0000 C   0  0  0  0  0  0  0  0  0  0  0  0
    3.5700   -2.4816    0.0000 C   0  0  0  0  0  0  0  0  0  0  0  0
    3.5700   -1.6566    0.0000 C   0  0  0  0  0  0  0  0  0  0  0  0
    2.8555   -1.2441    0.0000 C   0  0  0  0  0  0  0  0  0  0  0  0
    2.8555   -0.4191    0.0000 Cl  0  0  0  0  0  0  0  0  0  0  0  0
    1.4265   -1.2441    0.0000 C   0  0  0  0  0  0  0  0  0  0  0  0
    1.4265   -0.4191    0.0000 C   0  0  0  0  0  0  0  0  0  0  0  0
    0.7121   -0.0066    0.0000 C   0  0  0  0  0  0  0  0  0  0  0  0
   -0.0024   -0.4191    0.0000 C   0  0  0  0  0  0  0  0  0  0  0  0
   -0.0024   -1.2441    0.0000 C   0  0  0  0  0  0  0  0  0  0  0  0
    0.7121   -1.6566    0.0000 C   0  0  0  0  0  0  0  0  0  0  0  0
    0.7121   -2.4816    0.0000 Cl  0  0  0  0  0  0  0  0  0  0  0  0
  2  1  1  0  0  0  0
  3  2  2  0  0  0  0
  4  3  1  0  0  0  0
  5  4  2  0  0  0  0
  6  5  1  0  0  0  0
  1  6  2  0  0  0  0
  6  7  1  0  0  0  0
  1  8  1  0  0  0  0
  9  8  1  0  0  0  0
 10  9  2  0  0  0  0
 11 10  1  0  0  0  0
 12 11  2  0  0  0  0
 13 12  1  0  0  0  0
  8 13  2  0  0  0  0
 13 14  1  0  0  0  0
M  END
> <ChemID>
100543

> <CAS>
13029-08-8

> <Original_SMILES>
Clc1ccccc1-c1ccccc1Cl

> <preferred_name>
2,2'-Dichlorobiphenyl

> <dsstox_substance_id>
DTXSID4044533

> <dsstox_compound_id>
DTXCID2024533

> <qc_level>
DSSTox_Low

> <Canonical_QSARr>
ClC1C=CC=CC=1C1C=CC=CC=1Cl

> <InChI_Code_QSARr>
InChI=1S/C12H8Cl2/c13-11-7-3-1-5-9(11)10-6-2-4-8-12(10)14/h1-8H

> <InChI Key_QSARr>
JAYCNKDKIKZTAF-UHFFFAOYSA-N

> <Salt_Solvent>


> <Salt_Solvent_ID>
0

> <MPID>
99806

> <KocRef>
Schuurmann-Main

> <LogKOC>
3.92

> <Tr_1_Tst_0>
1

$$$$
100544
  Mrv171c012251911022D          

 15 14  0  0  0  0            999 V2000
    3.3870   -5.6927    0.0000 C   0  0  0  0  0  0  0  0  0  0  0  0
    3.3870   -4.8677    0.0000 C   0  0  0  0  0  0  0  0  0  0  0  0
    2.6725   -4.4552    0.0000 O   0  0  0  0  0  0  0  0  0  0  0  0
    2.6725   -3.6302    0.0000 P   0  0  0  0  0  0  0  0  0  0  0  0
    2.6725   -2.8052    0.0000 S   0  0  0  0  0  0  0  0  0  0  0  0
    1.9580   -2.3927    0.0000 C   0  0  0  0  0  0  0  0  0  0  0  0
    1.9580   -1.5677    0.0000 S   0  0  0  0  0  0  0  0  0  0  0  0
    1.2436   -1.1552    0.0000 C   0  0  0  0  0  0  0  0  0  0  0  0
    0.5291   -0.7427    0.0000 C   0  0  0  0  0  0  0  0  0  0  0  0
    1.6561   -0.4407    0.0000 C   0  0  0  0  0  0  0  0  0  0  0  0
    0.8311   -1.8697    0.0000 C   0  0  0  0  0  0  0  0  0  0  0  0
    3.4975   -3.6302    0.0000 O   0  0  0  0  0  0  0  0  0  0  0  0
    3.9100   -2.9157    0.0000 C   0  0  0  0  0  0  0  0  0  0  0  0
    4.7350   -2.9157    0.0000 C   0  0  0  0  0  0  0  0  0  0  0  0
    1.8475   -3.6302    0.0000 S   0  0  0  0  0  0  0  0  0  0  0  0
  1  2  1  0  0  0  0
  2  3  1  0  0  0  0
  3  4  1  0  0  0  0
  4  5  1  0  0  0  0
  5  6  1  0  0  0  0
  6  7  1  0  0  0  0
  7  8  1  0  0  0  0
  8  9  1  0  0  0  0
  8 10  1  0  0  0  0
  8 11  1  0  0  0  0
  4 12  1  0  0  0  0
 12 13  1  0  0  0  0
 13 14  1  0  0  0  0
  4 15  2  0  0  0  0
M  END
> <ChemID>
100544

> <CAS>
13071-79-9

> <Original_SMILES>
CC(C)(C)SCSP(=S)(OCC)OCC

> <preferred_name>
Terbufos

> <dsstox_substance_id>
DTXSID2022254

> <dsstox_compound_id>
DTXCID702254

> <qc_level>
DSSTox_Low

> <Canonical_QSARr>
CC(C)(C)SCSP(=S)(OCC)OCC

> <InChI_Code_QSARr>
InChI=1S/C9H21O2PS3/c1-6-10-12(13,11-7-2)15-8-14-9(3,4)5/h6-8H2,1-5H3

> <InChI Key_QSARr>
XLNZEKHULJKQBA-UHFFFAOYSA-N

> <Salt_Solvent>


> <Salt_Solvent_ID>
0

> <MPID>
99807

> <KocRef>
Schuurmann-Main

> <LogKOC>
2.82

> <Tr_1_Tst_0>
1

$$$$
100545
  Mrv171c012251911022D          

 14 14  0  0  0  0            999 V2000
    1.0717    0.2652    0.0000 C   0  0  0  0  0  0  0  0  0  0  0  0
    0.3572   -0.1473    0.0000 N   0  0  0  0  0  0  0  0  0  0  0  0
    0.3572   -0.9723    0.0000 C   0  0  0  0  0  0  0  0  0  0  0  0
   -0.3572   -1.3848    0.0000 O   0  0  0  0  0  0  0  0  0  0  0  0
    1.0717   -1.3848    0.0000 N   0  0  0  0  0  0  0  0  0  0  0  0
    1.7862   -0.1473    0.0000 C   0  0  0  0  0  0  0  0  0  0  0  0
    2.5006    0.2652    0.0000 C   0  0  0  0  0  0  0  0  0  0  0  0
    2.5006    1.0902    0.0000 C   0  0  0  0  0  0  0  0  0  0  0  0
    1.7862    1.5027    0.0000 C   0  0  0  0  0  0  0  0  0  0  0  0
    1.7862    2.3277    0.0000 C   0  0  0  0  0  0  0  0  0  0  0  0
    1.7862    3.1527    0.0000 F   0  0  0  0  0  0  0  0  0  0  0  0
    2.6112    2.3277    0.0000 F   0  0  0  0  0  0  0  0  0  0  0  0
    0.9612    2.3277    0.0000 F   0  0  0  0  0  0  0  0  0  0  0  0
    1.0717    1.0902    0.0000 C   0  0  0  0  0  0  0  0  0  0  0  0
  1  2  1  0  0  0  0
  2  3  1  0  0  0  0
  3  4  2  0  0  0  0
  3  5  1  0  0  0  0
  6  1  1  0  0  0  0
  7  6  2  0  0  0  0
  8  7  1  0  0  0  0
  9  8  2  0  0  0  0
  9 10  1  0  0  0  0
 10 11  1  0  0  0  0
 10 12  1  0  0  0  0
 10 13  1  0  0  0  0
 14  9  1  0  0  0  0
  1 14  2  0  0  0  0
M  END
> <ChemID>
100545

> <CAS>
13114-87-9

> <Original_SMILES>
NC(=O)Nc1cc(ccc1)C(F)(F)F

> <preferred_name>
[3-(Trifluoromethyl)phenyl]urea

> <dsstox_substance_id>
DTXSID0065355

> <dsstox_compound_id>
DTXCID9034028

> <qc_level>
Public_High

> <Canonical_QSARr>
NC(=O)NC1=CC(=CC=C1)C(F)(F)F

> <InChI_Code_QSARr>
InChI=1S/C8H7F3N2O/c9-8(10,11)5-2-1-3-6(4-5)13-7(12)14/h1-4H,(H3,12,13,14)

> <InChI Key_QSARr>
FQEIBEOBXKJAMZ-UHFFFAOYSA-N

> <Salt_Solvent>


> <Salt_Solvent_ID>
0

> <MPID>
99808

> <KocRef>
Schuurmann-Main

> <LogKOC>
1.98

> <Tr_1_Tst_0>
1

$$$$
100546
  Mrv171c012251911022D          

 13 14  0  0  0  0            999 V2000
    3.2289   -0.9222    0.0000 O   0  0  0  0  0  0  0  0  0  0  0  0
    2.5145   -0.5097    0.0000 C   0  0  0  0  0  0  0  0  0  0  0  0
    2.5145    0.3153    0.0000 N   0  0  0  0  0  0  0  0  0  0  0  0
    3.2289    0.7278    0.0000 C   0  0  0  0  0  0  0  0  0  0  0  0
    3.9434    0.3153    0.0000 C   0  0  0  0  0  0  0  0  0  0  0  0
    4.6579    0.7278    0.0000 C   0  0  0  0  0  0  0  0  0  0  0  0
    4.6579    1.5528    0.0000 C   0  0  0  0  0  0  0  0  0  0  0  0
    3.9434    1.9653    0.0000 C   0  0  0  0  0  0  0  0  0  0  0  0
    3.2289    1.5528    0.0000 C   0  0  0  0  0  0  0  0  0  0  0  0
    1.8000   -0.9222    0.0000 N   0  0  0  0  0  0  0  0  0  0  0  0
    1.8000   -1.7472    0.0000 C   0  0  0  0  0  0  0  0  0  0  0  0
    1.3875   -2.4616    0.0000 C   0  0  0  0  0  0  0  0  0  0  0  0
    2.2125   -2.4616    0.0000 C   0  0  0  0  0  0  0  0  0  0  0  0
  1  2  2  0  0  0  0
  2  3  1  0  0  0  0
  3  4  1  0  0  0  0
  5  4  1  0  0  0  0
  6  5  2  0  0  0  0
  7  6  1  0  0  0  0
  8  7  2  0  0  0  0
  9  8  1  0  0  0  0
  4  9  2  0  0  0  0
  2 10  1  0  0  0  0
 10 11  1  0  0  0  0
 12 11  1  0  0  0  0
 13 12  1  0  0  0  0
 11 13  1  0  0  0  0
M  END
> <ChemID>
100546

> <CAS>
13140-86-8

> <Original_SMILES>
O=C(Nc1ccccc1)NC1CC1

> <preferred_name>
N-Cyclopropyl-N'-phenylurea

> <dsstox_substance_id>
DTXSID80157026

> <dsstox_compound_id>
DTXCID9079517

> <qc_level>
Public_Medium

> <Canonical_QSARr>
O=C(NC1C=CC=CC=1)NC1CC1

> <InChI_Code_QSARr>
InChI=1S/C10H12N2O/c13-10(12-9-6-7-9)11-8-4-2-1-3-5-8/h1-5,9H,6-7H2,(H2,11,12,13)

> <InChI Key_QSARr>
GAVZUXBKQVMADB-UHFFFAOYSA-N

> <Salt_Solvent>


> <Salt_Solvent_ID>
0

> <MPID>
99809

> <KocRef>
Schuurmann-Main

> <LogKOC>
1.74

> <Tr_1_Tst_0>
0

$$$$
100547
  Mrv171c012251911022D          

 15 16  0  0  0  0            999 V2000
    3.6150   -0.3926    0.0000 O   0  0  0  0  0  0  0  0  0  0  0  0
    2.9005    0.0199    0.0000 C   0  0  0  0  0  0  0  0  0  0  0  0
    2.9005    0.8449    0.0000 N   0  0  0  0  0  0  0  0  0  0  0  0
    3.6150    1.2574    0.0000 C   0  0  0  0  0  0  0  0  0  0  0  0
    4.3295    0.8449    0.0000 C   0  0  0  0  0  0  0  0  0  0  0  0
    5.0439    1.2574    0.0000 C   0  0  0  0  0  0  0  0  0  0  0  0
    5.0439    2.0824    0.0000 C   0  0  0  0  0  0  0  0  0  0  0  0
    4.3295    2.4949    0.0000 C   0  0  0  0  0  0  0  0  0  0  0  0
    3.6150    2.0824    0.0000 C   0  0  0  0  0  0  0  0  0  0  0  0
    2.1860   -0.3926    0.0000 N   0  0  0  0  0  0  0  0  0  0  0  0
    2.1860   -1.2176    0.0000 C   0  0  0  0  0  0  0  0  0  0  0  0
    1.5186   -1.7025    0.0000 C   0  0  0  0  0  0  0  0  0  0  0  0
    1.7735   -2.4872    0.0000 C   0  0  0  0  0  0  0  0  0  0  0  0
    2.5985   -2.4872    0.0000 C   0  0  0  0  0  0  0  0  0  0  0  0
    2.8535   -1.7025    0.0000 C   0  0  0  0  0  0  0  0  0  0  0  0
  1  2  2  0  0  0  0
  2  3  1  0  0  0  0
  3  4  1  0  0  0  0
  5  4  1  0  0  0  0
  6  5  2  0  0  0  0
  7  6  1  0  0  0  0
  8  7  2  0  0  0  0
  9  8  1  0  0  0  0
  4  9  2  0  0  0  0
  2 10  1  0  0  0  0
 10 11  1  0  0  0  0
 12 11  1  0  0  0  0
 13 12  1  0  0  0  0
 14 13  1  0  0  0  0
 15 14  1  0  0  0  0
 11 15  1  0  0  0  0
M  END
> <ChemID>
100547

> <CAS>
13140-89-1

> <Original_SMILES>
O=C(Nc1ccccc1)NC1CCCC1

> <preferred_name>
N-Cyclopentyl-N'-phenylurea

> <dsstox_substance_id>
DTXSID40157027

> <dsstox_compound_id>
DTXCID4079518

> <qc_level>
Public_Medium

> <Canonical_QSARr>
O=C(NC1C=CC=CC=1)NC1CCCC1

> <InChI_Code_QSARr>
InChI=1S/C12H16N2O/c15-12(14-11-8-4-5-9-11)13-10-6-2-1-3-7-10/h1-3,6-7,11H,4-5,8-9H2,(H2,13,14,15)

> <InChI Key_QSARr>
KODZEKGCUPWVLU-UHFFFAOYSA-N

> <Salt_Solvent>


> <Salt_Solvent_ID>
0

> <MPID>
99810

> <KocRef>
Schuurmann-Main

> <LogKOC>
1.93

> <Tr_1_Tst_0>
1

$$$$
100548
  Mrv171c012251911022D          

 18 17  0  0  0  0            999 V2000
    1.2375   -0.7145    0.0000 C   0  0  0  0  0  0  0  0  0  0  0  0
    0.8250    0.0000    0.0000 C   0  0  0  0  0  0  0  0  0  0  0  0
    1.2375    0.7145    0.0000 O   0  0  0  0  0  0  0  0  0  0  0  0
    2.0625    0.7145    0.0000 P   0  0  0  0  0  0  0  0  0  0  0  0
    2.0625   -0.1105    0.0000 O   0  0  0  0  0  0  0  0  0  0  0  0
    2.8875    0.7145    0.0000 O   0  0  0  0  0  0  0  0  0  0  0  0
    3.3000    1.4289    0.0000 C   0  0  0  0  0  0  0  0  0  0  0  0
    2.0625    1.5395    0.0000 O   0  0  0  0  0  0  0  0  0  0  0  0
    2.7770    1.9520    0.0000 C   0  0  0  0  0  0  0  0  0  0  0  0
    0.0000    0.0000    0.0000 C   0  0  0  0  0  0  0  0  0  0  0  0
   -0.4125    0.7145    0.0000 Cl  0  0  0  0  0  0  0  0  0  0  0  0
   -0.4125   -0.7145    0.0000 C   0  0  0  0  0  0  0  0  0  0  0  0
   -1.2375   -0.7145    0.0000 O   0  0  0  0  0  0  0  0  0  0  0  0
    0.0000   -1.4289    0.0000 N   0  0  0  0  0  0  0  0  0  0  0  0
   -0.4125   -2.1434    0.0000 C   0  0  0  0  0  0  0  0  0  0  0  0
    0.0000   -2.8579    0.0000 C   0  0  0  0  0  0  0  0  0  0  0  0
    0.8250   -1.4289    0.0000 C   0  0  0  0  0  0  0  0  0  0  0  0
    1.2375   -2.1434    0.0000 C   0  0  0  0  0  0  0  0  0  0  0  0
  2  1  1  4  0  0  0
  2  3  1  0  0  0  0
  3  4  1  0  0  0  0
  4  5  2  0  0  0  0
  4  6  1  0  0  0  0
  6  7  1  0  0  0  0
  4  8  1  0  0  0  0
  8  9  1  0  0  0  0
  2 10  2  0  0  0  0
 10 11  1  0  0  0  0
 10 12  1  0  0  0  0
 12 13  2  0  0  0  0
 12 14  1  0  0  0  0
 14 15  1  0  0  0  0
 15 16  1  0  0  0  0
 14 17  1  0  0  0  0
 17 18  1  0  0  0  0
M  END
> <ChemID>
100548

> <CAS>
13171-21-6

> <Original_SMILES>
CC(OP(=O)(OC)OC)=C(Cl)C(=O)N(CC)CC

> <preferred_name>
Phosphamidon

> <dsstox_substance_id>
DTXSID7021156

> <dsstox_compound_id>
DTXCID201156

> <qc_level>
DSSTox_High

> <Canonical_QSARr>
CC(OP(=O)(OC)OC)=C(Cl)C(=O)N(CC)CC

> <InChI_Code_QSARr>
InChI=1S/C10H19ClNO5P/c1-6-12(7-2)10(13)9(11)8(3)17-18(14,15-4)16-5/h6-7H2,1-5H3

> <InChI Key_QSARr>
RGCLLPNLLBQHPF-UHFFFAOYSA-N

> <Salt_Solvent>


> <Salt_Solvent_ID>
0

> <MPID>
99811

> <KocRef>
Schuurmann-Main

> <LogKOC>
0.85

> <Tr_1_Tst_0>
1

$$$$
100549
  Mrv171c012251911022D          

 13 12  0  0  0  0            999 V2000
    2.3069   -1.5741    0.0000 P   0  0  0  0  0  0  0  0  0  0  0  0
    3.1319   -1.5741    0.0000 O   0  0  0  0  0  0  0  0  0  0  0  0
    3.5444   -2.2886    0.0000 C   0  0  0  0  0  0  0  0  0  0  0  0
    4.3694   -2.2886    0.0000 C   0  0  0  0  0  0  0  0  0  0  0  0
    2.3069   -0.7491    0.0000 S   0  0  0  0  0  0  0  0  0  0  0  0
    1.5924   -0.3366    0.0000 C   0  0  0  0  0  0  0  0  0  0  0  0
    1.5924    0.4884    0.0000 C   0  0  0  0  0  0  0  0  0  0  0  0
    0.8780    0.9009    0.0000 C   0  0  0  0  0  0  0  0  0  0  0  0
    2.3069   -2.3991    0.0000 S   0  0  0  0  0  0  0  0  0  0  0  0
    3.0214   -2.8116    0.0000 C   0  0  0  0  0  0  0  0  0  0  0  0
    3.0214   -3.6366    0.0000 C   0  0  0  0  0  0  0  0  0  0  0  0
    3.7359   -4.0491    0.0000 C   0  0  0  0  0  0  0  0  0  0  0  0
    1.4819   -1.5741    0.0000 O   0  0  0  0  0  0  0  0  0  0  0  0
  1  2  1  0  0  0  0
  2  3  1  0  0  0  0
  3  4  1  0  0  0  0
  1  5  1  0  0  0  0
  5  6  1  0  0  0  0
  6  7  1  0  0  0  0
  7  8  1  0  0  0  0
  1  9  1  0  0  0  0
  9 10  1  0  0  0  0
 10 11  1  0  0  0  0
 11 12  1  0  0  0  0
  1 13  2  0  0  0  0
M  END
> <ChemID>
100549

> <CAS>
13194-48-4

> <Original_SMILES>
CCOP(=O)(SCCC)SCCC

> <preferred_name>
Ethoprop

> <dsstox_substance_id>
DTXSID4032611

> <dsstox_compound_id>
DTXCID2012611

> <qc_level>
DSSTox_Low

> <Canonical_QSARr>
CCOP(=O)(SCCC)SCCC

> <InChI_Code_QSARr>
InChI=1S/C8H19O2PS2/c1-4-7-12-11(9,10-6-3)13-8-5-2/h4-8H2,1-3H3

> <InChI Key_QSARr>
VJYFKVYYMZPMAB-UHFFFAOYSA-N

> <Salt_Solvent>


> <Salt_Solvent_ID>
0

> <MPID>
99812

> <KocRef>
Schuurmann-Main

> <LogKOC>
1.85

> <Tr_1_Tst_0>
1

$$$$
100550
  Mrv171c012251911022D          

 16 16  0  0  0  0            999 V2000
    1.7641    3.2554    0.0000 P   0  0  0  0  0  0  0  0  0  0  0  0
    2.5891    3.2554    0.0000 O   0  0  0  0  0  0  0  0  0  0  0  0
    1.7641    4.0804    0.0000 O   0  0  0  0  0  0  0  0  0  0  0  0
    2.4786    4.4929    0.0000 C   0  0  0  0  0  0  0  0  0  0  0  0
    2.4786    5.3179    0.0000 C   0  0  0  0  0  0  0  0  0  0  0  0
    0.9391    3.2554    0.0000 O   0  0  0  0  0  0  0  0  0  0  0  0
    0.5266    3.9698    0.0000 C   0  0  0  0  0  0  0  0  0  0  0  0
    0.9391    4.6843    0.0000 C   0  0  0  0  0  0  0  0  0  0  0  0
    1.7641    2.4304    0.0000 S   0  0  0  0  0  0  0  0  0  0  0  0
    1.0496    2.0179    0.0000 C   0  0  0  0  0  0  0  0  0  0  0  0
    1.0496    1.1929    0.0000 C   0  0  0  0  0  0  0  0  0  0  0  0
    0.3351    0.7804    0.0000 C   0  0  0  0  0  0  0  0  0  0  0  0
    0.3351   -0.0446    0.0000 C   0  0  0  0  0  0  0  0  0  0  0  0
    1.0496   -0.4571    0.0000 C   0  0  0  0  0  0  0  0  0  0  0  0
    1.7641   -0.0446    0.0000 C   0  0  0  0  0  0  0  0  0  0  0  0
    1.7641    0.7804    0.0000 C   0  0  0  0  0  0  0  0  0  0  0  0
  1  2  2  0  0  0  0
  1  3  1  0  0  0  0
  3  4  1  0  0  0  0
  4  5  1  0  0  0  0
  1  6  1  0  0  0  0
  6  7  1  0  0  0  0
  7  8  1  0  0  0  0
  1  9  1  0  0  0  0
  9 10  1  0  0  0  0
 10 11  1  0  0  0  0
 12 11  1  0  0  0  0
 13 12  2  0  0  0  0
 14 13  1  0  0  0  0
 15 14  2  0  0  0  0
 16 15  1  0  0  0  0
 11 16  2  0  0  0  0
M  END
> <ChemID>
100550

> <CAS>
13286-32-3

> <Original_SMILES>
CCOP(=O)(OCC)SCc1ccccc1

> <preferred_name>
Phosphorothioic acid, O,O-diethyl S-(phenylmethyl) ester

> <dsstox_substance_id>
DTXSID0074502

> <dsstox_compound_id>
DTXCID8034116

> <qc_level>
Public_High

> <Canonical_QSARr>
CCOP(=O)(OCC)SCC1C=CC=CC=1

> <InChI_Code_QSARr>
InChI=1S/C11H17O3PS/c1-3-13-15(12,14-4-2)16-10-11-8-6-5-7-9-11/h5-9H,3-4,10H2,1-2H3

> <InChI Key_QSARr>
XFMJUIKWKVJNDY-UHFFFAOYSA-N

> <Salt_Solvent>


> <Salt_Solvent_ID>
0

> <MPID>
99813

> <KocRef>
Schuurmann-Main

> <LogKOC>
2.4

> <Tr_1_Tst_0>
0

$$$$
100552
  Mrv171c012251911022D          

 15 15  0  0  0  0            999 V2000
    2.1411   -1.5057    0.0000 C   0  0  0  0  0  0  0  0  0  0  0  0
    1.4266   -1.0932    0.0000 C   0  0  0  0  0  0  0  0  0  0  0  0
    0.7121   -1.5057    0.0000 C   0  0  0  0  0  0  0  0  0  0  0  0
    0.7121   -2.3307    0.0000 C   0  0  0  0  0  0  0  0  0  0  0  0
   -0.0024   -2.7432    0.0000 Br  0  0  0  0  0  0  0  0  0  0  0  0
    1.4266   -2.7432    0.0000 C   0  0  0  0  0  0  0  0  0  0  0  0
    1.4266   -3.5682    0.0000 Cl  0  0  0  0  0  0  0  0  0  0  0  0
    2.1411   -2.3307    0.0000 C   0  0  0  0  0  0  0  0  0  0  0  0
    2.8555   -1.0932    0.0000 N   0  0  0  0  0  0  0  0  0  0  0  0
    3.5700   -1.5057    0.0000 C   0  0  0  0  0  0  0  0  0  0  0  0
    3.5700   -2.3307    0.0000 O   0  0  0  0  0  0  0  0  0  0  0  0
    4.2845   -1.0932    0.0000 N   0  0  0  0  0  0  0  0  0  0  0  0
    4.2845   -0.2682    0.0000 C   0  0  0  0  0  0  0  0  0  0  0  0
    4.9989   -1.5057    0.0000 O   0  0  0  0  0  0  0  0  0  0  0  0
    5.7134   -1.0932    0.0000 C   0  0  0  0  0  0  0  0  0  0  0  0
  2  1  1  0  0  0  0
  3  2  2  0  0  0  0
  4  3  1  0  0  0  0
  4  5  1  0  0  0  0
  6  4  2  0  0  0  0
  6  7  1  0  0  0  0
  8  6  1  0  0  0  0
  1  8  2  0  0  0  0
  1  9  1  0  0  0  0
  9 10  1  0  0  0  0
 10 11  2  0  0  0  0
 10 12  1  0  0  0  0
 12 13  1  0  0  0  0
 12 14  1  0  0  0  0
 14 15  1  0  0  0  0
M  END
> <ChemID>
100552

> <CAS>
13360-45-7

> <Original_SMILES>
CON(C)C(=O)Nc1ccc(Br)c(Cl)c1

> <preferred_name>
Chlorbromuron

> <dsstox_substance_id>
DTXSID6040290

> <dsstox_compound_id>
DTXCID4020290

> <qc_level>
DSSTox_Low

> <Canonical_QSARr>
CON(C)C(=O)NC1C=CC(Br)=C(Cl)C=1

> <InChI_Code_QSARr>
InChI=1S/C9H10BrClN2O2/c1-13(15-2)9(14)12-6-3-4-7(10)8(11)5-6/h3-5H,1-2H3,(H,12,14)

> <InChI Key_QSARr>
NLYNUTMZTCLNOO-UHFFFAOYSA-N

> <Salt_Solvent>


> <Salt_Solvent_ID>
0

> <MPID>
99814

> <KocRef>
Schuurmann-Main

> <LogKOC>
2.7

> <Tr_1_Tst_0>
1

$$$$
100553
  Mrv171c012251911022D          

 22 23  0  0  0  0            999 V2000
    6.2927    0.6403    0.0000 C   0  0  0  0  0  0  0  0  0  0  0  0
    5.5783    1.0528    0.0000 N   0  0  0  0  0  0  0  0  0  0  0  0
    4.8638    0.6403    0.0000 C   0  0  0  0  0  0  0  0  0  0  0  0
    4.1493    1.0528    0.0000 C   0  0  0  0  0  0  0  0  0  0  0  0
    3.4349    0.6403    0.0000 C   0  0  0  0  0  0  0  0  0  0  0  0
    3.4349   -0.1847    0.0000 C   0  0  0  0  0  0  0  0  0  0  0  0
    4.1493   -0.5972    0.0000 C   0  0  0  0  0  0  0  0  0  0  0  0
    4.1493   -1.4222    0.0000 O   0  0  0  0  0  0  0  0  0  0  0  0
    3.4349   -1.8347    0.0000 C   0  0  0  0  0  0  0  0  0  0  0  0
    3.4349   -2.6597    0.0000 N   0  0  0  0  0  0  0  0  0  0  0  0
    2.7204   -3.0722    0.0000 C   0  0  0  0  0  0  0  0  0  0  0  0
    2.0059   -2.6597    0.0000 C   0  0  0  0  0  0  0  0  0  0  0  0
    1.2914   -3.0722    0.0000 C   0  0  0  0  0  0  0  0  0  0  0  0
    1.2914   -3.8972    0.0000 C   0  0  0  0  0  0  0  0  0  0  0  0
    2.0059   -4.3097    0.0000 C   0  0  0  0  0  0  0  0  0  0  0  0
    2.7204   -3.8972    0.0000 C   0  0  0  0  0  0  0  0  0  0  0  0
    2.7204   -1.4222    0.0000 O   0  0  0  0  0  0  0  0  0  0  0  0
    4.8638   -0.1847    0.0000 C   0  0  0  0  0  0  0  0  0  0  0  0
    7.0072    1.0528    0.0000 O   0  0  0  0  0  0  0  0  0  0  0  0
    7.7217    0.6403    0.0000 C   0  0  0  0  0  0  0  0  0  0  0  0
    8.4362    1.0528    0.0000 C   0  0  0  0  0  0  0  0  0  0  0  0
    6.2927   -0.1847    0.0000 O   0  0  0  0  0  0  0  0  0  0  0  0
  1  2  1  0  0  0  0
  2  3  1  0  0  0  0
  4  3  1  0  0  0  0
  5  4  2  0  0  0  0
  6  5  1  0  0  0  0
  7  6  2  0  0  0  0
  7  8  1  0  0  0  0
  8  9  1  0  0  0  0
  9 10  1  0  0  0  0
 10 11  1  0  0  0  0
 12 11  1  0  0  0  0
 13 12  2  0  0  0  0
 14 13  1  0  0  0  0
 15 14  2  0  0  0  0
 16 15  1  0  0  0  0
 11 16  2  0  0  0  0
  9 17  2  0  0  0  0
 18  7  1  0  0  0  0
  3 18  2  0  0  0  0
  1 19  1  0  0  0  0
 19 20  1  0  0  0  0
 20 21  1  0  0  0  0
  1 22  2  0  0  0  0
M  END
> <ChemID>
100553

> <CAS>
13684-56-5

> <Original_SMILES>
CCOC(=O)Nc1cccc(c1)OC(=O)Nc1ccccc1

> <preferred_name>
Desmedipham

> <dsstox_substance_id>
DTXSID0034518

> <dsstox_compound_id>
DTXCID8014518

> <qc_level>
DSSTox_Low

> <Canonical_QSARr>
CCOC(=O)NC1C=CC=C(C=1)OC(=O)NC1C=CC=CC=1

> <InChI_Code_QSARr>
InChI=1S/C16H16N2O4/c1-2-21-15(19)18-13-9-6-10-14(11-13)22-16(20)17-12-7-4-3-5-8-12/h3-11H,2H2,1H3,(H,17,20)(H,18,19)

> <InChI Key_QSARr>
WZJZMXBKUWKXTQ-UHFFFAOYSA-N

> <Salt_Solvent>


> <Salt_Solvent_ID>
0

> <MPID>
99815

> <KocRef>
Schuurmann-Main

> <LogKOC>
3.18

> <Tr_1_Tst_0>
1

$$$$
100554
  Mrv171c012251911022D          

 22 23  0  0  0  0            999 V2000
    3.4126   -1.4476    0.0000 C   0  0  0  0  0  0  0  0  0  0  0  0
    4.1271   -1.8601    0.0000 O   0  0  0  0  0  0  0  0  0  0  0  0
    3.4126   -0.6226    0.0000 O   0  0  0  0  0  0  0  0  0  0  0  0
    4.1271   -0.2101    0.0000 C   0  0  0  0  0  0  0  0  0  0  0  0
    4.8415   -0.6226    0.0000 C   0  0  0  0  0  0  0  0  0  0  0  0
    5.5560   -0.2101    0.0000 C   0  0  0  0  0  0  0  0  0  0  0  0
    5.5560    0.6149    0.0000 C   0  0  0  0  0  0  0  0  0  0  0  0
    4.8415    1.0274    0.0000 C   0  0  0  0  0  0  0  0  0  0  0  0
    4.8415    1.8524    0.0000 N   0  0  0  0  0  0  0  0  0  0  0  0
    5.5560    2.2649    0.0000 C   0  0  0  0  0  0  0  0  0  0  0  0
    5.5560    3.0899    0.0000 O   0  0  0  0  0  0  0  0  0  0  0  0
    6.2705    3.5024    0.0000 C   0  0  0  0  0  0  0  0  0  0  0  0
    6.2705    1.8524    0.0000 O   0  0  0  0  0  0  0  0  0  0  0  0
    4.1271    0.6149    0.0000 C   0  0  0  0  0  0  0  0  0  0  0  0
    2.6981   -1.8601    0.0000 N   0  0  0  0  0  0  0  0  0  0  0  0
    2.6981   -2.6851    0.0000 C   0  0  0  0  0  0  0  0  0  0  0  0
    1.9837   -3.0976    0.0000 C   0  0  0  0  0  0  0  0  0  0  0  0
    1.9837   -3.9226    0.0000 C   0  0  0  0  0  0  0  0  0  0  0  0
    2.6981   -4.3351    0.0000 C   0  0  0  0  0  0  0  0  0  0  0  0
    3.4126   -3.9226    0.0000 C   0  0  0  0  0  0  0  0  0  0  0  0
    4.1271   -4.3351    0.0000 C   0  0  0  0  0  0  0  0  0  0  0  0
    3.4126   -3.0976    0.0000 C   0  0  0  0  0  0  0  0  0  0  0  0
  1  2  2  0  0  0  0
  1  3  1  0  0  0  0
  3  4  1  0  0  0  0
  5  4  2  0  0  0  0
  6  5  1  0  0  0  0
  7  6  2  0  0  0  0
  8  7  1  0  0  0  0
  8  9  1  0  0  0  0
  9 10  1  0  0  0  0
 10 11  1  0  0  0  0
 11 12  1  0  0  0  0
 10 13  2  0  0  0  0
 14  8  2  0  0  0  0
  4 14  1  0  0  0  0
  1 15  1  0  0  0  0
 15 16  1  0  0  0  0
 17 16  2  0  0  0  0
 18 17  1  0  0  0  0
 19 18  2  0  0  0  0
 20 19  1  0  0  0  0
 20 21  1  0  0  0  0
 22 20  2  0  0  0  0
 16 22  1  0  0  0  0
M  END
> <ChemID>
100554

> <CAS>
13684-63-4

> <Original_SMILES>
Cc1cc(ccc1)NC(=O)Oc1cc(ccc1)NC(=O)OC

> <preferred_name>
Phenmedipham

> <dsstox_substance_id>
DTXSID1024255

> <dsstox_compound_id>
DTXCID304255

> <qc_level>
DSSTox_Low

> <Canonical_QSARr>
CC1C=CC=C(C=1)NC(=O)OC1C=C(C=CC=1)NC(=O)OC

> <InChI_Code_QSARr>
InChI=1S/C16H16N2O4/c1-11-5-3-6-12(9-11)18-16(20)22-14-8-4-7-13(10-14)17-15(19)21-2/h3-10H,1-2H3,(H,17,19)(H,18,20)

> <InChI Key_QSARr>
IDOWTHOLJBTAFI-UHFFFAOYSA-N

> <Salt_Solvent>


> <Salt_Solvent_ID>
0

> <MPID>
99816

> <KocRef>
Schuurmann-Main

> <LogKOC>
3.38

> <Tr_1_Tst_0>
1

$$$$
100555
  Mrv171c012251911022D          

 19 19  0  0  0  0            999 V2000
    3.9237   -2.8084    0.0000 S   0  0  0  0  0  0  0  0  0  0  0  0
    3.9237   -3.6334    0.0000 C   0  0  0  0  0  0  0  0  0  0  0  0
    3.9237   -1.9834    0.0000 C   0  0  0  0  0  0  0  0  0  0  0  0
    4.6382   -1.5709    0.0000 C   0  0  0  0  0  0  0  0  0  0  0  0
    4.6382   -0.7459    0.0000 C   0  0  0  0  0  0  0  0  0  0  0  0
    3.9237   -0.3334    0.0000 C   0  0  0  0  0  0  0  0  0  0  0  0
    3.9237    0.4916    0.0000 O   0  0  0  0  0  0  0  0  0  0  0  0
    3.2092    0.9041    0.0000 P   0  0  0  0  0  0  0  0  0  0  0  0
    2.4948    1.3166    0.0000 O   0  0  0  0  0  0  0  0  0  0  0  0
    2.4948    2.1416    0.0000 C   0  0  0  0  0  0  0  0  0  0  0  0
    1.7803    2.5541    0.0000 C   0  0  0  0  0  0  0  0  0  0  0  0
    3.6217    1.6186    0.0000 O   0  0  0  0  0  0  0  0  0  0  0  0
    3.2092    2.3331    0.0000 C   0  0  0  0  0  0  0  0  0  0  0  0
    3.6217    3.0475    0.0000 C   0  0  0  0  0  0  0  0  0  0  0  0
    2.7967    0.1897    0.0000 S   0  0  0  0  0  0  0  0  0  0  0  0
    3.2092   -0.7459    0.0000 C   0  0  0  0  0  0  0  0  0  0  0  0
    3.2092   -1.5709    0.0000 C   0  0  0  0  0  0  0  0  0  0  0  0
    4.7487   -2.8084    0.0000 O   0  0  0  0  0  0  0  0  0  0  0  0
    3.0987   -2.8084    0.0000 O   0  0  0  0  0  0  0  0  0  0  0  0
  1  2  1  0  0  0  0
  1  3  1  0  0  0  0
  4  3  1  0  0  0  0
  5  4  2  0  0  0  0
  6  5  1  0  0  0  0
  6  7  1  0  0  0  0
  7  8  1  0  0  0  0
  8  9  1  0  0  0  0
  9 10  1  0  0  0  0
 10 11  1  0  0  0  0
  8 12  1  0  0  0  0
 12 13  1  0  0  0  0
 13 14  1  0  0  0  0
  8 15  2  0  0  0  0
 16  6  2  0  0  0  0
 17 16  1  0  0  0  0
  3 17  2  0  0  0  0
  1 18  2  0  0  0  0
  1 19  2  0  0  0  0
M  END
> <ChemID>
100555

> <CAS>
14255-72-2

> <Original_SMILES>
CS(=O)(=O)c1ccc(cc1)OP(=S)(OCC)OCC

> <preferred_name>
Fensulfothion sulfone

> <dsstox_substance_id>
DTXSID80162079

> <dsstox_compound_id>
DTXCID9084570

> <qc_level>
Public_Medium

> <Canonical_QSARr>
CS(=O)(=O)C1C=CC(=CC=1)OP(=S)(OCC)OCC

> <InChI_Code_QSARr>
InChI=1S/C11H17O5PS2/c1-4-14-17(18,15-5-2)16-10-6-8-11(9-7-10)19(3,12)13/h6-9H,4-5H2,1-3H3

> <InChI Key_QSARr>
VTFZEBCYVXMEBB-UHFFFAOYSA-N

> <Salt_Solvent>


> <Salt_Solvent_ID>
0

> <MPID>
99817

> <KocRef>
Schuurmann-Main

> <LogKOC>
2.17

> <Tr_1_Tst_0>
0

$$$$
100557
  Mrv171c012251911022D          

 20 21  0  0  0  0            999 V2000
    1.5032   -3.3479    0.0000 C   0  0  0  0  0  0  0  0  0  0  0  0
    1.9157   -4.0624    0.0000 O   0  0  0  0  0  0  0  0  0  0  0  0
    0.6782   -3.3479    0.0000 N   0  0  0  0  0  0  0  0  0  0  0  0
    0.2657   -4.0624    0.0000 C   0  0  0  0  0  0  0  0  0  0  0  0
   -0.5593   -4.0624    0.0000 C   0  0  0  0  0  0  0  0  0  0  0  0
    0.2657   -2.6335    0.0000 C   0  0  0  0  0  0  0  0  0  0  0  0
    0.6782   -1.9190    0.0000 C   0  0  0  0  0  0  0  0  0  0  0  0
    1.9157   -2.6335    0.0000 C   0  0  0  0  0  0  0  0  0  0  0  0
    1.5032   -1.9190    0.0000 C   0  0  0  0  0  0  0  0  0  0  0  0
    2.7407   -2.6335    0.0000 O   0  0  0  0  0  0  0  0  0  0  0  0
    3.1532   -1.9190    0.0000 C   0  0  0  0  0  0  0  0  0  0  0  0
    2.7407   -1.2045    0.0000 C   0  0  0  0  0  0  0  0  0  0  0  0
    3.1532   -0.4900    0.0000 C   0  0  0  0  0  0  0  0  0  0  0  0
    3.9782   -0.4900    0.0000 C   0  0  0  0  0  0  0  0  0  0  0  0
    4.3907   -1.2045    0.0000 C   0  0  0  0  0  0  0  0  0  0  0  0
    5.2157   -1.2045    0.0000 C   0  0  0  0  0  0  0  0  0  0  0  0
    5.6282   -1.9190    0.0000 C   0  0  0  0  0  0  0  0  0  0  0  0
    5.2157   -2.6335    0.0000 C   0  0  0  0  0  0  0  0  0  0  0  0
    4.3907   -2.6335    0.0000 C   0  0  0  0  0  0  0  0  0  0  0  0
    3.9782   -1.9190    0.0000 C   0  0  0  0  0  0  0  0  0  0  0  0
  1  2  2  0  0  0  0
  1  3  1  0  0  0  0
  3  4  1  0  0  0  0
  4  5  1  0  0  0  0
  3  6  1  0  0  0  0
  6  7  1  0  0  0  0
  1  8  1  0  0  0  0
  8  9  1  0  0  0  0
  8 10  1  0  0  0  0
 10 11  1  0  0  0  0
 12 11  1  0  0  0  0
 13 12  2  0  0  0  0
 14 13  1  0  0  0  0
 15 14  2  0  0  0  0
 15 16  1  0  0  0  0
 16 17  2  0  0  0  0
 17 18  1  0  0  0  0
 18 19  2  0  0  0  0
 19 20  1  0  0  0  0
 11 20  2  0  0  0  0
 20 15  1  0  0  0  0
M  END
> <ChemID>
100557

> <CAS>
15299-99-7

> <Original_SMILES>
CC(Oc1cccc2ccccc21)C(=O)N(CC)CC

> <preferred_name>
Napropamide

> <dsstox_substance_id>
DTXSID5024211

> <dsstox_compound_id>
DTXCID504211

> <qc_level>
DSSTox_Low

> <Canonical_QSARr>
CC(OC1C=CC=C2C=CC=CC2=1)C(=O)N(CC)CC

> <InChI_Code_QSARr>
InChI=1S/C17H21NO2/c1-4-18(5-2)17(19)13(3)20-16-12-8-10-14-9-6-7-11-15(14)16/h6-13H,4-5H2,1-3H3

> <InChI Key_QSARr>
WXZVAROIGSFCFJ-UHFFFAOYSA-N

> <Salt_Solvent>


> <Salt_Solvent_ID>
0

> <MPID>
99818

> <KocRef>
Schuurmann-Main

> <LogKOC>
2.76

> <Tr_1_Tst_0>
1

$$$$
100558
  Mrv171c012251911022D          

 16 17  0  0  0  0            999 V2000
    2.8085   -1.3157    0.0000 C   0  0  0  0  0  0  0  0  0  0  0  0
    2.0941   -1.7282    0.0000 N   0  0  0  0  0  0  0  0  0  0  0  0
    2.0941   -2.5532    0.0000 C   0  0  0  0  0  0  0  0  0  0  0  0
    1.3796   -2.9657    0.0000 C   0  0  0  0  0  0  0  0  0  0  0  0
    1.3796   -3.7907    0.0000 C   0  0  0  0  0  0  0  0  0  0  0  0
    2.0941   -4.2032    0.0000 C   0  0  0  0  0  0  0  0  0  0  0  0
    2.8085   -3.7907    0.0000 C   0  0  0  0  0  0  0  0  0  0  0  0
    2.8085   -2.9657    0.0000 C   0  0  0  0  0  0  0  0  0  0  0  0
    2.8085   -0.4907    0.0000 C   0  0  0  0  0  0  0  0  0  0  0  0
    3.5230   -0.0782    0.0000 C   0  0  0  0  0  0  0  0  0  0  0  0
    3.5230    0.7468    0.0000 C   0  0  0  0  0  0  0  0  0  0  0  0
    2.8085    1.1593    0.0000 C   0  0  0  0  0  0  0  0  0  0  0  0
    2.0941    0.7468    0.0000 C   0  0  0  0  0  0  0  0  0  0  0  0
    2.0941   -0.0782    0.0000 C   0  0  0  0  0  0  0  0  0  0  0  0
    1.3796   -0.4907    0.0000 I   0  0  0  0  0  0  0  0  0  0  0  0
    3.5230   -1.7282    0.0000 O   0  0  0  0  0  0  0  0  0  0  0  0
  1  2  1  0  0  0  0
  2  3  1  0  0  0  0
  4  3  1  0  0  0  0
  5  4  2  0  0  0  0
  6  5  1  0  0  0  0
  7  6  2  0  0  0  0
  8  7  1  0  0  0  0
  3  8  2  0  0  0  0
  1  9  1  0  0  0  0
 10  9  1  0  0  0  0
 11 10  2  0  0  0  0
 12 11  1  0  0  0  0
 13 12  2  0  0  0  0
 14 13  1  0  0  0  0
  9 14  2  0  0  0  0
 14 15  1  0  0  0  0
  1 16  2  0  0  0  0
M  END
> <ChemID>
100558

> <CAS>
15310-01-7

> <Original_SMILES>
O=C(Nc1ccccc1)c1ccccc1I

> <preferred_name>
Benodanil

> <dsstox_substance_id>
DTXSID7041623

> <dsstox_compound_id>
DTXCID5021623

> <qc_level>
DSSTox_Low

> <Canonical_QSARr>
O=C(NC1C=CC=CC=1)C1C=CC=CC=1I

> <InChI_Code_QSARr>
InChI=1S/C13H10INO/c14-12-9-5-4-8-11(12)13(16)15-10-6-2-1-3-7-10/h1-9H,(H,15,16)

> <InChI Key_QSARr>
LJOZMWRYMKECFF-UHFFFAOYSA-N

> <Salt_Solvent>


> <Salt_Solvent_ID>
0

> <MPID>
99819

> <KocRef>
USDA Pest Prop DB

> <LogKOC>
2.82

> <Tr_1_Tst_0>
1

$$$$
100559
  Mrv171c012251911022D          

 14 14  0  0  0  0            999 V2000
    2.6027   -3.4403    0.0000 C   0  0  0  0  0  0  0  0  0  0  0  0
    1.8882   -3.0278    0.0000 N   0  0  0  0  0  0  0  0  0  0  0  0
    1.8882   -2.2028    0.0000 C   0  0  0  0  0  0  0  0  0  0  0  0
    2.6027   -1.7903    0.0000 C   0  0  0  0  0  0  0  0  0  0  0  0
    2.6027   -0.9653    0.0000 C   0  0  0  0  0  0  0  0  0  0  0  0
    1.8882   -0.5528    0.0000 C   0  0  0  0  0  0  0  0  0  0  0  0
    1.8882    0.2722    0.0000 C   0  0  0  0  0  0  0  0  0  0  0  0
    1.1738   -0.9653    0.0000 C   0  0  0  0  0  0  0  0  0  0  0  0
    0.4593   -0.5528    0.0000 Cl  0  0  0  0  0  0  0  0  0  0  0  0
    1.1738   -1.7903    0.0000 C   0  0  0  0  0  0  0  0  0  0  0  0
    2.6027   -4.2653    0.0000 N   0  0  0  0  0  0  0  0  0  0  0  0
    3.3172   -4.6778    0.0000 C   0  0  0  0  0  0  0  0  0  0  0  0
    1.8882   -4.6778    0.0000 C   0  0  0  0  0  0  0  0  0  0  0  0
    3.3172   -3.0278    0.0000 O   0  0  0  0  0  0  0  0  0  0  0  0
  1  2  1  0  0  0  0
  2  3  1  0  0  0  0
  4  3  1  0  0  0  0
  5  4  2  0  0  0  0
  6  5  1  0  0  0  0
  6  7  1  0  0  0  0
  8  6  2  0  0  0  0
  8  9  1  0  0  0  0
 10  8  1  0  0  0  0
  3 10  2  0  0  0  0
  1 11  1  0  0  0  0
 11 12  1  0  0  0  0
 11 13  1  0  0  0  0
  1 14  2  0  0  0  0
M  END
> <ChemID>
100559

> <CAS>
15545-48-9

> <Original_SMILES>
Cc1ccc(cc1Cl)NC(=O)N(C)C

> <preferred_name>
Chlorotoluron

> <dsstox_substance_id>
DTXSID8052853

> <dsstox_compound_id>
DTXCID5031264

> <qc_level>
DSSTox_Low

> <Canonical_QSARr>
CC1C=CC(=CC=1Cl)NC(=O)N(C)C

> <InChI_Code_QSARr>
InChI=1S/C10H13ClN2O/c1-7-4-5-8(6-9(7)11)12-10(14)13(2)3/h4-6H,1-3H3,(H,12,14)

> <InChI Key_QSARr>
JXCGFZXSOMJFOA-UHFFFAOYSA-N

> <Salt_Solvent>


> <Salt_Solvent_ID>
0

> <MPID>
99820

> <KocRef>
Schuurmann-Main

> <LogKOC>
2.02

> <Tr_1_Tst_0>
1

$$$$
100560
  Mrv171c012251911022D          

 16 17  0  0  0  0            999 V2000
    0.3572    1.4438    0.0000 C   0  0  0  0  0  0  0  0  0  0  0  0
   -0.3572    1.8563    0.0000 C   0  0  0  0  0  0  0  0  0  0  0  0
   -0.3572    2.6813    0.0000 Cl  0  0  0  0  0  0  0  0  0  0  0  0
   -1.0717    1.4438    0.0000 C   0  0  0  0  0  0  0  0  0  0  0  0
   -1.0717    0.6188    0.0000 C   0  0  0  0  0  0  0  0  0  0  0  0
   -0.3572    0.2063    0.0000 C   0  0  0  0  0  0  0  0  0  0  0  0
    0.3572    0.6188    0.0000 C   0  0  0  0  0  0  0  0  0  0  0  0
    1.0717    0.2063    0.0000 Cl  0  0  0  0  0  0  0  0  0  0  0  0
    1.0717    1.8563    0.0000 C   0  0  0  0  0  0  0  0  0  0  0  0
    1.7862    1.4438    0.0000 C   0  0  0  0  0  0  0  0  0  0  0  0
    1.7862    0.6188    0.0000 Cl  0  0  0  0  0  0  0  0  0  0  0  0
    2.5006    1.8563    0.0000 C   0  0  0  0  0  0  0  0  0  0  0  0
    2.5006    2.6813    0.0000 C   0  0  0  0  0  0  0  0  0  0  0  0
    1.7862    3.0938    0.0000 C   0  0  0  0  0  0  0  0  0  0  0  0
    1.0717    2.6813    0.0000 C   0  0  0  0  0  0  0  0  0  0  0  0
    0.3572    3.0938    0.0000 Cl  0  0  0  0  0  0  0  0  0  0  0  0
  2  1  1  0  0  0  0
  2  3  1  0  0  0  0
  4  2  2  0  0  0  0
  5  4  1  0  0  0  0
  6  5  2  0  0  0  0
  7  6  1  0  0  0  0
  1  7  2  0  0  0  0
  7  8  1  0  0  0  0
  1  9  1  0  0  0  0
 10  9  1  0  0  0  0
 10 11  1  0  0  0  0
 12 10  2  0  0  0  0
 13 12  1  0  0  0  0
 14 13  2  0  0  0  0
 15 14  1  0  0  0  0
  9 15  2  0  0  0  0
 15 16  1  0  0  0  0
M  END
> <ChemID>
100560

> <CAS>
15968-05-5

> <Original_SMILES>
Clc1cccc(Cl)c1-c1c(Cl)cccc1Cl

> <preferred_name>
2,2',6,6'-Tetrachlorobiphenyl

> <dsstox_substance_id>
DTXSID0065983

> <dsstox_compound_id>
DTXCID2035142

> <qc_level>
Public_High

> <Canonical_QSARr>
ClC1C=CC=C(Cl)C=1C1C(Cl)=CC=CC=1Cl

> <InChI_Code_QSARr>
InChI=1S/C12H6Cl4/c13-7-3-1-4-8(14)11(7)12-9(15)5-2-6-10(12)16/h1-6H

> <InChI Key_QSARr>
PXAGFNRKXSYIHU-UHFFFAOYSA-N

> <Salt_Solvent>


> <Salt_Solvent_ID>
0

> <MPID>
99821

> <KocRef>
Schuurmann-Main

> <LogKOC>
4.9

> <Tr_1_Tst_0>
0

$$$$
100561
  Mrv171c012251911022D          

 18 18  0  0  0  0            999 V2000
    1.7856   -1.1886    0.0000 C   0  0  0  0  0  0  0  0  0  0  0  0
    2.1981   -1.9031    0.0000 C   0  0  0  0  0  0  0  0  0  0  0  0
    1.7856   -2.6176    0.0000 N   0  0  0  0  0  0  0  0  0  0  0  0
    0.9606   -2.6176    0.0000 C   0  0  0  0  0  0  0  0  0  0  0  0
    0.5481   -3.3320    0.0000 C   0  0  0  0  0  0  0  0  0  0  0  0
   -0.2769   -3.3320    0.0000 Cl  0  0  0  0  0  0  0  0  0  0  0  0
    0.5481   -1.9031    0.0000 O   0  0  0  0  0  0  0  0  0  0  0  0
    2.1981   -3.3320    0.0000 C   0  0  0  0  0  0  0  0  0  0  0  0
    3.0231   -3.3320    0.0000 O   0  0  0  0  0  0  0  0  0  0  0  0
    3.4356   -4.0465    0.0000 C   0  0  0  0  0  0  0  0  0  0  0  0
    3.0231   -1.9031    0.0000 C   0  0  0  0  0  0  0  0  0  0  0  0
    3.4356   -2.6176    0.0000 C   0  0  0  0  0  0  0  0  0  0  0  0
    4.2606   -2.6176    0.0000 C   0  0  0  0  0  0  0  0  0  0  0  0
    3.4356   -1.1886    0.0000 C   0  0  0  0  0  0  0  0  0  0  0  0
    3.0231   -0.4742    0.0000 C   0  0  0  0  0  0  0  0  0  0  0  0
    2.1981   -0.4742    0.0000 C   0  0  0  0  0  0  0  0  0  0  0  0
    0.9606   -1.1886    0.0000 C   0  0  0  0  0  0  0  0  0  0  0  0
    0.5481   -0.4742    0.0000 C   0  0  0  0  0  0  0  0  0  0  0  0
  2  1  1  0  0  0  0
  2  3  1  0  0  0  0
  3  4  1  0  0  0  0
  4  5  1  0  0  0  0
  5  6  1  0  0  0  0
  4  7  2  0  0  0  0
  3  8  1  0  0  0  0
  8  9  1  0  0  0  0
  9 10  1  0  0  0  0
 11  2  2  0  0  0  0
 11 12  1  0  0  0  0
 12 13  1  0  0  0  0
 14 11  1  0  0  0  0
 15 14  2  0  0  0  0
 16 15  1  0  0  0  0
  1 16  2  0  0  0  0
  1 17  1  0  0  0  0
 17 18  1  0  0  0  0
M  END
> <ChemID>
100561

> <CAS>
15972-60-8

> <Original_SMILES>
COCN(C(=O)CCl)c1c(CC)cccc1CC

> <preferred_name>
Alachlor

> <dsstox_substance_id>
DTXSID1022265

> <dsstox_compound_id>
DTXCID402265

> <qc_level>
DSSTox_Low

> <Canonical_QSARr>
COCN(C(=O)CCl)C1C(CC)=CC=CC=1CC

> <InChI_Code_QSARr>
InChI=1S/C14H20ClNO2/c1-4-11-7-6-8-12(5-2)14(11)16(10-18-3)13(17)9-15/h6-8H,4-5,9-10H2,1-3H3

> <InChI Key_QSARr>
XCSGPAVHZFQHGE-UHFFFAOYSA-N

> <Salt_Solvent>


> <Salt_Solvent_ID>
0

> <MPID>
99822

> <KocRef>
Schuurmann-Main

> <LogKOC>
2.28

> <Tr_1_Tst_0>
1

$$$$
100562
  Mrv171c012251911022D          

  7  6  0  0  0  0            999 V2000
    1.0988   -1.4990    0.0000 P   0  0  0  0  0  0  0  0  0  0  0  0
    1.9238   -1.4990    0.0000 O   0  0  0  0  0  0  0  0  0  0  0  0
    1.0988   -0.6740    0.0000 O   0  0  0  0  0  0  0  0  0  0  0  0
    1.0988   -2.3240    0.0000 O   0  0  0  0  0  0  0  0  0  0  0  0
    0.2738   -1.4990    0.0000 C   0  0  0  0  0  0  0  0  0  0  0  0
   -0.1387   -0.7845    0.0000 C   0  0  0  0  0  0  0  0  0  0  0  0
   -0.9637   -0.7845    0.0000 Cl  0  0  0  0  0  0  0  0  0  0  0  0
  1  2  1  0  0  0  0
  1  3  1  0  0  0  0
  1  4  2  0  0  0  0
  1  5  1  0  0  0  0
  5  6  1  0  0  0  0
  6  7  1  0  0  0  0
M  END
> <ChemID>
100562

> <CAS>
16672-87-0

> <Original_SMILES>
OP(O)(=O)CCCl

> <preferred_name>
Ethephon

> <dsstox_substance_id>
DTXSID7024085

> <dsstox_compound_id>
DTXCID804085

> <qc_level>
DSSTox_Low

> <Canonical_QSARr>
OP(O)(=O)CCCl

> <InChI_Code_QSARr>
InChI=1S/C2H6ClO3P/c3-1-2-7(4,5)6/h1-2H2,(H2,4,5,6)

> <InChI Key_QSARr>
UDPGUMQDCGORJQ-UHFFFAOYSA-N

> <Salt_Solvent>


> <Salt_Solvent_ID>
0

> <MPID>
99823

> <KocRef>
USDA Pest Prop DB

> <LogKOC>
0.0

> <Tr_1_Tst_0>
1

$$$$
100563
  Mrv171c012251911022D          

 10  9  0  0  0  0            999 V2000
    3.3406    0.6986    0.0000 C   0  0  0  0  0  0  0  0  0  0  0  0
    2.5156    0.6986    0.0000 S   0  0  0  0  0  0  0  0  0  0  0  0
    2.1031   -0.0159    0.0000 C   0  0  0  0  0  0  0  0  0  0  0  0
    1.2781   -0.0159    0.0000 N   0  0  0  0  0  0  0  0  0  0  0  0
    0.8656   -0.7304    0.0000 O   0  0  0  0  0  0  0  0  0  0  0  0
    1.2781   -1.4448    0.0000 C   0  0  0  0  0  0  0  0  0  0  0  0
    0.8656   -2.1593    0.0000 N   0  0  0  0  0  0  0  0  0  0  0  0
    1.2781   -2.8738    0.0000 C   0  0  0  0  0  0  0  0  0  0  0  0
    2.1031   -1.4448    0.0000 O   0  0  0  0  0  0  0  0  0  0  0  0
    2.5156   -0.7304    0.0000 C   0  0  0  0  0  0  0  0  0  0  0  0
  1  2  1  0  0  0  0
  2  3  1  0  0  0  0
  3  4  2  0  0  0  0
  4  5  1  4  0  0  0
  5  6  1  0  0  0  0
  6  7  1  0  0  0  0
  7  8  1  0  0  0  0
  6  9  2  0  0  0  0
  3 10  1  0  0  0  0
M  END
> <ChemID>
100563

> <CAS>
19928-35-9

> <Original_SMILES>
CC(=NOC(=O)NC)SC

> <preferred_name>
Methomyl

> <dsstox_substance_id>
DTXSID60860187

> <dsstox_compound_id>
DTXCID00209132

> <qc_level>
DSSTox_Low

> <Canonical_QSARr>
CC(=NOC(=O)NC)SC

> <InChI_Code_QSARr>
InChI=1S/C5H10N2O2S/c1-4(10-3)7-9-5(8)6-2/h1-3H3,(H,6,8)

> <InChI Key_QSARr>
UHXUZOCRWCRNSJ-UHFFFAOYSA-N

> <Salt_Solvent>


> <Salt_Solvent_ID>
0

> <MPID>
99824

> <KocRef>
Schuurmann-Main

> <LogKOC>
1.3

> <Tr_1_Tst_0>
1

$$$$
100564
  Mrv171c012251911022D          

 21 22  0  0  0  0            999 V2000
    1.9838   -2.1684    0.0000 C   0  0  0  0  0  0  0  0  0  0  0  0
    1.8123   -2.9753    0.0000 N   0  0  0  0  0  0  0  0  0  0  0  0
    1.0276   -3.2303    0.0000 C   0  0  0  0  0  0  0  0  0  0  0  0
    0.8561   -4.0373    0.0000 O   0  0  0  0  0  0  0  0  0  0  0  0
    0.0715   -4.2922    0.0000 C   0  0  0  0  0  0  0  0  0  0  0  0
    0.4145   -2.6782    0.0000 O   0  0  0  0  0  0  0  0  0  0  0  0
    1.4318   -1.5553    0.0000 N   0  0  0  0  0  0  0  0  0  0  0  0
    1.8443   -0.8408    0.0000 C   0  0  0  0  0  0  0  0  0  0  0  0
    1.5893   -0.0562    0.0000 C   0  0  0  0  0  0  0  0  0  0  0  0
    2.1414    0.5569    0.0000 C   0  0  0  0  0  0  0  0  0  0  0  0
    2.9483    0.3854    0.0000 C   0  0  0  0  0  0  0  0  0  0  0  0
    3.2033   -0.3992    0.0000 C   0  0  0  0  0  0  0  0  0  0  0  0
    2.6512   -1.0123    0.0000 C   0  0  0  0  0  0  0  0  0  0  0  0
    2.7375   -1.8328    0.0000 N   0  0  0  0  0  0  0  0  0  0  0  0
    3.4519   -2.2453    0.0000 C   0  0  0  0  0  0  0  0  0  0  0  0
    4.1664   -1.8328    0.0000 N   0  0  0  0  0  0  0  0  0  0  0  0
    4.8809   -2.2453    0.0000 C   0  0  0  0  0  0  0  0  0  0  0  0
    5.5953   -1.8328    0.0000 C   0  0  0  0  0  0  0  0  0  0  0  0
    6.3098   -2.2453    0.0000 C   0  0  0  0  0  0  0  0  0  0  0  0
    7.0243   -1.8328    0.0000 C   0  0  0  0  0  0  0  0  0  0  0  0
    3.4519   -3.0703    0.0000 O   0  0  0  0  0  0  0  0  0  0  0  0
  1  2  1  0  0  0  0
  2  3  1  0  0  0  0
  3  4  1  0  0  0  0
  4  5  1  0  0  0  0
  3  6  2  0  0  0  0
  7  1  2  0  0  0  0
  8  7  1  0  0  0  0
  8  9  1  0  0  0  0
  9 10  2  0  0  0  0
 10 11  1  0  0  0  0
 11 12  2  0  0  0  0
 12 13  1  0  0  0  0
 13  8  2  0  0  0  0
 14 13  1  0  0  0  0
  1 14  1  0  0  0  0
 14 15  1  0  0  0  0
 15 16  1  0  0  0  0
 16 17  1  0  0  0  0
 17 18  1  0  0  0  0
 18 19  1  0  0  0  0
 19 20  1  0  0  0  0
 15 21  2  0  0  0  0
M  END
> <ChemID>
100564

> <CAS>
17804-35-2

> <Original_SMILES>
CCCCNC(=O)[n]1c(NC(=O)OC)[n]c2ccccc12

> <preferred_name>
Benomyl

> <dsstox_substance_id>
DTXSID5023900

> <dsstox_compound_id>
DTXCID103900

> <qc_level>
DSSTox_Low

> <Canonical_QSARr>
CCCCNC(=O)N1C(NC(=O)OC)=NC2C=CC=CC1=2

> <InChI_Code_QSARr>
InChI=1S/C14H18N4O3/c1-3-4-9-15-13(19)18-11-8-6-5-7-10(11)16-12(18)17-14(20)21-2/h5-8H,3-4,9H2,1-2H3,(H,15,19)(H,16,17,20)

> <InChI Key_QSARr>
RIOXQFHNBCKOKP-UHFFFAOYSA-N

> <Salt_Solvent>


> <Salt_Solvent_ID>
0

> <MPID>
99825

> <KocRef>
Schuurmann-Main

> <LogKOC>
2.71

> <Tr_1_Tst_0>
0

$$$$
100566
  Mrv171c012251911022D          

 15 16  0  0  0  0            999 V2000
    2.1253   -0.8271    0.0000 C   0  0  0  0  0  0  0  0  0  0  0  0
    2.6103   -0.1596    0.0000 S   0  0  0  0  0  0  0  0  0  0  0  0
    3.3949   -0.4146    0.0000 C   0  0  0  0  0  0  0  0  0  0  0  0
    4.1094   -0.0021    0.0000 C   0  0  0  0  0  0  0  0  0  0  0  0
    4.8238   -0.4146    0.0000 C   0  0  0  0  0  0  0  0  0  0  0  0
    4.8238   -1.2396    0.0000 C   0  0  0  0  0  0  0  0  0  0  0  0
    4.1094   -1.6521    0.0000 C   0  0  0  0  0  0  0  0  0  0  0  0
    3.3949   -1.2396    0.0000 C   0  0  0  0  0  0  0  0  0  0  0  0
    2.6103   -1.4945    0.0000 N   0  0  0  0  0  0  0  0  0  0  0  0
    1.3003   -0.8271    0.0000 N   0  0  0  0  0  0  0  0  0  0  0  0
    0.8878   -0.1126    0.0000 C   0  0  0  0  0  0  0  0  0  0  0  0
    0.8878   -1.5416    0.0000 C   0  0  0  0  0  0  0  0  0  0  0  0
    0.0628   -1.5416    0.0000 N   0  0  0  0  0  0  0  0  0  0  0  0
   -0.3497   -2.2560    0.0000 C   0  0  0  0  0  0  0  0  0  0  0  0
    1.3003   -2.2560    0.0000 O   0  0  0  0  0  0  0  0  0  0  0  0
  2  1  1  0  0  0  0
  3  2  1  0  0  0  0
  3  4  1  0  0  0  0
  4  5  2  0  0  0  0
  5  6  1  0  0  0  0
  6  7  2  0  0  0  0
  7  8  1  0  0  0  0
  8  3  2  0  0  0  0
  9  8  1  0  0  0  0
  1  9  2  0  0  0  0
  1 10  1  0  0  0  0
 10 11  1  0  0  0  0
 10 12  1  0  0  0  0
 12 13  1  0  0  0  0
 13 14  1  0  0  0  0
 12 15  2  0  0  0  0
M  END
> <ChemID>
100566

> <CAS>
18691-97-9

> <Original_SMILES>
CNC(=O)N(C)c1[n]c2ccccc2[s]1

> <preferred_name>
Methabenzthiazuron

> <dsstox_substance_id>
DTXSID0037570

> <dsstox_compound_id>
DTXCID8017570

> <qc_level>
DSSTox_Low

> <Canonical_QSARr>
CNC(=O)N(C)C1=NC2C=CC=CC=2S1

> <InChI_Code_QSARr>
InChI=1S/C10H11N3OS/c1-11-9(14)13(2)10-12-7-5-3-4-6-8(7)15-10/h3-6H,1-2H3,(H,11,14)

> <InChI Key_QSARr>
RRVIAQKBTUQODI-UHFFFAOYSA-N

> <Salt_Solvent>


> <Salt_Solvent_ID>
0

> <MPID>
99826

> <KocRef>
Schuurmann-Main

> <LogKOC>
2.8

> <Tr_1_Tst_0>
1

$$$$
100567
  Mrv171c012251911022D          

 23 23  0  0  0  0            999 V2000
    2.2068   -2.2527    0.0000 C   0  0  0  0  0  0  0  0  0  0  0  0
    2.2068   -3.0777    0.0000 C   0  0  0  0  0  0  0  0  0  0  0  0
    2.9212   -3.4902    0.0000 C   0  0  0  0  0  0  0  0  0  0  0  0
    2.9212   -4.3152    0.0000 S   0  0  0  0  0  0  0  0  0  0  0  0
    2.9212   -5.1402    0.0000 N   0  0  0  0  0  0  0  0  0  0  0  0
    3.7462   -4.3152    0.0000 O   0  0  0  0  0  0  0  0  0  0  0  0
    2.0962   -4.3152    0.0000 O   0  0  0  0  0  0  0  0  0  0  0  0
    3.6357   -3.0777    0.0000 C   0  0  0  0  0  0  0  0  0  0  0  0
    3.6357   -2.2527    0.0000 C   0  0  0  0  0  0  0  0  0  0  0  0
    4.3502   -1.8402    0.0000 N   0  3  0  0  0  0  0  0  0  0  0  0
    4.3502   -1.0152    0.0000 O   0  0  0  0  0  0  0  0  0  0  0  0
    5.0647   -2.2527    0.0000 O   0  5  0  0  0  0  0  0  0  0  0  0
    2.9212   -1.8402    0.0000 C   0  0  0  0  0  0  0  0  0  0  0  0
    2.9212   -1.0152    0.0000 N   0  0  0  0  0  0  0  0  0  0  0  0
    2.2068   -0.6027    0.0000 C   0  0  0  0  0  0  0  0  0  0  0  0
    2.2068    0.2223    0.0000 C   0  0  0  0  0  0  0  0  0  0  0  0
    1.4923    0.6348    0.0000 C   0  0  0  0  0  0  0  0  0  0  0  0
    3.6357   -0.6027    0.0000 C   0  0  0  0  0  0  0  0  0  0  0  0
    3.6357    0.2223    0.0000 C   0  0  0  0  0  0  0  0  0  0  0  0
    4.3502    0.6348    0.0000 C   0  0  0  0  0  0  0  0  0  0  0  0
    1.4923   -1.8402    0.0000 N   0  3  0  0  0  0  0  0  0  0  0  0
    1.4923   -1.0152    0.0000 O   0  0  0  0  0  0  0  0  0  0  0  0
    0.7778   -2.2527    0.0000 O   0  5  0  0  0  0  0  0  0  0  0  0
  2  1  2  0  0  0  0
  3  2  1  0  0  0  0
  3  4  1  0  0  0  0
  4  5  1  0  0  0  0
  4  6  2  0  0  0  0
  4  7  2  0  0  0  0
  8  3  2  0  0  0  0
  9  8  1  0  0  0  0
  9 10  1  0  0  0  0
 10 11  2  0  0  0  0
 10 12  1  0  0  0  0
 13  9  2  0  0  0  0
  1 13  1  0  0  0  0
 13 14  1  0  0  0  0
 14 15  1  0  0  0  0
 15 16  1  0  0  0  0
 16 17  1  0  0  0  0
 14 18  1  0  0  0  0
 18 19  1  0  0  0  0
 19 20  1  0  0  0  0
  1 21  1  0  0  0  0
 21 22  2  0  0  0  0
 21 23  1  0  0  0  0
M  CHG  4  10   1  12  -1  21   1  23  -1
M  END
> <ChemID>
100567

> <CAS>
19044-88-3

> <Original_SMILES>
CCCN(CCC)c1c(cc(cc1[N+]([O-])=O)S(N)(=O)=O)[N+]([O-])=O

> <preferred_name>
Oryzalin

> <dsstox_substance_id>
DTXSID8024238

> <dsstox_compound_id>
DTXCID904238

> <qc_level>
DSSTox_Low

> <Canonical_QSARr>
CCCN(CCC)C1C(=CC(=CC=1[N+]([O-])=O)S(N)(=O)=O)[N+]([O-])=O

> <InChI_Code_QSARr>
InChI=1S/C12H18N4O6S/c1-3-5-14(6-4-2)12-10(15(17)18)7-9(23(13,21)22)8-11(12)16(19)20/h7-8H,3-6H2,1-2H3,(H2,13,21,22)

> <InChI Key_QSARr>
UNAHYJYOSSSJHH-UHFFFAOYSA-N

> <Salt_Solvent>


> <Salt_Solvent_ID>
0

> <MPID>
99827

> <KocRef>
Schuurmann-Main

> <LogKOC>
3.4

> <Tr_1_Tst_0>
1

$$$$
100568
  Mrv171c012251911022D          

 17 18  0  0  0  0            999 V2000
    4.0426   -0.3490    0.0000 O   0  0  0  0  0  0  0  0  0  0  0  0
    4.7570    0.0635    0.0000 C   0  0  0  0  0  0  0  0  0  0  0  0
    5.4715   -0.3490    0.0000 N   0  0  0  0  0  0  0  0  0  0  0  0
    5.4715   -1.1740    0.0000 C   0  0  0  0  0  0  0  0  0  0  0  0
    4.7570   -1.5865    0.0000 C   0  0  0  0  0  0  0  0  0  0  0  0
    4.7570   -2.4115    0.0000 C   0  0  0  0  0  0  0  0  0  0  0  0
    5.4715   -2.8240    0.0000 C   0  0  0  0  0  0  0  0  0  0  0  0
    6.1860   -2.4115    0.0000 C   0  0  0  0  0  0  0  0  0  0  0  0
    6.1860   -1.5865    0.0000 C   0  0  0  0  0  0  0  0  0  0  0  0
    4.7570    0.8885    0.0000 N   0  0  0  0  0  0  0  0  0  0  0  0
    4.0426    1.3010    0.0000 C   0  0  0  0  0  0  0  0  0  0  0  0
    4.1042    2.1237    0.0000 C   0  0  0  0  0  0  0  0  0  0  0  0
    3.4994    2.6849    0.0000 C   0  0  0  0  0  0  0  0  0  0  0  0
    2.6837    2.5619    0.0000 C   0  0  0  0  0  0  0  0  0  0  0  0
    2.2712    1.8475    0.0000 C   0  0  0  0  0  0  0  0  0  0  0  0
    2.5726    1.0795    0.0000 C   0  0  0  0  0  0  0  0  0  0  0  0
    3.3609    0.8363    0.0000 C   0  0  0  0  0  0  0  0  0  0  0  0
  1  2  2  0  0  0  0
  2  3  1  0  0  0  0
  3  4  1  0  0  0  0
  5  4  1  0  0  0  0
  6  5  2  0  0  0  0
  7  6  1  0  0  0  0
  8  7  2  0  0  0  0
  9  8  1  0  0  0  0
  4  9  2  0  0  0  0
  2 10  1  0  0  0  0
 10 11  1  0  0  0  0
 12 11  1  0  0  0  0
 13 12  1  0  0  0  0
 14 13  1  0  0  0  0
 15 14  1  0  0  0  0
 16 15  1  0  0  0  0
 17 16  1  0  0  0  0
 11 17  1  0  0  0  0
M  END
> <ChemID>
100568

> <CAS>
19095-79-5

> <Original_SMILES>
O=C(Nc1ccccc1)NC1CCCCCC1

> <preferred_name>
N-Cycloheptyl-N'-phenylurea

> <dsstox_substance_id>
DTXSID10172606

> <dsstox_compound_id>
DTXCID0095097

> <qc_level>
Public_Medium

> <Canonical_QSARr>
O=C(NC1C=CC=CC=1)NC1CCCCCC1

> <InChI_Code_QSARr>
InChI=1S/C14H20N2O/c17-14(16-13-10-6-3-7-11-13)15-12-8-4-1-2-5-9-12/h3,6-7,10-12H,1-2,4-5,8-9H2,(H2,15,16,17)

> <InChI Key_QSARr>
MMNBZHUPPBZRSD-UHFFFAOYSA-N

> <Salt_Solvent>


> <Salt_Solvent_ID>
0

> <MPID>
99828

> <KocRef>
Schuurmann-Main

> <LogKOC>
2.37

> <Tr_1_Tst_0>
1

$$$$
100569
  Mrv171c012251911022D          

 22 23  0  0  0  0            999 V2000
    2.9970   -1.8270    0.0000 N   0  0  0  0  0  0  0  0  0  0  0  0
    3.7816   -1.5721    0.0000 C   0  0  0  0  0  0  0  0  0  0  0  0
    4.3947   -2.1241    0.0000 C   0  0  0  0  0  0  0  0  0  0  0  0
    4.2232   -2.9311    0.0000 Cl  0  0  0  0  0  0  0  0  0  0  0  0
    5.1794   -1.8692    0.0000 C   0  0  0  0  0  0  0  0  0  0  0  0
    5.3509   -1.0622    0.0000 C   0  0  0  0  0  0  0  0  0  0  0  0
    6.1355   -0.8073    0.0000 Cl  0  0  0  0  0  0  0  0  0  0  0  0
    4.7378   -0.5102    0.0000 C   0  0  0  0  0  0  0  0  0  0  0  0
    4.9093    0.2968    0.0000 O   0  0  0  0  0  0  0  0  0  0  0  0
    5.6939    0.5517    0.0000 C   0  0  0  0  0  0  0  0  0  0  0  0
    5.8655    1.3587    0.0000 C   0  0  0  0  0  0  0  0  0  0  0  0
    6.3070   -0.0003    0.0000 C   0  0  0  0  0  0  0  0  0  0  0  0
    3.9532   -0.7651    0.0000 C   0  0  0  0  0  0  0  0  0  0  0  0
    2.3296   -1.3421    0.0000 C   0  0  0  0  0  0  0  0  0  0  0  0
    2.3296   -0.5171    0.0000 O   0  0  0  0  0  0  0  0  0  0  0  0
    1.6621   -1.8270    0.0000 O   0  0  0  0  0  0  0  0  0  0  0  0
    1.9171   -2.6116    0.0000 C   0  0  0  0  0  0  0  0  0  0  0  0
    1.4322   -3.2791    0.0000 C   0  0  0  0  0  0  0  0  0  0  0  0
    0.9472   -3.9465    0.0000 C   0  0  0  0  0  0  0  0  0  0  0  0
    0.7647   -2.7941    0.0000 C   0  0  0  0  0  0  0  0  0  0  0  0
    2.0996   -3.7640    0.0000 C   0  0  0  0  0  0  0  0  0  0  0  0
    2.7421   -2.6116    0.0000 N   0  0  0  0  0  0  0  0  0  0  0  0
  1  2  1  0  0  0  0
  3  2  2  0  0  0  0
  3  4  1  0  0  0  0
  5  3  1  0  0  0  0
  6  5  2  0  0  0  0
  6  7  1  0  0  0  0
  8  6  1  0  0  0  0
  8  9  1  0  0  0  0
  9 10  1  0  0  0  0
 10 11  1  0  0  0  0
 10 12  1  0  0  0  0
 13  8  2  0  0  0  0
  2 13  1  0  0  0  0
 14  1  1  0  0  0  0
 14 15  2  0  0  0  0
 16 14  1  0  0  0  0
 17 16  1  0  0  0  0
 17 18  1  0  0  0  0
 18 19  1  0  0  0  0
 18 20  1  0  0  0  0
 18 21  1  0  0  0  0
 22 17  2  0  0  0  0
  1 22  1  0  0  0  0
M  END
> <ChemID>
100569

> <CAS>
19666-30-9

> <Original_SMILES>
CC(C)Oc1cc(c(Cl)cc1Cl)N1N=C(OC1=O)C(C)(C)C

> <preferred_name>
Oxadiazon

> <dsstox_substance_id>
DTXSID3024239

> <dsstox_compound_id>
DTXCID304239

> <qc_level>
DSSTox_Low

> <Canonical_QSARr>
CC(C)OC1=CC(=C(Cl)C=C1Cl)N1N=C(OC1=O)C(C)(C)C

> <InChI_Code_QSARr>
InChI=1S/C15H18Cl2N2O3/c1-8(2)21-12-7-11(9(16)6-10(12)17)19-14(20)22-13(18-19)15(3,4)5/h6-8H,1-5H3

> <InChI Key_QSARr>
CHNUNORXWHYHNE-UHFFFAOYSA-N

> <Salt_Solvent>


> <Salt_Solvent_ID>
0

> <MPID>
99829

> <KocRef>
Schuurmann-Main

> <LogKOC>
3.51

> <Tr_1_Tst_0>
0

$$$$
100570
  Mrv171c012251911022D          

 15 15  0  0  0  0            999 V2000
    3.3257   -2.4754    0.0000 C   0  0  0  0  0  0  0  0  0  0  0  0
    2.6112   -2.0629    0.0000 N   0  0  0  0  0  0  0  0  0  0  0  0
    2.6112   -1.2379    0.0000 C   0  0  0  0  0  0  0  0  0  0  0  0
    3.3257   -0.8254    0.0000 C   0  0  0  0  0  0  0  0  0  0  0  0
    3.3257   -0.0004    0.0000 C   0  0  0  0  0  0  0  0  0  0  0  0
    2.6112    0.4121    0.0000 C   0  0  0  0  0  0  0  0  0  0  0  0
    2.6112    1.2371    0.0000 O   0  0  0  0  0  0  0  0  0  0  0  0
    1.8967    1.6496    0.0000 C   0  0  0  0  0  0  0  0  0  0  0  0
    1.8967   -0.0004    0.0000 C   0  0  0  0  0  0  0  0  0  0  0  0
    1.1822    0.4121    0.0000 Cl  0  0  0  0  0  0  0  0  0  0  0  0
    1.8967   -0.8254    0.0000 C   0  0  0  0  0  0  0  0  0  0  0  0
    3.3257   -3.3004    0.0000 N   0  0  0  0  0  0  0  0  0  0  0  0
    4.0401   -3.7129    0.0000 C   0  0  0  0  0  0  0  0  0  0  0  0
    2.6112   -3.7129    0.0000 C   0  0  0  0  0  0  0  0  0  0  0  0
    4.0401   -2.0629    0.0000 O   0  0  0  0  0  0  0  0  0  0  0  0
  1  2  1  0  0  0  0
  2  3  1  0  0  0  0
  4  3  1  0  0  0  0
  5  4  2  0  0  0  0
  6  5  1  0  0  0  0
  6  7  1  0  0  0  0
  7  8  1  0  0  0  0
  9  6  2  0  0  0  0
  9 10  1  0  0  0  0
 11  9  1  0  0  0  0
  3 11  2  0  0  0  0
  1 12  1  0  0  0  0
 12 13  1  0  0  0  0
 12 14  1  0  0  0  0
  1 15  2  0  0  0  0
M  END
> <ChemID>
100570

> <CAS>
19937-59-8

> <Original_SMILES>
COc1ccc(cc1Cl)NC(=O)N(C)C

> <preferred_name>
Metoxuron

> <dsstox_substance_id>
DTXSID1042158

> <dsstox_compound_id>
DTXCID9022158

> <qc_level>
DSSTox_Low

> <Canonical_QSARr>
COC1C=CC(=CC=1Cl)NC(=O)N(C)C

> <InChI_Code_QSARr>
InChI=1S/C10H13ClN2O2/c1-13(2)10(14)12-7-4-5-9(15-3)8(11)6-7/h4-6H,1-3H3,(H,12,14)

> <InChI Key_QSARr>
DSRNRYQBBJQVCW-UHFFFAOYSA-N

> <Salt_Solvent>


> <Salt_Solvent_ID>
0

> <MPID>
99830

> <KocRef>
Schuurmann-Main

> <LogKOC>
1.72

> <Tr_1_Tst_0>
1

$$$$
100571
  Mrv171c012251911022D          

 16 17  0  0  0  0            999 V2000
    3.4762   -2.4146    0.0000 C   0  0  0  0  0  0  0  0  0  0  0  0
    4.2608   -2.1597    0.0000 O   0  0  0  0  0  0  0  0  0  0  0  0
    2.8088   -1.9297    0.0000 N   0  0  0  0  0  0  0  0  0  0  0  0
    2.8088   -1.1047    0.0000 C   0  0  0  0  0  0  0  0  0  0  0  0
    3.5232   -0.6922    0.0000 C   0  0  0  0  0  0  0  0  0  0  0  0
    3.5232    0.1328    0.0000 C   0  0  0  0  0  0  0  0  0  0  0  0
    2.8088    0.5453    0.0000 C   0  0  0  0  0  0  0  0  0  0  0  0
    2.8088    1.3703    0.0000 Cl  0  0  0  0  0  0  0  0  0  0  0  0
    2.0943    0.1328    0.0000 C   0  0  0  0  0  0  0  0  0  0  0  0
    1.3798    0.5453    0.0000 Cl  0  0  0  0  0  0  0  0  0  0  0  0
    2.0943   -0.6922    0.0000 C   0  0  0  0  0  0  0  0  0  0  0  0
    2.1413   -2.4146    0.0000 O   0  0  0  0  0  0  0  0  0  0  0  0
    2.3963   -3.1993    0.0000 C   0  0  0  0  0  0  0  0  0  0  0  0
    1.9113   -3.8667    0.0000 O   0  0  0  0  0  0  0  0  0  0  0  0
    3.2213   -3.1993    0.0000 N   0  0  0  0  0  0  0  0  0  0  0  0
    3.7062   -3.8667    0.0000 C   0  0  0  0  0  0  0  0  0  0  0  0
  1  2  2  0  0  0  0
  3  1  1  0  0  0  0
  3  4  1  0  0  0  0
  5  4  2  0  0  0  0
  6  5  1  0  0  0  0
  7  6  2  0  0  0  0
  7  8  1  0  0  0  0
  9  7  1  0  0  0  0
  9 10  1  0  0  0  0
 11  9  2  0  0  0  0
  4 11  1  0  0  0  0
 12  3  1  0  0  0  0
 13 12  1  0  0  0  0
 13 14  2  0  0  0  0
 15 13  1  0  0  0  0
  1 15  1  0  0  0  0
 15 16  1  0  0  0  0
M  END
> <ChemID>
100571

> <CAS>
20354-26-1

> <Original_SMILES>
CN1C(=O)N(OC1=O)c1cc(Cl)c(Cl)cc1

> <preferred_name>
Methazole

> <dsstox_substance_id>
DTXSID1040293

> <dsstox_compound_id>
DTXCID9020293

> <qc_level>
DSSTox_Low

> <Canonical_QSARr>
CN1C(=O)N(OC1=O)C1C=C(Cl)C(Cl)=CC=1

> <InChI_Code_QSARr>
InChI=1S/C9H6Cl2N2O3/c1-12-8(14)13(16-9(12)15)5-2-3-6(10)7(11)4-5/h2-4H,1H3

> <InChI Key_QSARr>
LRUUNMYPIBZBQH-UHFFFAOYSA-N

> <Salt_Solvent>


> <Salt_Solvent_ID>
0

> <MPID>
99831

> <KocRef>
Schuurmann-Main

> <LogKOC>
3.48

> <Tr_1_Tst_0>
1

$$$$
100572
  Mrv171c012251911022D          

 14 14  0  0  0  0            999 V2000
    4.4058    1.2080    0.0000 Cl  0  0  0  0  0  0  0  0  0  0  0  0
    3.6914    0.7955    0.0000 C   0  0  0  0  0  0  0  0  0  0  0  0
    2.9769    1.2080    0.0000 C   0  0  0  0  0  0  0  0  0  0  0  0
    2.9769    2.0330    0.0000 O   0  0  0  0  0  0  0  0  0  0  0  0
    2.2624    2.4455    0.0000 C   0  0  0  0  0  0  0  0  0  0  0  0
    2.2624    0.7955    0.0000 C   0  0  0  0  0  0  0  0  0  0  0  0
    2.2624   -0.0295    0.0000 C   0  0  0  0  0  0  0  0  0  0  0  0
    2.9769   -0.4420    0.0000 C   0  0  0  0  0  0  0  0  0  0  0  0
    2.9769   -1.2670    0.0000 N   0  0  0  0  0  0  0  0  0  0  0  0
    3.6914   -1.6795    0.0000 C   0  0  0  0  0  0  0  0  0  0  0  0
    3.6914   -2.5045    0.0000 N   0  0  0  0  0  0  0  0  0  0  0  0
    4.4058   -2.9170    0.0000 C   0  0  0  0  0  0  0  0  0  0  0  0
    4.4058   -1.2670    0.0000 O   0  0  0  0  0  0  0  0  0  0  0  0
    3.6914   -0.0295    0.0000 C   0  0  0  0  0  0  0  0  0  0  0  0
  1  2  1  0  0  0  0
  3  2  2  0  0  0  0
  3  4  1  0  0  0  0
  4  5  1  0  0  0  0
  6  3  1  0  0  0  0
  7  6  2  0  0  0  0
  8  7  1  0  0  0  0
  8  9  1  0  0  0  0
  9 10  1  0  0  0  0
 10 11  1  0  0  0  0
 11 12  1  0  0  0  0
 10 13  2  0  0  0  0
 14  8  2  0  0  0  0
  2 14  1  0  0  0  0
M  END
> <ChemID>
100572

> <CAS>
20782-57-4

> <Original_SMILES>
CNC(=O)Nc1cc(Cl)c(cc1)OC

> <preferred_name>
Urea, N-(3-chloro-4-methoxyphenyl)-N'-methyl-

> <dsstox_substance_id>
DTXSID20174873

> <dsstox_compound_id>
DTXCID6097364

> <qc_level>
Public_Medium

> <Canonical_QSARr>
CNC(=O)NC1=CC(Cl)=C(C=C1)OC

> <InChI_Code_QSARr>
InChI=1S/C9H11ClN2O2/c1-11-9(13)12-6-3-4-8(14-2)7(10)5-6/h3-5H,1-2H3,(H2,11,12,13)

> <InChI Key_QSARr>
YWHRNWZTCCNWSH-UHFFFAOYSA-N

> <Salt_Solvent>


> <Salt_Solvent_ID>
0

> <MPID>
99832

> <KocRef>
SRC 1992 Polar

> <LogKOC>
1.84

> <Tr_1_Tst_0>
1

$$$$
100573
  Mrv171c012251911022D          

 12 12  0  0  0  0            999 V2000
    2.3645   -2.0625    0.0000 Cl  0  0  0  0  0  0  0  0  0  0  0  0
    3.0789   -1.6500    0.0000 C   0  0  0  0  0  0  0  0  0  0  0  0
    3.7934   -2.0625    0.0000 C   0  0  0  0  0  0  0  0  0  0  0  0
    4.5079   -1.6500    0.0000 C   0  0  0  0  0  0  0  0  0  0  0  0
    4.5079   -0.8250    0.0000 C   0  0  0  0  0  0  0  0  0  0  0  0
    3.7934   -0.4125    0.0000 C   0  0  0  0  0  0  0  0  0  0  0  0
    3.7934    0.4125    0.0000 N   0  0  0  0  0  0  0  0  0  0  0  0
    3.0789    0.8250    0.0000 C   0  0  0  0  0  0  0  0  0  0  0  0
    3.0789    1.6500    0.0000 N   0  0  0  0  0  0  0  0  0  0  0  0
    2.3645    2.0625    0.0000 C   0  0  0  0  0  0  0  0  0  0  0  0
    2.3645    0.4125    0.0000 O   0  0  0  0  0  0  0  0  0  0  0  0
    3.0789   -0.8250    0.0000 C   0  0  0  0  0  0  0  0  0  0  0  0
  1  2  1  0  0  0  0
  3  2  2  0  0  0  0
  4  3  1  0  0  0  0
  5  4  2  0  0  0  0
  6  5  1  0  0  0  0
  6  7  1  0  0  0  0
  7  8  1  0  0  0  0
  8  9  1  0  0  0  0
  9 10  1  0  0  0  0
  8 11  2  0  0  0  0
 12  6  2  0  0  0  0
  2 12  1  0  0  0  0
M  END
> <ChemID>
100573

> <CAS>
20940-42-5

> <Original_SMILES>
CNC(=O)Nc1cc(Cl)ccc1

> <preferred_name>
N-(3-chlorophenyl)-N'-methylurea

> <dsstox_substance_id>
DTXSID70175113

> <dsstox_compound_id>
DTXCID1097604

> <qc_level>
Public_Medium

> <Canonical_QSARr>
CNC(=O)NC1=CC(Cl)=CC=C1

> <InChI_Code_QSARr>
InChI=1S/C8H9ClN2O/c1-10-8(12)11-7-4-2-3-6(9)5-7/h2-5H,1H3,(H2,10,11,12)

> <InChI Key_QSARr>
MIRQKFUBAFNLEI-UHFFFAOYSA-N

> <Salt_Solvent>


> <Salt_Solvent_ID>
0

> <MPID>
99833

> <KocRef>
Schuurmann-Main

> <LogKOC>
1.93

> <Tr_1_Tst_0>
0

$$$$
100574
  Mrv171c012251911022D          

 14 14  0  0  0  0            999 V2000
    2.6007   -0.6030    0.0000 N   0  0  0  0  0  0  0  0  0  0  0  0
    3.3152   -0.1905    0.0000 N   0  0  0  0  0  0  0  0  0  0  0  0
    1.8862   -0.1905    0.0000 C   0  0  0  0  0  0  0  0  0  0  0  0
    1.8862    0.6345    0.0000 S   0  0  0  0  0  0  0  0  0  0  0  0
    1.1718    1.0470    0.0000 C   0  0  0  0  0  0  0  0  0  0  0  0
    1.1718   -0.6030    0.0000 N   0  0  0  0  0  0  0  0  0  0  0  0
    1.1718   -1.4280    0.0000 N   0  0  0  0  0  0  0  0  0  0  0  0
    1.8862   -1.8405    0.0000 C   0  0  0  0  0  0  0  0  0  0  0  0
    1.8862   -2.6655    0.0000 C   0  0  0  0  0  0  0  0  0  0  0  0
    1.8862   -3.4905    0.0000 C   0  0  0  0  0  0  0  0  0  0  0  0
    1.0612   -2.6655    0.0000 C   0  0  0  0  0  0  0  0  0  0  0  0
    2.7112   -2.6655    0.0000 C   0  0  0  0  0  0  0  0  0  0  0  0
    2.6007   -1.4280    0.0000 C   0  0  0  0  0  0  0  0  0  0  0  0
    3.3152   -1.8405    0.0000 O   0  0  0  0  0  0  0  0  0  0  0  0
  1  2  1  0  0  0  0
  3  1  1  0  0  0  0
  3  4  1  0  0  0  0
  4  5  1  0  0  0  0
  6  3  2  0  0  0  0
  7  6  1  0  0  0  0
  8  7  2  0  0  0  0
  8  9  1  0  0  0  0
  9 10  1  0  0  0  0
  9 11  1  0  0  0  0
  9 12  1  0  0  0  0
 13  8  1  0  0  0  0
  1 13  1  0  0  0  0
 13 14  2  0  0  0  0
M  END
> <ChemID>
100574

> <CAS>
21087-64-9

> <Original_SMILES>
CSC1=NN=C(C(=O)N1N)C(C)(C)C

> <preferred_name>
Metribuzin

> <dsstox_substance_id>
DTXSID6024204

> <dsstox_compound_id>
DTXCID404204

> <qc_level>
DSSTox_Low

> <Canonical_QSARr>
CSC1=NN=C(C(=O)N1N)C(C)(C)C

> <InChI_Code_QSARr>
InChI=1S/C8H14N4OS/c1-8(2,3)5-6(13)12(9)7(14-4)11-10-5/h9H2,1-4H3

> <InChI Key_QSARr>
FOXFZRUHNHCZPX-UHFFFAOYSA-N

> <Salt_Solvent>


> <Salt_Solvent_ID>
0

> <MPID>
99834

> <KocRef>
Schuurmann-Main

> <LogKOC>
1.71

> <Tr_1_Tst_0>
1

$$$$
100575
  Mrv171c012251911022D          

 20 21  0  0  0  0            999 V2000
    3.5825   -2.0683    0.0000 P   0  0  0  0  0  0  0  0  0  0  0  0
    2.7575   -2.0683    0.0000 O   0  0  0  0  0  0  0  0  0  0  0  0
    2.3450   -2.7828    0.0000 C   0  0  0  0  0  0  0  0  0  0  0  0
    3.5825   -2.8933    0.0000 C   0  0  0  0  0  0  0  0  0  0  0  0
    2.8680   -3.3058    0.0000 C   0  0  0  0  0  0  0  0  0  0  0  0
    2.8680   -4.1308    0.0000 C   0  0  0  0  0  0  0  0  0  0  0  0
    3.5825   -4.5433    0.0000 C   0  0  0  0  0  0  0  0  0  0  0  0
    4.2970   -4.1308    0.0000 C   0  0  0  0  0  0  0  0  0  0  0  0
    4.2970   -3.3058    0.0000 C   0  0  0  0  0  0  0  0  0  0  0  0
    4.4075   -2.0683    0.0000 S   0  0  0  0  0  0  0  0  0  0  0  0
    3.5825   -1.2433    0.0000 O   0  0  0  0  0  0  0  0  0  0  0  0
    2.8680   -0.8308    0.0000 C   0  0  0  0  0  0  0  0  0  0  0  0
    2.8680   -0.0058    0.0000 C   0  0  0  0  0  0  0  0  0  0  0  0
    3.5825    0.4067    0.0000 Cl  0  0  0  0  0  0  0  0  0  0  0  0
    2.1536    0.4067    0.0000 C   0  0  0  0  0  0  0  0  0  0  0  0
    1.4391   -0.0058    0.0000 C   0  0  0  0  0  0  0  0  0  0  0  0
    0.7246    0.4067    0.0000 Br  0  0  0  0  0  0  0  0  0  0  0  0
    1.4391   -0.8308    0.0000 C   0  0  0  0  0  0  0  0  0  0  0  0
    0.7246   -1.2433    0.0000 Cl  0  0  0  0  0  0  0  0  0  0  0  0
    2.1536   -1.2433    0.0000 C   0  0  0  0  0  0  0  0  0  0  0  0
  1  2  1  0  0  0  0
  2  3  1  0  0  0  0
  1  4  1  0  0  0  0
  5  4  2  0  0  0  0
  6  5  1  0  0  0  0
  7  6  2  0  0  0  0
  8  7  1  0  0  0  0
  9  8  2  0  0  0  0
  4  9  1  0  0  0  0
  1 10  2  0  0  0  0
  1 11  1  0  0  0  0
 11 12  1  0  0  0  0
 13 12  1  0  0  0  0
 13 14  1  0  0  0  0
 15 13  2  0  0  0  0
 16 15  1  0  0  0  0
 16 17  1  0  0  0  0
 18 16  2  0  0  0  0
 18 19  1  0  0  0  0
 20 18  1  0  0  0  0
 12 20  2  0  0  0  0
M  END
> <ChemID>
100575

> <CAS>
21609-90-5

> <Original_SMILES>
COP(=S)(Oc1cc(Cl)c(Br)cc1Cl)c1ccccc1

> <preferred_name>
Leptophos

> <dsstox_substance_id>
DTXSID3040279

> <dsstox_compound_id>
DTXCID1020279

> <qc_level>
DSSTox_Low

> <Canonical_QSARr>
COP(=S)(OC1=CC(Cl)=C(Br)C=C1Cl)C1C=CC=CC=1

> <InChI_Code_QSARr>
InChI=1S/C13H10BrCl2O2PS/c1-17-19(20,9-5-3-2-4-6-9)18-13-8-11(15)10(14)7-12(13)16/h2-8H,1H3

> <InChI Key_QSARr>
CVRALZAYCYJELZ-UHFFFAOYSA-N

> <Salt_Solvent>


> <Salt_Solvent_ID>
0

> <MPID>
99835

> <KocRef>
Schuurmann-Main

> <LogKOC>
4.5

> <Tr_1_Tst_0>
1

$$$$
100576
  Mrv171c012251911022D          

 16 16  0  0  0  0            999 V2000
    3.5819   -1.2985    0.0000 C   0  0  0  0  0  0  0  0  0  0  0  0
    4.2964   -1.7110    0.0000 N   0  0  0  0  0  0  0  0  0  0  0  0
    5.0108   -1.2985    0.0000 C   0  0  0  0  0  0  0  0  0  0  0  0
    4.5983   -0.5840    0.0000 C   0  0  0  0  0  0  0  0  0  0  0  0
    5.4233   -2.0130    0.0000 C   0  0  0  0  0  0  0  0  0  0  0  0
    5.7253   -0.8860    0.0000 C   0  0  0  0  0  0  0  0  0  0  0  0
    6.4398   -0.4735    0.0000 N   0  0  0  0  0  0  0  0  0  0  0  0
    3.5819   -0.4735    0.0000 N   0  0  0  0  0  0  0  0  0  0  0  0
    2.8674   -0.0610    0.0000 C   0  0  0  0  0  0  0  0  0  0  0  0
    2.8674    0.7640    0.0000 Cl  0  0  0  0  0  0  0  0  0  0  0  0
    2.1529   -0.4735    0.0000 N   0  0  0  0  0  0  0  0  0  0  0  0
    2.1529   -1.2985    0.0000 C   0  0  0  0  0  0  0  0  0  0  0  0
    1.4385   -1.7110    0.0000 N   0  0  0  0  0  0  0  0  0  0  0  0
    0.7240   -1.2985    0.0000 C   0  0  0  0  0  0  0  0  0  0  0  0
    0.0095   -1.7110    0.0000 C   0  0  0  0  0  0  0  0  0  0  0  0
    2.8674   -1.7110    0.0000 N   0  0  0  0  0  0  0  0  0  0  0  0
  1  2  1  0  0  0  0
  2  3  1  0  0  0  0
  3  4  1  0  0  0  0
  3  5  1  0  0  0  0
  3  6  1  0  0  0  0
  6  7  3  0  0  0  0
  8  1  2  0  0  0  0
  9  8  1  0  0  0  0
  9 10  1  0  0  0  0
 11  9  2  0  0  0  0
 12 11  1  0  0  0  0
 12 13  1  0  0  0  0
 13 14  1  0  0  0  0
 14 15  1  0  0  0  0
 16 12  2  0  0  0  0
  1 16  1  0  0  0  0
M  END
> <ChemID>
100576

> <CAS>
21725-46-2

> <Original_SMILES>
CCNc1[n]c(Cl)[n]c(NC(C)(C)C#N)[n]1

> <preferred_name>
Cyanazine

> <dsstox_substance_id>
DTXSID1023990

> <dsstox_compound_id>
DTXCID803990

> <qc_level>
DSSTox_Low

> <Canonical_QSARr>
CCNC1N=C(Cl)N=C(NC(C)(C)C#N)N=1

> <InChI_Code_QSARr>
InChI=1S/C9H13ClN6/c1-4-12-7-13-6(10)14-8(15-7)16-9(2,3)5-11/h4H2,1-3H3,(H2,12,13,14,15,16)

> <InChI Key_QSARr>
MZZBPDKVEFVLFF-UHFFFAOYSA-N

> <Salt_Solvent>


> <Salt_Solvent_ID>
0

> <MPID>
99836

> <KocRef>
Schuurmann-Main

> <LogKOC>
2.28

> <Tr_1_Tst_0>
1

$$$$
100577
  Mrv171c012251911022D          

 13 13  0  0  0  0            999 V2000
    4.9475   -1.6500    0.0000 Cl  0  0  0  0  0  0  0  0  0  0  0  0
    4.2330   -1.2375    0.0000 C   0  0  0  0  0  0  0  0  0  0  0  0
    4.2330   -0.4125    0.0000 C   0  0  0  0  0  0  0  0  0  0  0  0
    3.5185    0.0000    0.0000 C   0  0  0  0  0  0  0  0  0  0  0  0
    3.5185    0.8250    0.0000 N   0  0  0  0  0  0  0  0  0  0  0  0
    2.8041    1.2375    0.0000 C   0  0  0  0  0  0  0  0  0  0  0  0
    2.8041    2.0625    0.0000 N   0  0  0  0  0  0  0  0  0  0  0  0
    2.0896    2.4750    0.0000 C   0  0  0  0  0  0  0  0  0  0  0  0
    2.0896    0.8250    0.0000 O   0  0  0  0  0  0  0  0  0  0  0  0
    2.8041   -0.4125    0.0000 C   0  0  0  0  0  0  0  0  0  0  0  0
    2.8041   -1.2375    0.0000 C   0  0  0  0  0  0  0  0  0  0  0  0
    3.5185   -1.6500    0.0000 C   0  0  0  0  0  0  0  0  0  0  0  0
    3.5185   -2.4750    0.0000 C   0  0  0  0  0  0  0  0  0  0  0  0
  1  2  1  0  0  0  0
  3  2  1  0  0  0  0
  4  3  2  0  0  0  0
  4  5  1  0  0  0  0
  5  6  1  0  0  0  0
  6  7  1  0  0  0  0
  7  8  1  0  0  0  0
  6  9  2  0  0  0  0
 10  4  1  0  0  0  0
 11 10  2  0  0  0  0
 12 11  1  0  0  0  0
  2 12  2  0  0  0  0
 12 13  1  0  0  0  0
M  END
> <ChemID>
100577

> <CAS>
22175-22-0

> <Original_SMILES>
Cc1ccc(cc1Cl)NC(=O)NC

> <preferred_name>
N-(3-chloro-4-methylphenyl)-N'-methylurea

> <dsstox_substance_id>
DTXSID20176711

> <dsstox_compound_id>
DTXCID3099202

> <qc_level>
Public_Medium

> <Canonical_QSARr>
CC1C=CC(=CC=1Cl)NC(=O)NC

> <InChI_Code_QSARr>
InChI=1S/C9H11ClN2O/c1-6-3-4-7(5-8(6)10)12-9(13)11-2/h3-5H,1-2H3,(H2,11,12,13)

> <InChI Key_QSARr>
GUMFWXBSFOHZDC-UHFFFAOYSA-N

> <Salt_Solvent>


> <Salt_Solvent_ID>
0

> <MPID>
99837

> <KocRef>
Schuurmann-Main

> <LogKOC>
2.1

> <Tr_1_Tst_0>
0

$$$$
100578
  Mrv171c012251911022D          

 19 19  0  0  0  0            999 V2000
    2.9069   -3.8517    0.0000 P   0  0  0  0  0  0  0  0  0  0  0  0
    2.1924   -4.2642    0.0000 O   0  0  0  0  0  0  0  0  0  0  0  0
    2.1924   -5.0892    0.0000 C   0  0  0  0  0  0  0  0  0  0  0  0
    1.4779   -5.5017    0.0000 C   0  0  0  0  0  0  0  0  0  0  0  0
    3.3194   -4.5661    0.0000 O   0  0  0  0  0  0  0  0  0  0  0  0
    3.6214   -3.4392    0.0000 O   0  0  0  0  0  0  0  0  0  0  0  0
    3.6214   -2.6142    0.0000 C   0  0  0  0  0  0  0  0  0  0  0  0
    4.3358   -2.2017    0.0000 C   0  0  0  0  0  0  0  0  0  0  0  0
    4.3358   -1.3767    0.0000 C   0  0  0  0  0  0  0  0  0  0  0  0
    3.6214   -0.9642    0.0000 C   0  0  0  0  0  0  0  0  0  0  0  0
    3.6214   -0.1392    0.0000 S   0  0  0  0  0  0  0  0  0  0  0  0
    2.9069    0.2733    0.0000 C   0  0  0  0  0  0  0  0  0  0  0  0
    2.9069   -1.3767    0.0000 C   0  0  0  0  0  0  0  0  0  0  0  0
    2.1924   -0.9642    0.0000 C   0  0  0  0  0  0  0  0  0  0  0  0
    2.9069   -2.2017    0.0000 C   0  0  0  0  0  0  0  0  0  0  0  0
    2.4944   -3.1372    0.0000 N   0  0  0  0  0  0  0  0  0  0  0  0
    1.6694   -3.1372    0.0000 C   0  0  0  0  0  0  0  0  0  0  0  0
    1.2569   -2.4227    0.0000 C   0  0  0  0  0  0  0  0  0  0  0  0
    1.2569   -3.8517    0.0000 C   0  0  0  0  0  0  0  0  0  0  0  0
  1  2  1  0  0  0  0
  2  3  1  0  0  0  0
  3  4  1  0  0  0  0
  1  5  2  0  0  0  0
  1  6  1  0  0  0  0
  6  7  1  0  0  0  0
  8  7  2  0  0  0  0
  9  8  1  0  0  0  0
 10  9  2  0  0  0  0
 10 11  1  0  0  0  0
 11 12  1  0  0  0  0
 13 10  1  0  0  0  0
 13 14  1  0  0  0  0
 15 13  2  0  0  0  0
  7 15  1  0  0  0  0
  1 16  1  0  0  0  0
 16 17  1  0  0  0  0
 17 18  1  0  0  0  0
 17 19  1  0  0  0  0
M  END
> <ChemID>
100578

> <CAS>
22224-92-6

> <Original_SMILES>
Cc1cc(ccc1SC)OP(=O)(NC(C)C)OCC

> <preferred_name>
Fenamiphos

> <dsstox_substance_id>
DTXSID3024102

> <dsstox_compound_id>
DTXCID404102

> <qc_level>
DSSTox_Low

> <Canonical_QSARr>
CC1=CC(=CC=C1SC)OP(=O)(NC(C)C)OCC

> <InChI_Code_QSARr>
InChI=1S/C13H22NO3PS/c1-6-16-18(15,14-10(2)3)17-12-7-8-13(19-5)11(4)9-12/h7-10H,6H2,1-5H3,(H,14,15)

> <InChI Key_QSARr>
ZCJPOPBZHLUFHF-UHFFFAOYSA-N

> <Salt_Solvent>


> <Salt_Solvent_ID>
0

> <MPID>
99838

> <KocRef>
Schuurmann-Main

> <LogKOC>
2.51

> <Tr_1_Tst_0>
1

$$$$
100580
  Mrv171c012251911022D          

 16 17  0  0  0  0            999 V2000
    0.6888   -1.6016    0.0000 O   0  0  0  0  0  0  0  0  0  0  0  0
    1.4734   -1.8565    0.0000 C   0  0  0  0  0  0  0  0  0  0  0  0
    2.1879   -1.4440    0.0000 C   0  0  0  0  0  0  0  0  0  0  0  0
    2.1879   -0.6190    0.0000 O   0  0  0  0  0  0  0  0  0  0  0  0
    2.9023   -0.2065    0.0000 C   0  0  0  0  0  0  0  0  0  0  0  0
    2.9023    0.6185    0.0000 N   0  0  0  0  0  0  0  0  0  0  0  0
    3.6168    1.0310    0.0000 C   0  0  0  0  0  0  0  0  0  0  0  0
    3.6168   -0.6190    0.0000 O   0  0  0  0  0  0  0  0  0  0  0  0
    2.9023   -1.8565    0.0000 C   0  0  0  0  0  0  0  0  0  0  0  0
    2.9023   -2.6815    0.0000 C   0  0  0  0  0  0  0  0  0  0  0  0
    2.1879   -3.0940    0.0000 C   0  0  0  0  0  0  0  0  0  0  0  0
    1.4734   -2.6815    0.0000 C   0  0  0  0  0  0  0  0  0  0  0  0
    0.6888   -2.9365    0.0000 O   0  0  0  0  0  0  0  0  0  0  0  0
    0.2039   -2.2690    0.0000 C   0  0  0  0  0  0  0  0  0  0  0  0
   -0.5149   -2.6740    0.0000 C   0  0  0  0  0  0  0  0  0  0  0  0
   -0.5149   -1.8640    0.0000 C   0  0  0  0  0  0  0  0  0  0  0  0
  2  1  1  0  0  0  0
  2  3  1  0  0  0  0
  3  4  1  0  0  0  0
  4  5  1  0  0  0  0
  5  6  1  0  0  0  0
  6  7  1  0  0  0  0
  5  8  2  0  0  0  0
  3  9  2  0  0  0  0
  9 10  1  0  0  0  0
 10 11  2  0  0  0  0
 11 12  1  0  0  0  0
 12  2  2  0  0  0  0
 13 12  1  0  0  0  0
 14 13  1  0  0  0  0
  1 14  1  0  0  0  0
 14 15  1  0  0  0  0
 14 16  1  0  0  0  0
M  END
> <ChemID>
100580

> <CAS>
22781-23-3

> <Original_SMILES>
CNC(=O)Oc1cccc2OC(C)(C)Oc21

> <preferred_name>
Bendiocarb

> <dsstox_substance_id>
DTXSID9032327

> <dsstox_compound_id>
DTXCID7012327

> <qc_level>
DSSTox_Low

> <Canonical_QSARr>
CC1(C)OC2C=CC=C(OC(=O)NC)C=2O1

> <InChI_Code_QSARr>
InChI=1S/C11H13NO4/c1-11(2)15-8-6-4-5-7(9(8)16-11)14-10(13)12-3/h4-6H,1-3H3,(H,12,13)

> <InChI Key_QSARr>
XEGGRYVFLWGFHI-UHFFFAOYSA-N

> <Salt_Solvent>


> <Salt_Solvent_ID>
0

> <MPID>
99840

> <KocRef>
Schuurmann-Main

> <LogKOC>
2.75

> <Tr_1_Tst_0>
1

$$$$
100581
  Mrv171c012251911022D          

 17 17  0  0  0  0            999 V2000
    2.8228   -1.4640    0.0000 N   0  0  0  0  0  0  0  0  0  0  0  0
    2.1083   -1.0515    0.0000 C   0  0  0  0  0  0  0  0  0  0  0  0
    2.1083   -0.2265    0.0000 N   0  0  0  0  0  0  0  0  0  0  0  0
    1.3938    0.1860    0.0000 C   0  0  0  0  0  0  0  0  0  0  0  0
    2.8228    0.1860    0.0000 C   0  0  0  0  0  0  0  0  0  0  0  0
    1.3938   -1.4640    0.0000 N   0  0  0  0  0  0  0  0  0  0  0  0
    1.3938   -2.2890    0.0000 C   0  0  0  0  0  0  0  0  0  0  0  0
    0.6793   -2.7015    0.0000 C   0  0  0  0  0  0  0  0  0  0  0  0
    2.1083   -2.7015    0.0000 C   0  0  0  0  0  0  0  0  0  0  0  0
    2.1083   -3.5265    0.0000 C   0  0  0  0  0  0  0  0  0  0  0  0
    2.8228   -2.2890    0.0000 C   0  0  0  0  0  0  0  0  0  0  0  0
    3.5372   -2.7015    0.0000 O   0  0  0  0  0  0  0  0  0  0  0  0
    4.2517   -2.2890    0.0000 C   0  0  0  0  0  0  0  0  0  0  0  0
    4.2517   -1.4640    0.0000 O   0  0  0  0  0  0  0  0  0  0  0  0
    4.9662   -2.7015    0.0000 N   0  0  0  0  0  0  0  0  0  0  0  0
    5.6806   -2.2890    0.0000 C   0  0  0  0  0  0  0  0  0  0  0  0
    4.9662   -3.5265    0.0000 C   0  0  0  0  0  0  0  0  0  0  0  0
  2  1  2  0  0  0  0
  2  3  1  0  0  0  0
  3  4  1  0  0  0  0
  3  5  1  0  0  0  0
  6  2  1  0  0  0  0
  7  6  2  0  0  0  0
  7  8  1  0  0  0  0
  9  7  1  0  0  0  0
  9 10  1  0  0  0  0
 11  9  2  0  0  0  0
  1 11  1  0  0  0  0
 11 12  1  0  0  0  0
 12 13  1  0  0  0  0
 13 14  2  0  0  0  0
 13 15  1  0  0  0  0
 15 16  1  0  0  0  0
 15 17  1  0  0  0  0
M  END
> <ChemID>
100581

> <CAS>
23103-98-2

> <Original_SMILES>
Cc1[n]c([n]c(OC(=O)N(C)C)c1C)N(C)C

> <preferred_name>
Pirimicarb

> <dsstox_substance_id>
DTXSID1032569

> <dsstox_compound_id>
DTXCID9012569

> <qc_level>
DSSTox_Low

> <Canonical_QSARr>
CC1=NC(=NC(OC(=O)N(C)C)=C1C)N(C)C

> <InChI_Code_QSARr>
InChI=1S/C11H18N4O2/c1-7-8(2)12-10(14(3)4)13-9(7)17-11(16)15(5)6/h1-6H3

> <InChI Key_QSARr>
YFGYUFNIOHWBOB-UHFFFAOYSA-N

> <Salt_Solvent>


> <Salt_Solvent_ID>
0

> <MPID>
99841

> <KocRef>
Schuurmann-Main

> <LogKOC>
1.9

> <Tr_1_Tst_0>
1

$$$$
100582
  Mrv171c012251911022D          

 14 13  0  0  0  0            999 V2000
    3.8614   -0.9508    0.0000 O   0  0  0  0  0  0  0  0  0  0  0  0
    3.0364   -0.9508    0.0000 C   0  0  0  0  0  0  0  0  0  0  0  0
    2.6239   -0.2363    0.0000 N   0  0  0  0  0  0  0  0  0  0  0  0
    1.7989   -0.2363    0.0000 C   0  0  0  0  0  0  0  0  0  0  0  0
    3.0364    0.4782    0.0000 C   0  0  0  0  0  0  0  0  0  0  0  0
    2.6239   -1.6653    0.0000 C   0  0  0  0  0  0  0  0  0  0  0  0
    3.0364   -2.3797    0.0000 S   0  0  0  0  0  0  0  0  0  0  0  0
    3.8614   -2.3797    0.0000 C   0  0  0  0  0  0  0  0  0  0  0  0
    1.7989   -1.6653    0.0000 N   0  0  0  0  0  0  0  0  0  0  0  0
    1.3864   -2.3797    0.0000 O   0  0  0  0  0  0  0  0  0  0  0  0
    1.7989   -3.0942    0.0000 C   0  0  0  0  0  0  0  0  0  0  0  0
    1.3864   -3.8087    0.0000 N   0  0  0  0  0  0  0  0  0  0  0  0
    1.7989   -4.5231    0.0000 C   0  0  0  0  0  0  0  0  0  0  0  0
    2.6239   -3.0942    0.0000 O   0  0  0  0  0  0  0  0  0  0  0  0
  1  2  2  0  0  0  0
  2  3  1  0  0  0  0
  3  4  1  0  0  0  0
  3  5  1  0  0  0  0
  2  6  1  0  0  0  0
  6  7  1  0  0  0  0
  7  8  1  0  0  0  0
  6  9  2  0  0  0  0
  9 10  1  4  0  0  0
 10 11  1  0  0  0  0
 11 12  1  0  0  0  0
 12 13  1  0  0  0  0
 11 14  2  0  0  0  0
M  END
> <ChemID>
100582

> <CAS>
32817-80-4

> <Original_SMILES>
CNC(=O)ON=C(SC)C(=O)N(C)C

> <preferred_name>
Oxamyl

> <dsstox_substance_id>
DTXSID10860293

> <dsstox_compound_id>
DTXCID901086

> <qc_level>
DSSTox_Low

> <Canonical_QSARr>
CNC(=O)ON=C(SC)C(=O)N(C)C

> <InChI_Code_QSARr>
InChI=1S/C7H13N3O3S/c1-8-7(12)13-9-5(14-4)6(11)10(2)3/h1-4H3,(H,8,12)

> <InChI Key_QSARr>
KZAUOCCYDRDERY-UHFFFAOYSA-N

> <Salt_Solvent>


> <Salt_Solvent_ID>
0

> <MPID>
99842

> <KocRef>
Schuurmann-Main

> <LogKOC>
1.0

> <Tr_1_Tst_0>
0

$$$$
100583
  Mrv171c012251911022D          

 21 21  0  0  0  0            999 V2000
    2.3318   -1.7625    0.0000 N   0  0  0  0  0  0  0  0  0  0  0  0
    1.5217   -1.6066    0.0000 C   0  0  0  0  0  0  0  0  0  0  0  0
    0.9816   -2.2303    0.0000 O   0  0  0  0  0  0  0  0  0  0  0  0
    0.1715   -2.0744    0.0000 C   0  0  0  0  0  0  0  0  0  0  0  0
   -0.3686   -2.6980    0.0000 C   0  0  0  0  0  0  0  0  0  0  0  0
   -1.1788   -2.5421    0.0000 C   0  0  0  0  0  0  0  0  0  0  0  0
   -1.7189   -3.1657    0.0000 C   0  0  0  0  0  0  0  0  0  0  0  0
    2.6019   -2.5421    0.0000 C   0  0  0  0  0  0  0  0  0  0  0  0
    3.4120   -2.6980    0.0000 C   0  0  0  0  0  0  0  0  0  0  0  0
    3.6820   -3.4776    0.0000 Cl  0  0  0  0  0  0  0  0  0  0  0  0
    2.0618   -3.1657    0.0000 O   0  0  0  0  0  0  0  0  0  0  0  0
    2.8719   -1.1389    0.0000 C   0  0  0  0  0  0  0  0  0  0  0  0
    3.6820   -1.2948    0.0000 C   0  0  0  0  0  0  0  0  0  0  0  0
    3.9521   -2.0744    0.0000 C   0  0  0  0  0  0  0  0  0  0  0  0
    4.7622   -2.2303    0.0000 C   0  0  0  0  0  0  0  0  0  0  0  0
    4.2221   -0.6712    0.0000 C   0  0  0  0  0  0  0  0  0  0  0  0
    3.9521    0.1084    0.0000 C   0  0  0  0  0  0  0  0  0  0  0  0
    3.1419    0.2643    0.0000 C   0  0  0  0  0  0  0  0  0  0  0  0
    2.6019   -0.3593    0.0000 C   0  0  0  0  0  0  0  0  0  0  0  0
    1.7917   -0.2034    0.0000 C   0  0  0  0  0  0  0  0  0  0  0  0
    1.2516   -0.8271    0.0000 C   0  0  0  0  0  0  0  0  0  0  0  0
  1  2  1  0  0  0  0
  2  3  1  0  0  0  0
  3  4  1  0  0  0  0
  4  5  1  0  0  0  0
  5  6  1  0  0  0  0
  6  7  1  0  0  0  0
  1  8  1  0  0  0  0
  8  9  1  0  0  0  0
  9 10  1  0  0  0  0
  8 11  2  0  0  0  0
  1 12  1  0  0  0  0
 13 12  2  0  0  0  0
 13 14  1  0  0  0  0
 14 15  1  0  0  0  0
 16 13  1  0  0  0  0
 17 16  2  0  0  0  0
 18 17  1  0  0  0  0
 19 18  2  0  0  0  0
 12 19  1  0  0  0  0
 19 20  1  0  0  0  0
 20 21  1  0  0  0  0
M  END
> <ChemID>
100583

> <CAS>
23184-66-9

> <Original_SMILES>
CCCCOCN(C(=O)CCl)c1c(CC)cccc1CC

> <preferred_name>
Butachlor

> <dsstox_substance_id>
DTXSID3034402

> <dsstox_compound_id>
DTXCID1014402

> <qc_level>
DSSTox_Low

> <Canonical_QSARr>
CCCCOCN(C(=O)CCl)C1C(CC)=CC=CC=1CC

> <InChI_Code_QSARr>
InChI=1S/C17H26ClNO2/c1-4-7-11-21-13-19(16(20)12-18)17-14(5-2)9-8-10-15(17)6-3/h8-10H,4-7,11-13H2,1-3H3

> <InChI Key_QSARr>
HKPHPIREJKHECO-UHFFFAOYSA-N

> <Salt_Solvent>


> <Salt_Solvent_ID>
0

> <MPID>
99843

> <KocRef>
Schuurmann-Main

> <LogKOC>
2.86

> <Tr_1_Tst_0>
1

$$$$
100584
  Mrv171c012251911022D          

 16 16  0  0  0  0            999 V2000
   -0.7145    3.7125    0.0000 C   0  0  0  0  0  0  0  0  0  0  0  0
    0.0000    3.3000    0.0000 N   0  0  0  0  0  0  0  0  0  0  0  0
    0.0000    2.4750    0.0000 C   0  0  0  0  0  0  0  0  0  0  0  0
   -0.7145    2.0625    0.0000 O   0  0  0  0  0  0  0  0  0  0  0  0
    0.7145    2.0625    0.0000 O   0  0  0  0  0  0  0  0  0  0  0  0
    0.7145    1.2375    0.0000 C   0  0  0  0  0  0  0  0  0  0  0  0
    1.4289    0.8250    0.0000 C   0  0  0  0  0  0  0  0  0  0  0  0
    1.4289   -0.0000    0.0000 C   0  0  0  0  0  0  0  0  0  0  0  0
    0.7145   -0.4125    0.0000 C   0  0  0  0  0  0  0  0  0  0  0  0
    0.0000    0.0000    0.0000 C   0  0  0  0  0  0  0  0  0  0  0  0
    0.0000    0.8250    0.0000 C   0  0  0  0  0  0  0  0  0  0  0  0
    2.1434   -0.4125    0.0000 N   0  0  0  0  0  0  0  0  0  0  0  0
    2.1434   -1.2375    0.0000 C   0  0  0  0  0  0  0  0  0  0  0  0
    2.8579   -1.6500    0.0000 N   0  0  0  0  0  0  0  0  0  0  0  0
    3.5724   -1.2375    0.0000 C   0  0  0  0  0  0  0  0  0  0  0  0
    2.8579   -2.4750    0.0000 C   0  0  0  0  0  0  0  0  0  0  0  0
  1  2  1  0  0  0  0
  2  3  1  0  0  0  0
  3  4  2  0  0  0  0
  3  5  1  0  0  0  0
  5  6  1  0  0  0  0
  6  7  1  0  0  0  0
  7  8  2  0  0  0  0
  8  9  1  0  0  0  0
  9 10  2  0  0  0  0
 10 11  1  0  0  0  0
  6 11  2  0  0  0  0
 12  8  1  4  0  0  0
 12 13  2  0  0  0  0
 13 14  1  0  0  0  0
 14 15  1  0  0  0  0
 14 16  1  0  0  0  0
M  END
> <ChemID>
100584

> <CAS>
23422-53-9

> <Original_SMILES>
Cl.CNC(=O)Oc1cc(ccc1)N=CN(C)C

> <preferred_name>
Formetanate hydrochloride

> <dsstox_substance_id>
DTXSID4032405

> <dsstox_compound_id>
DTXCID2012405

> <qc_level>
DSSTox_Low

> <Canonical_QSARr>
CNC(=O)OC1C=C(C=CC=1)N=CN(C)C

> <InChI_Code_QSARr>
InChI=1S/C11H15N3O2/c1-12-11(15)16-10-6-4-5-9(7-10)13-8-14(2)3/h4-8H,1-3H3,(H,12,15)

> <InChI Key_QSARr>
RMFNNCGOSPBBAD-UHFFFAOYSA-N

> <Salt_Solvent>
Cl

> <Salt_Solvent_ID>
170

> <MPID>
99844

> <KocRef>
USDA Pest Prop DB

> <LogKOC>
2.44

> <Tr_1_Tst_0>
0

$$$$
100585
  Mrv171c012251911022D          

 21 21  0  0  0  0            999 V2000
    3.8584   -1.9322    0.0000 N   0  0  0  0  0  0  0  0  0  0  0  0
    3.1440   -1.5197    0.0000 C   0  0  0  0  0  0  0  0  0  0  0  0
    3.1440   -0.6947    0.0000 O   0  0  0  0  0  0  0  0  0  0  0  0
    2.4295   -0.2822    0.0000 P   0  0  0  0  0  0  0  0  0  0  0  0
    1.7150    0.1303    0.0000 O   0  0  0  0  0  0  0  0  0  0  0  0
    1.7150    0.9553    0.0000 C   0  0  0  0  0  0  0  0  0  0  0  0
    1.0005    1.3678    0.0000 C   0  0  0  0  0  0  0  0  0  0  0  0
    2.0170   -0.9967    0.0000 O   0  0  0  0  0  0  0  0  0  0  0  0
    1.1920   -0.9967    0.0000 C   0  0  0  0  0  0  0  0  0  0  0  0
    0.7795   -0.2822    0.0000 C   0  0  0  0  0  0  0  0  0  0  0  0
    2.8420    0.4323    0.0000 S   0  0  0  0  0  0  0  0  0  0  0  0
    2.4295   -1.9322    0.0000 C   0  0  0  0  0  0  0  0  0  0  0  0
    2.4295   -2.7572    0.0000 C   0  0  0  0  0  0  0  0  0  0  0  0
    1.7150   -3.1697    0.0000 C   0  0  0  0  0  0  0  0  0  0  0  0
    3.1440   -3.1697    0.0000 N   0  0  0  0  0  0  0  0  0  0  0  0
    3.8584   -2.7572    0.0000 C   0  0  0  0  0  0  0  0  0  0  0  0
    4.5729   -3.1697    0.0000 N   0  0  0  0  0  0  0  0  0  0  0  0
    4.5729   -3.9947    0.0000 C   0  0  0  0  0  0  0  0  0  0  0  0
    5.2874   -4.4072    0.0000 C   0  0  0  0  0  0  0  0  0  0  0  0
    5.2874   -2.7572    0.0000 C   0  0  0  0  0  0  0  0  0  0  0  0
    6.0018   -3.1697    0.0000 C   0  0  0  0  0  0  0  0  0  0  0  0
  2  1  1  0  0  0  0
  2  3  1  0  0  0  0
  3  4  1  0  0  0  0
  4  5  1  0  0  0  0
  5  6  1  0  0  0  0
  6  7  1  0  0  0  0
  4  8  1  0  0  0  0
  8  9  1  0  0  0  0
  9 10  1  0  0  0  0
  4 11  2  0  0  0  0
 12  2  2  0  0  0  0
 13 12  1  0  0  0  0
 13 14  1  0  0  0  0
 15 13  2  0  0  0  0
 16 15  1  0  0  0  0
  1 16  2  0  0  0  0
 16 17  1  0  0  0  0
 17 18  1  0  0  0  0
 18 19  1  0  0  0  0
 17 20  1  0  0  0  0
 20 21  1  0  0  0  0
M  END
> <ChemID>
100585

> <CAS>
23505-41-1

> <Original_SMILES>
Cc1cc([n]c([n]1)N(CC)CC)OP(=S)(OCC)OCC

> <preferred_name>
Pirimiphos-ethyl

> <dsstox_substance_id>
DTXSID5042297

> <dsstox_compound_id>
DTXCID3022297

> <qc_level>
DSSTox_Low

> <Canonical_QSARr>
CC1C=C(N=C(N=1)N(CC)CC)OP(=S)(OCC)OCC

> <InChI_Code_QSARr>
InChI=1S/C13H24N3O3PS/c1-6-16(7-2)13-14-11(5)10-12(15-13)19-20(21,17-8-3)18-9-4/h10H,6-9H2,1-5H3

> <InChI Key_QSARr>
TZBPRYIIJAJUOY-UHFFFAOYSA-N

> <Salt_Solvent>


> <Salt_Solvent_ID>
0

> <MPID>
99845

> <KocRef>
USDA Pest Prop DB

> <LogKOC>
2.48

> <Tr_1_Tst_0>
1

$$$$
100586
  Mrv171c012251911022D          

 22 22  0  0  0  0            999 V2000
    4.2149   -0.8335    0.0000 C   0  0  0  0  0  0  0  0  0  0  0  0
    4.2149   -0.0085    0.0000 S   0  0  0  0  0  0  0  0  0  0  0  0
    3.5005   -1.2460    0.0000 N   0  0  0  0  0  0  0  0  0  0  0  0
    2.7860   -0.8335    0.0000 C   0  0  0  0  0  0  0  0  0  0  0  0
    2.7860   -0.0085    0.0000 C   0  0  0  0  0  0  0  0  0  0  0  0
    2.0715    0.4040    0.0000 C   0  0  0  0  0  0  0  0  0  0  0  0
    1.3571   -0.0085    0.0000 C   0  0  0  0  0  0  0  0  0  0  0  0
    1.3571   -0.8335    0.0000 C   0  0  0  0  0  0  0  0  0  0  0  0
    2.0715   -1.2460    0.0000 C   0  0  0  0  0  0  0  0  0  0  0  0
    2.0715   -2.0710    0.0000 N   0  0  0  0  0  0  0  0  0  0  0  0
    1.3571   -2.4835    0.0000 C   0  0  0  0  0  0  0  0  0  0  0  0
    0.6426   -2.0710    0.0000 S   0  0  0  0  0  0  0  0  0  0  0  0
    1.3571   -3.3085    0.0000 N   0  0  0  0  0  0  0  0  0  0  0  0
    0.6426   -3.7210    0.0000 C   0  0  0  0  0  0  0  0  0  0  0  0
    0.6426   -4.5460    0.0000 O   0  0  0  0  0  0  0  0  0  0  0  0
   -0.0719   -4.9585    0.0000 C   0  0  0  0  0  0  0  0  0  0  0  0
   -0.0719   -3.3085    0.0000 O   0  0  0  0  0  0  0  0  0  0  0  0
    4.9294   -1.2460    0.0000 N   0  0  0  0  0  0  0  0  0  0  0  0
    5.6439   -0.8335    0.0000 C   0  0  0  0  0  0  0  0  0  0  0  0
    6.3584   -1.2460    0.0000 O   0  0  0  0  0  0  0  0  0  0  0  0
    7.0728   -0.8335    0.0000 C   0  0  0  0  0  0  0  0  0  0  0  0
    5.6439   -0.0085    0.0000 O   0  0  0  0  0  0  0  0  0  0  0  0
  1  2  2  0  0  0  0
  1  3  1  0  0  0  0
  3  4  1  0  0  0  0
  5  4  1  0  0  0  0
  6  5  2  0  0  0  0
  7  6  1  0  0  0  0
  8  7  2  0  0  0  0
  9  8  1  0  0  0  0
  4  9  2  0  0  0  0
  9 10  1  0  0  0  0
 10 11  1  0  0  0  0
 11 12  2  0  0  0  0
 11 13  1  0  0  0  0
 13 14  1  0  0  0  0
 14 15  1  0  0  0  0
 15 16  1  0  0  0  0
 14 17  2  0  0  0  0
  1 18  1  0  0  0  0
 18 19  1  0  0  0  0
 19 20  1  0  0  0  0
 20 21  1  0  0  0  0
 19 22  2  0  0  0  0
M  END
> <ChemID>
100586

> <CAS>
23564-05-8

> <Original_SMILES>
COC(=O)NC(=S)Nc1ccccc1NC(=S)NC(=O)OC

> <preferred_name>
Thiophanate-methyl

> <dsstox_substance_id>
DTXSID1024338

> <dsstox_compound_id>
DTXCID104338

> <qc_level>
DSSTox_Low

> <Canonical_QSARr>
COC(=O)NC(=S)NC1C=CC=CC=1NC(=S)NC(=O)OC

> <InChI_Code_QSARr>
InChI=1S/C12H14N4O4S2/c1-19-11(17)15-9(21)13-7-5-3-4-6-8(7)14-10(22)16-12(18)20-2/h3-6H,1-2H3,(H2,13,15,17,21)(H2,14,16,18,22)

> <InChI Key_QSARr>
QGHREAKMXXNCOA-UHFFFAOYSA-N

> <Salt_Solvent>


> <Salt_Solvent_ID>
0

> <MPID>
99846

> <KocRef>
Schuurmann-Main

> <LogKOC>
3.25

> <Tr_1_Tst_0>
1

$$$$
100587
  Mrv171c012251911022D          

 16 16  0  0  0  0            999 V2000
    4.1771   -2.4780    0.0000 C   0  0  0  0  0  0  0  0  0  0  0  0
    3.7646   -3.1925    0.0000 C   0  0  0  0  0  0  0  0  0  0  0  0
    3.3521   -3.9070    0.0000 C   0  0  0  0  0  0  0  0  0  0  0  0
    4.4791   -3.6050    0.0000 C   0  0  0  0  0  0  0  0  0  0  0  0
    5.1935   -4.0175    0.0000 C   0  0  0  0  0  0  0  0  0  0  0  0
    3.0501   -2.7800    0.0000 N   0  0  0  0  0  0  0  0  0  0  0  0
    3.0501   -1.9550    0.0000 C   0  0  0  0  0  0  0  0  0  0  0  0
    2.3357   -1.5425    0.0000 C   0  0  0  0  0  0  0  0  0  0  0  0
    2.3357   -0.7175    0.0000 C   0  0  0  0  0  0  0  0  0  0  0  0
    1.6212   -0.3050    0.0000 C   0  0  0  0  0  0  0  0  0  0  0  0
    1.6212    0.5200    0.0000 Cl  0  0  0  0  0  0  0  0  0  0  0  0
    0.9067   -0.7175    0.0000 C   0  0  0  0  0  0  0  0  0  0  0  0
    0.9067   -1.5425    0.0000 C   0  0  0  0  0  0  0  0  0  0  0  0
    0.1923   -1.9550    0.0000 Cl  0  0  0  0  0  0  0  0  0  0  0  0
    1.6212   -1.9550    0.0000 C   0  0  0  0  0  0  0  0  0  0  0  0
    3.7646   -1.5425    0.0000 O   0  0  0  0  0  0  0  0  0  0  0  0
  1  2  1  0  0  0  0
  2  3  1  0  0  0  0
  2  4  1  0  0  0  0
  4  5  3  0  0  0  0
  2  6  1  0  0  0  0
  6  7  1  0  0  0  0
  7  8  1  0  0  0  0
  9  8  1  0  0  0  0
 10  9  2  0  0  0  0
 10 11  1  0  0  0  0
 12 10  1  0  0  0  0
 13 12  2  0  0  0  0
 13 14  1  0  0  0  0
 15 13  1  0  0  0  0
  8 15  2  0  0  0  0
  7 16  2  0  0  0  0
M  END
> <ChemID>
100587

> <CAS>
23950-58-5

> <Original_SMILES>
CC(C)(C#C)NC(=O)c1cc(Cl)cc(Cl)c1

> <preferred_name>
Propyzamide

> <dsstox_substance_id>
DTXSID2020420

> <dsstox_compound_id>
DTXCID80420

> <qc_level>
DSSTox_Low

> <Canonical_QSARr>
CC(C)(C#C)NC(=O)C1C=C(Cl)C=C(Cl)C=1

> <InChI_Code_QSARr>
InChI=1S/C12H11Cl2NO/c1-4-12(2,3)15-11(16)8-5-9(13)7-10(14)6-8/h1,5-7H,2-3H3,(H,15,16)

> <InChI Key_QSARr>
PHNUZKMIPFFYSO-UHFFFAOYSA-N

> <Salt_Solvent>


> <Salt_Solvent_ID>
0

> <MPID>
99847

> <KocRef>
Schuurmann-Main

> <LogKOC>
2.31

> <Tr_1_Tst_0>
0

$$$$
100588
  Mrv171c012251911022D          

 21 21  0  0  0  0            999 V2000
    8.2538   -2.1801    0.0000 C   0  0  0  0  0  0  0  0  0  0  0  0
    7.5393   -2.5926    0.0000 C   0  0  0  0  0  0  0  0  0  0  0  0
    6.8248   -2.1801    0.0000 C   0  0  0  0  0  0  0  0  0  0  0  0
    6.1104   -2.5926    0.0000 O   0  0  0  0  0  0  0  0  0  0  0  0
    5.3959   -2.1801    0.0000 P   0  0  0  0  0  0  0  0  0  0  0  0
    4.6814   -1.7676    0.0000 S   0  0  0  0  0  0  0  0  0  0  0  0
    3.9669   -2.1801    0.0000 C   0  0  0  0  0  0  0  0  0  0  0  0
    3.2525   -1.7676    0.0000 C   0  0  0  0  0  0  0  0  0  0  0  0
    3.2525   -0.9426    0.0000 O   0  0  0  0  0  0  0  0  0  0  0  0
    2.5380   -2.1801    0.0000 N   0  0  0  0  0  0  0  0  0  0  0  0
    1.8235   -1.7676    0.0000 C   0  0  0  0  0  0  0  0  0  0  0  0
    1.8235   -0.9426    0.0000 C   0  0  0  0  0  0  0  0  0  0  0  0
    1.1091   -2.1801    0.0000 C   0  0  0  0  0  0  0  0  0  0  0  0
    1.1091   -3.0051    0.0000 C   0  0  0  0  0  0  0  0  0  0  0  0
    1.8235   -3.4176    0.0000 C   0  0  0  0  0  0  0  0  0  0  0  0
    2.5380   -3.0051    0.0000 C   0  0  0  0  0  0  0  0  0  0  0  0
    5.8084   -1.4657    0.0000 S   0  0  0  0  0  0  0  0  0  0  0  0
    4.9834   -2.8946    0.0000 O   0  0  0  0  0  0  0  0  0  0  0  0
    4.1584   -2.8946    0.0000 C   0  0  0  0  0  0  0  0  0  0  0  0
    3.7459   -3.6091    0.0000 C   0  0  0  0  0  0  0  0  0  0  0  0
    2.9209   -3.6091    0.0000 C   0  0  0  0  0  0  0  0  0  0  0  0
  1  2  1  0  0  0  0
  2  3  1  0  0  0  0
  3  4  1  0  0  0  0
  4  5  1  0  0  0  0
  5  6  1  0  0  0  0
  6  7  1  0  0  0  0
  7  8  1  0  0  0  0
  8  9  2  0  0  0  0
  8 10  1  0  0  0  0
 11 10  1  0  0  0  0
 11 12  1  0  0  0  0
 13 11  1  0  0  0  0
 14 13  1  0  0  0  0
 15 14  1  0  0  0  0
 16 15  1  0  0  0  0
 10 16  1  0  0  0  0
  5 17  2  0  0  0  0
  5 18  1  0  0  0  0
 18 19  1  0  0  0  0
 19 20  1  0  0  0  0
 20 21  1  0  0  0  0
M  END
> <ChemID>
100588

> <CAS>
24151-93-7

> <Original_SMILES>
CC1CCCCN1C(=O)CSP(=S)(OCCC)OCCC

> <preferred_name>
Piperophos

> <dsstox_substance_id>
DTXSID8058031

> <dsstox_compound_id>
DTXCID7031799

> <qc_level>
DSSTox_High

> <Canonical_QSARr>
CC1CCCCN1C(=O)CSP(=S)(OCCC)OCCC

> <InChI_Code_QSARr>
InChI=1S/C14H28NO3PS2/c1-4-10-17-19(20,18-11-5-2)21-12-14(16)15-9-7-6-8-13(15)3/h13H,4-12H2,1-3H3

> <InChI Key_QSARr>
UNLYSVIDNRIVFJ-UHFFFAOYSA-N

> <Salt_Solvent>


> <Salt_Solvent_ID>
0

> <MPID>
99848

> <KocRef>
Schuurmann-Main

> <LogKOC>
3.44

> <Tr_1_Tst_0>
1

$$$$
100589
  Mrv171c001112021122D          

  8  8  0  0  0  0            999 V2000
    0.4608    0.4366    0.0000 N   0  3  0  0  0  0  0  0  0  0  0  0
   -0.2537    0.0241    0.0000 C   0  0  0  0  0  0  0  0  0  0  0  0
   -0.2537   -0.8009    0.0000 C   0  0  0  0  0  0  0  0  0  0  0  0
    0.4608   -1.2134    0.0000 C   0  0  0  0  0  0  0  0  0  0  0  0
    1.1752   -0.8009    0.0000 C   0  0  0  0  0  0  0  0  0  0  0  0
    1.1752    0.0241    0.0000 C   0  0  0  0  0  0  0  0  0  0  0  0
    0.0735    1.1651    0.0000 C   0  0  0  0  0  0  0  0  0  0  0  0
    0.8481    1.1651    0.0000 C   0  0  0  0  0  0  0  0  0  0  0  0
  2  1  1  0  0  0  0
  3  2  1  0  0  0  0
  4  3  1  0  0  0  0
  5  4  1  0  0  0  0
  6  5  1  0  0  0  0
  1  6  1  0  0  0  0
  1  7  1  0  0  0  0
  1  8  1  0  0  0  0
M  CHG  1   1   1
M  END
> <ChemID>
100589

> <CAS>
24307-26-4

> <Original_SMILES>
[Cl-].C[N+]1(C)CCCCC1

> <preferred_name>
Mepiquat chloride

> <dsstox_substance_id>
DTXSID1024170

> <dsstox_compound_id>
DTXCID704170

> <qc_level>
DSSTox_Low

> <Canonical_QSARr>
C[N+]1(C)CCCCC1

> <InChI_Code_QSARr>
InChI=1S/C7H16N/c1-8(2)6-4-3-5-7-8/h3-7H2,1-2H3/q+1

> <InChI Key_QSARr>
NNCAWEWCFVZOGF-UHFFFAOYSA-N

> <Salt_Solvent>
[Cl-]

> <Salt_Solvent_ID>
170

> <MPID>
99849

> <KocRef>
USDA Pest Prop DB

> <LogKOC>
6.0

> <Tr_1_Tst_0>
1

$$$$
100590
  Mrv171c012251911022D          

 15 16  0  0  0  0            999 V2000
    0.7618   -2.4540    0.0000 C   0  0  0  0  0  0  0  0  0  0  0  0
    1.5464   -2.7089    0.0000 C   0  0  0  0  0  0  0  0  0  0  0  0
    1.8013   -3.4935    0.0000 O   0  0  0  0  0  0  0  0  0  0  0  0
    2.6263   -3.4935    0.0000 C   0  0  0  0  0  0  0  0  0  0  0  0
    2.8813   -2.7089    0.0000 C   0  0  0  0  0  0  0  0  0  0  0  0
    2.2138   -2.2240    0.0000 C   0  0  0  0  0  0  0  0  0  0  0  0
    2.2138   -1.3990    0.0000 C   0  0  0  0  0  0  0  0  0  0  0  0
    1.4994   -0.9865    0.0000 O   0  0  0  0  0  0  0  0  0  0  0  0
    2.9283   -0.9865    0.0000 N   0  0  0  0  0  0  0  0  0  0  0  0
    2.9283   -0.1615    0.0000 C   0  0  0  0  0  0  0  0  0  0  0  0
    3.6428    0.2510    0.0000 C   0  0  0  0  0  0  0  0  0  0  0  0
    3.6428    1.0760    0.0000 C   0  0  0  0  0  0  0  0  0  0  0  0
    2.9283    1.4885    0.0000 C   0  0  0  0  0  0  0  0  0  0  0  0
    2.2138    1.0760    0.0000 C   0  0  0  0  0  0  0  0  0  0  0  0
    2.2138    0.2510    0.0000 C   0  0  0  0  0  0  0  0  0  0  0  0
  1  2  1  0  0  0  0
  3  2  1  0  0  0  0
  4  3  1  0  0  0  0
  5  4  2  0  0  0  0
  6  5  1  0  0  0  0
  2  6  2  0  0  0  0
  6  7  1  0  0  0  0
  7  8  2  0  0  0  0
  7  9  1  0  0  0  0
  9 10  1  0  0  0  0
 11 10  1  0  0  0  0
 12 11  2  0  0  0  0
 13 12  1  0  0  0  0
 14 13  2  0  0  0  0
 15 14  1  0  0  0  0
 10 15  2  0  0  0  0
M  END
> <ChemID>
100590

> <CAS>
24691-80-3

> <Original_SMILES>
Cc1occc1C(=O)Nc1ccccc1

> <preferred_name>
Fenfuram

> <dsstox_substance_id>
DTXSID8058035

> <dsstox_compound_id>
DTXCID4031803

> <qc_level>
DSSTox_High

> <Canonical_QSARr>
CC1OC=CC=1C(=O)NC1C=CC=CC=1

> <InChI_Code_QSARr>
InChI=1S/C12H11NO2/c1-9-11(7-8-15-9)12(14)13-10-5-3-2-4-6-10/h2-8H,1H3,(H,13,14)

> <InChI Key_QSARr>
JFSPBVWPKOEZCB-UHFFFAOYSA-N

> <Salt_Solvent>


> <Salt_Solvent_ID>
0

> <MPID>
99850

> <KocRef>
USDA Pest Prop DB

> <LogKOC>
2.48

> <Tr_1_Tst_0>
1

$$$$
100591
  Mrv171c012251911022D          

 15 15  0  0  0  0            999 V2000
    2.3645   -3.3495    0.0000 Cl  0  0  0  0  0  0  0  0  0  0  0  0
    2.3645   -2.5245    0.0000 C   0  0  0  0  0  0  0  0  0  0  0  0
    3.0789   -2.1120    0.0000 C   0  0  0  0  0  0  0  0  0  0  0  0
    3.0789   -1.2870    0.0000 C   0  0  0  0  0  0  0  0  0  0  0  0
    2.3645   -0.8745    0.0000 C   0  0  0  0  0  0  0  0  0  0  0  0
    2.3645   -0.0495    0.0000 C   0  0  0  0  0  0  0  0  0  0  0  0
    3.0789    0.3630    0.0000 N   0  0  0  0  0  0  0  0  0  0  0  0
    3.0789    1.1880    0.0000 C   0  0  0  0  0  0  0  0  0  0  0  0
    3.0789    2.0130    0.0000 C   0  0  0  0  0  0  0  0  0  0  0  0
    3.0789    2.8380    0.0000 C   0  0  0  0  0  0  0  0  0  0  0  0
    3.9039    1.1880    0.0000 C   0  0  0  0  0  0  0  0  0  0  0  0
    2.2539    1.1880    0.0000 C   0  0  0  0  0  0  0  0  0  0  0  0
    1.6500    0.3630    0.0000 O   0  0  0  0  0  0  0  0  0  0  0  0
    1.6500   -1.2870    0.0000 C   0  0  0  0  0  0  0  0  0  0  0  0
    1.6500   -2.1120    0.0000 C   0  0  0  0  0  0  0  0  0  0  0  0
  1  2  1  0  0  0  0
  3  2  1  0  0  0  0
  4  3  2  0  0  0  0
  5  4  1  0  0  0  0
  5  6  1  0  0  0  0
  6  7  1  0  0  0  0
  7  8  1  0  0  0  0
  8  9  1  0  0  0  0
  9 10  3  0  0  0  0
  8 11  1  0  0  0  0
  8 12  1  0  0  0  0
  6 13  2  0  0  0  0
 14  5  2  0  0  0  0
 15 14  1  0  0  0  0
  2 15  2  0  0  0  0
M  END
> <ChemID>
100591

> <CAS>
24911-15-7

> <Original_SMILES>
CC(C)(C#C)NC(=O)c1ccc(Cl)cc1

> <preferred_name>
4-Chloro-N-(1,1-dimethyl-2-propynyl)benzamide

> <dsstox_substance_id>
DTXSID60179625

> <dsstox_compound_id>
DTXCID20102116

> <qc_level>
Public_Medium

> <Canonical_QSARr>
CC(C)(C#C)NC(=O)C1C=CC(Cl)=CC=1

> <InChI_Code_QSARr>
InChI=1S/C12H12ClNO/c1-4-12(2,3)14-11(15)9-5-7-10(13)8-6-9/h1,5-8H,2-3H3,(H,14,15)

> <InChI Key_QSARr>
JSBUIJZRVJLNAV-UHFFFAOYSA-N

> <Salt_Solvent>


> <Salt_Solvent_ID>
0

> <MPID>
99851

> <KocRef>
Schuurmann-Main

> <LogKOC>
1.9

> <Tr_1_Tst_0>
1

$$$$
100592
  Mrv171c012251911022D          

 16 17  0  0  0  0            999 V2000
    1.4863   -0.8779    0.0000 S   0  0  0  0  0  0  0  0  0  0  0  0
    1.2041   -0.1026    0.0000 O   0  0  0  0  0  0  0  0  0  0  0  0
    0.6738   -1.0211    0.0000 O   0  0  0  0  0  0  0  0  0  0  0  0
    2.2007   -0.4654    0.0000 N   0  0  0  0  0  0  0  0  0  0  0  0
    2.9152   -0.8779    0.0000 C   0  0  0  0  0  0  0  0  0  0  0  0
    3.6297   -0.4654    0.0000 C   0  0  0  0  0  0  0  0  0  0  0  0
    4.3441   -0.8779    0.0000 C   0  0  0  0  0  0  0  0  0  0  0  0
    4.3441   -1.7029    0.0000 C   0  0  0  0  0  0  0  0  0  0  0  0
    3.6297   -2.1154    0.0000 C   0  0  0  0  0  0  0  0  0  0  0  0
    2.9152   -1.7029    0.0000 C   0  0  0  0  0  0  0  0  0  0  0  0
    2.2007   -2.1154    0.0000 C   0  0  0  0  0  0  0  0  0  0  0  0
    2.2007   -2.9404    0.0000 O   0  0  0  0  0  0  0  0  0  0  0  0
    1.4863   -1.7029    0.0000 N   0  0  0  0  0  0  0  0  0  0  0  0
    0.7718   -2.1154    0.0000 C   0  0  0  0  0  0  0  0  0  0  0  0
    0.7718   -2.9404    0.0000 C   0  0  0  0  0  0  0  0  0  0  0  0
    0.0573   -1.7029    0.0000 C   0  0  0  0  0  0  0  0  0  0  0  0
  1  2  2  0  0  0  0
  1  3  2  0  0  0  0
  4  1  1  0  0  0  0
  5  4  1  0  0  0  0
  5  6  1  0  0  0  0
  6  7  2  0  0  0  0
  7  8  1  0  0  0  0
  8  9  2  0  0  0  0
  9 10  1  0  0  0  0
 10  5  2  0  0  0  0
 11 10  1  0  0  0  0
 11 12  2  0  0  0  0
 13 11  1  0  0  0  0
  1 13  1  0  0  0  0
 13 14  1  0  0  0  0
 14 15  1  0  0  0  0
 14 16  1  0  0  0  0
M  END
> <ChemID>
100592

> <CAS>
25057-89-0

> <Original_SMILES>
CC(C)N1C(=O)c2ccccc2NS1(=O)=O

> <preferred_name>
Bentazone

> <dsstox_substance_id>
DTXSID0023901

> <dsstox_compound_id>
DTXCID503901

> <qc_level>
DSSTox_High

> <Canonical_QSARr>
CC(C)N1C(=O)C2C=CC=CC=2NS1(=O)=O

> <InChI_Code_QSARr>
InChI=1S/C10H12N2O3S/c1-7(2)12-10(13)8-5-3-4-6-9(8)11-16(12,14)15/h3-7,11H,1-2H3

> <InChI Key_QSARr>
ZOMSMJKLGFBRBS-UHFFFAOYSA-N

> <Salt_Solvent>


> <Salt_Solvent_ID>
0

> <MPID>
99852

> <KocRef>
Schuurmann-Main

> <LogKOC>
1.52

> <Tr_1_Tst_0>
0

$$$$
100594
  Mrv171c012251911022D          

 13 13  0  0  0  0            999 V2000
    4.7277   -1.3654    0.0000 Cl  0  0  0  0  0  0  0  0  0  0  0  0
    4.0132   -0.9529    0.0000 C   0  0  0  0  0  0  0  0  0  0  0  0
    4.0132   -0.1279    0.0000 C   0  0  0  0  0  0  0  0  0  0  0  0
    3.2987    0.2846    0.0000 C   0  0  0  0  0  0  0  0  0  0  0  0
    3.2987    1.1096    0.0000 N   0  0  0  0  0  0  0  0  0  0  0  0
    2.5843    1.5221    0.0000 C   0  0  0  0  0  0  0  0  0  0  0  0
    2.5843    2.3471    0.0000 N   0  0  0  0  0  0  0  0  0  0  0  0
    1.8698    1.1096    0.0000 O   0  0  0  0  0  0  0  0  0  0  0  0
    2.5843   -0.1279    0.0000 C   0  0  0  0  0  0  0  0  0  0  0  0
    2.5843   -0.9529    0.0000 C   0  0  0  0  0  0  0  0  0  0  0  0
    3.2987   -1.3654    0.0000 C   0  0  0  0  0  0  0  0  0  0  0  0
    3.2987   -2.1904    0.0000 O   0  0  0  0  0  0  0  0  0  0  0  0
    4.0132   -2.6029    0.0000 C   0  0  0  0  0  0  0  0  0  0  0  0
  1  2  1  0  0  0  0
  3  2  1  0  0  0  0
  4  3  2  0  0  0  0
  4  5  1  0  0  0  0
  5  6  1  0  0  0  0
  6  7  1  0  0  0  0
  6  8  2  0  0  0  0
  9  4  1  0  0  0  0
 10  9  2  0  0  0  0
 11 10  1  0  0  0  0
  2 11  2  0  0  0  0
 11 12  1  0  0  0  0
 12 13  1  0  0  0  0
M  END
> <ChemID>
100594

> <CAS>
25277-05-8

> <Original_SMILES>
COc1ccc(cc1Cl)NC(N)=O

> <preferred_name>
Urea, (3-chloro-4-methoxyphenyl)-

> <dsstox_substance_id>
DTXSID60179923

> <dsstox_compound_id>
DTXCID20102414

> <qc_level>
Public_Medium

> <Canonical_QSARr>
COC1C=CC(=CC=1Cl)NC(N)=O

> <InChI_Code_QSARr>
InChI=1S/C8H9ClN2O2/c1-13-7-3-2-5(4-6(7)9)11-8(10)12/h2-4H,1H3,(H3,10,11,12)

> <InChI Key_QSARr>
UBUDYOAQLWPSQY-UHFFFAOYSA-N

> <Salt_Solvent>


> <Salt_Solvent_ID>
0

> <MPID>
99853

> <KocRef>
Schuurmann-Main

> <LogKOC>
2.0

> <Tr_1_Tst_0>
1

$$$$
100595
  Mrv171c012251911022D          

 22 22  0  0  0  0            999 V2000
    2.4121   -2.3208    0.0000 P   0  0  0  0  0  0  0  0  0  0  0  0
    1.6977   -2.7333    0.0000 O   0  0  0  0  0  0  0  0  0  0  0  0
    0.9832   -2.3208    0.0000 C   0  0  0  0  0  0  0  0  0  0  0  0
    0.2687   -2.7333    0.0000 C   0  0  0  0  0  0  0  0  0  0  0  0
    2.8246   -3.0352    0.0000 S   0  0  0  0  0  0  0  0  0  0  0  0
    1.9996   -1.6063    0.0000 N   0  0  0  0  0  0  0  0  0  0  0  0
    2.4121   -0.8918    0.0000 C   0  0  0  0  0  0  0  0  0  0  0  0
    3.2371   -0.8918    0.0000 C   0  0  0  0  0  0  0  0  0  0  0  0
    1.9996   -0.1773    0.0000 C   0  0  0  0  0  0  0  0  0  0  0  0
    3.1266   -1.9083    0.0000 O   0  0  0  0  0  0  0  0  0  0  0  0
    3.8411   -2.3208    0.0000 C   0  0  0  0  0  0  0  0  0  0  0  0
    3.8411   -3.1458    0.0000 C   0  0  0  0  0  0  0  0  0  0  0  0
    4.5555   -3.5583    0.0000 C   0  0  0  0  0  0  0  0  0  0  0  0
    5.2700   -3.1458    0.0000 C   0  0  0  0  0  0  0  0  0  0  0  0
    5.2700   -2.3208    0.0000 C   0  0  0  0  0  0  0  0  0  0  0  0
    4.5555   -1.9083    0.0000 C   0  0  0  0  0  0  0  0  0  0  0  0
    4.5555   -1.0833    0.0000 C   0  0  0  0  0  0  0  0  0  0  0  0
    5.2700   -0.6708    0.0000 O   0  0  0  0  0  0  0  0  0  0  0  0
    3.8411   -0.6708    0.0000 O   0  0  0  0  0  0  0  0  0  0  0  0
    3.8411    0.1542    0.0000 C   0  0  0  0  0  0  0  0  0  0  0  0
    4.5555    0.5667    0.0000 C   0  0  0  0  0  0  0  0  0  0  0  0
    3.1266    0.5667    0.0000 C   0  0  0  0  0  0  0  0  0  0  0  0
  1  2  1  0  0  0  0
  2  3  1  0  0  0  0
  3  4  1  0  0  0  0
  1  5  2  0  0  0  0
  1  6  1  0  0  0  0
  6  7  1  0  0  0  0
  7  8  1  0  0  0  0
  7  9  1  0  0  0  0
  1 10  1  0  0  0  0
 10 11  1  0  0  0  0
 12 11  2  0  0  0  0
 13 12  1  0  0  0  0
 14 13  2  0  0  0  0
 15 14  1  0  0  0  0
 16 15  2  0  0  0  0
 11 16  1  0  0  0  0
 16 17  1  0  0  0  0
 17 18  2  0  0  0  0
 17 19  1  0  0  0  0
 19 20  1  0  0  0  0
 20 21  1  0  0  0  0
 20 22  1  0  0  0  0
M  END
> <ChemID>
100595

> <CAS>
25311-71-1

> <Original_SMILES>
CCOP(=S)(NC(C)C)Oc1ccccc1C(=O)OC(C)C

> <preferred_name>
Isofenphos

> <dsstox_substance_id>
DTXSID8032417

> <dsstox_compound_id>
DTXCID6012417

> <qc_level>
DSSTox_Low

> <Canonical_QSARr>
CCOP(=S)(NC(C)C)OC1=CC=CC=C1C(=O)OC(C)C

> <InChI_Code_QSARr>
InChI=1S/C15H24NO4PS/c1-6-18-21(22,16-11(2)3)20-14-10-8-7-9-13(14)15(17)19-12(4)5/h7-12H,6H2,1-5H3,(H,16,22)

> <InChI Key_QSARr>
HOQADATXFBOEGG-UHFFFAOYSA-N

> <Salt_Solvent>


> <Salt_Solvent_ID>
0

> <MPID>
99854

> <KocRef>
Schuurmann-Main

> <LogKOC>
2.78

> <Tr_1_Tst_0>
1

$$$$
100596
  Mrv171c012251911022D          

 13 12  0  0  0  0            999 V2000
    0.0000    0.3808    0.0000 C   0  0  0  0  0  0  0  0  0  0  0  0
    0.0000    1.2058    0.0000 O   0  0  0  0  0  0  0  0  0  0  0  0
   -0.7145   -0.0317    0.0000 O   0  0  0  0  0  0  0  0  0  0  0  0
   -1.4289    0.3808    0.0000 C   0  0  0  0  0  0  0  0  0  0  0  0
   -2.1434   -0.0317    0.0000 C   0  0  0  0  0  0  0  0  0  0  0  0
   -2.8579    0.3808    0.0000 C   0  0  0  0  0  0  0  0  0  0  0  0
    0.7145   -0.0317    0.0000 N   0  0  0  0  0  0  0  0  0  0  0  0
    1.4289    0.3808    0.0000 C   0  0  0  0  0  0  0  0  0  0  0  0
    2.1434   -0.0317    0.0000 C   0  0  0  0  0  0  0  0  0  0  0  0
    2.8579    0.3808    0.0000 C   0  0  0  0  0  0  0  0  0  0  0  0
    3.5724   -0.0317    0.0000 N   0  0  0  0  0  0  0  0  0  0  0  0
    4.2868    0.3808    0.0000 C   0  0  0  0  0  0  0  0  0  0  0  0
    3.5724   -0.8567    0.0000 C   0  0  0  0  0  0  0  0  0  0  0  0
  1  2  2  0  0  0  0
  1  3  1  0  0  0  0
  3  4  1  0  0  0  0
  4  5  1  0  0  0  0
  5  6  1  0  0  0  0
  1  7  1  0  0  0  0
  7  8  1  0  0  0  0
  8  9  1  0  0  0  0
  9 10  1  0  0  0  0
 10 11  1  0  0  0  0
 11 12  1  0  0  0  0
 11 13  1  0  0  0  0
M  END
> <ChemID>
100596

> <CAS>
25606-41-1

> <Original_SMILES>
Cl.CCCOC(=O)NCCCN(C)C

> <preferred_name>
Propamocarb hydrochloride

> <dsstox_substance_id>
DTXSID6034849

> <dsstox_compound_id>
DTXCID4014849

> <qc_level>
DSSTox_Low

> <Canonical_QSARr>
CCCOC(=O)NCCCN(C)C

> <InChI_Code_QSARr>
InChI=1S/C9H20N2O2/c1-4-8-13-9(12)10-6-5-7-11(2)3/h4-8H2,1-3H3,(H,10,12)

> <InChI Key_QSARr>
WZZLDXDUQPOXNW-UHFFFAOYSA-N

> <Salt_Solvent>
Cl

> <Salt_Solvent_ID>
170

> <MPID>
99855

> <KocRef>
USDA Pest Prop DB

> <LogKOC>
2.49

> <Tr_1_Tst_0>
1

$$$$
100598
  Mrv171c012251911022D          

 18 18  0  0  0  0            999 V2000
    4.0831    1.1658    0.0000 C   0  0  0  0  0  0  0  0  0  0  0  0
    4.0831    0.3408    0.0000 C   0  0  0  0  0  0  0  0  0  0  0  0
    3.3687   -0.0717    0.0000 O   0  0  0  0  0  0  0  0  0  0  0  0
    3.3687   -0.8967    0.0000 P   0  0  0  0  0  0  0  0  0  0  0  0
    3.3687   -1.7217    0.0000 S   0  0  0  0  0  0  0  0  0  0  0  0
    2.6542   -2.1342    0.0000 C   0  0  0  0  0  0  0  0  0  0  0  0
    2.6542   -2.9592    0.0000 C   0  0  0  0  0  0  0  0  0  0  0  0
    1.9397   -3.3717    0.0000 C   0  0  0  0  0  0  0  0  0  0  0  0
    1.9397   -4.1967    0.0000 C   0  0  0  0  0  0  0  0  0  0  0  0
    2.6542   -4.6092    0.0000 C   0  0  0  0  0  0  0  0  0  0  0  0
    3.3687   -4.1967    0.0000 C   0  0  0  0  0  0  0  0  0  0  0  0
    3.3687   -3.3717    0.0000 C   0  0  0  0  0  0  0  0  0  0  0  0
    2.5437   -0.8967    0.0000 O   0  0  0  0  0  0  0  0  0  0  0  0
    2.1312   -0.1822    0.0000 C   0  0  0  0  0  0  0  0  0  0  0  0
    2.5437    0.5322    0.0000 C   0  0  0  0  0  0  0  0  0  0  0  0
    1.3062   -0.1822    0.0000 C   0  0  0  0  0  0  0  0  0  0  0  0
    4.1937   -0.8967    0.0000 O   0  0  0  0  0  0  0  0  0  0  0  0
    4.7976   -0.0717    0.0000 C   0  0  0  0  0  0  0  0  0  0  0  0
  1  2  1  0  0  0  0
  2  3  1  0  0  0  0
  3  4  1  0  0  0  0
  4  5  1  0  0  0  0
  5  6  1  0  0  0  0
  6  7  1  0  0  0  0
  8  7  1  0  0  0  0
  9  8  2  0  0  0  0
 10  9  1  0  0  0  0
 11 10  2  0  0  0  0
 12 11  1  0  0  0  0
  7 12  2  0  0  0  0
  4 13  1  0  0  0  0
 13 14  1  0  0  0  0
 14 15  1  0  0  0  0
 14 16  1  0  0  0  0
  4 17  2  0  0  0  0
  2 18  1  0  0  0  0
M  END
> <ChemID>
100598

> <CAS>
26087-47-8

> <Original_SMILES>
CC(C)OP(=O)(OC(C)C)SCc1ccccc1

> <preferred_name>
Iprobenfos

> <dsstox_substance_id>
DTXSID7058040

> <dsstox_compound_id>
DTXCID9031808

> <qc_level>
DSSTox_High

> <Canonical_QSARr>
CC(C)OP(=O)(OC(C)C)SCC1C=CC=CC=1

> <InChI_Code_QSARr>
InChI=1S/C13H21O3PS/c1-11(2)15-17(14,16-12(3)4)18-10-13-8-6-5-7-9-13/h5-9,11-12H,10H2,1-4H3

> <InChI Key_QSARr>
FCOAHACKGGIURQ-UHFFFAOYSA-N

> <Salt_Solvent>


> <Salt_Solvent_ID>
0

> <MPID>
99856

> <KocRef>
Schuur-SRC avg

> <LogKOC>
2.26

> <Tr_1_Tst_0>
1

$$$$
100599
  Mrv171c012251911022D          

 19 20  0  0  0  0            999 V2000
    5.8113   -1.3999    0.0000 S   0  0  0  0  0  0  0  0  0  0  0  0
    6.5258   -0.9874    0.0000 C   0  0  0  0  0  0  0  0  0  0  0  0
    5.3988   -0.6855    0.0000 O   0  0  0  0  0  0  0  0  0  0  0  0
    6.2238   -2.1144    0.0000 O   0  0  0  0  0  0  0  0  0  0  0  0
    5.0969   -1.8124    0.0000 O   0  0  0  0  0  0  0  0  0  0  0  0
    4.3824   -1.3999    0.0000 C   0  0  0  0  0  0  0  0  0  0  0  0
    4.3824   -0.5749    0.0000 C   0  0  0  0  0  0  0  0  0  0  0  0
    3.6679   -0.1624    0.0000 C   0  0  0  0  0  0  0  0  0  0  0  0
    2.9535   -0.5749    0.0000 C   0  0  0  0  0  0  0  0  0  0  0  0
    2.1688   -0.3200    0.0000 O   0  0  0  0  0  0  0  0  0  0  0  0
    1.6839   -0.9874    0.0000 C   0  0  0  0  0  0  0  0  0  0  0  0
    0.8589   -0.9874    0.0000 O   0  0  0  0  0  0  0  0  0  0  0  0
    0.4464   -0.2730    0.0000 C   0  0  0  0  0  0  0  0  0  0  0  0
   -0.3786   -0.2730    0.0000 C   0  0  0  0  0  0  0  0  0  0  0  0
    2.1688   -1.6549    0.0000 C   0  0  0  0  0  0  0  0  0  0  0  0
    1.4544   -2.0674    0.0000 C   0  0  0  0  0  0  0  0  0  0  0  0
    2.5044   -2.4085    0.0000 C   0  0  0  0  0  0  0  0  0  0  0  0
    2.9535   -1.3999    0.0000 C   0  0  0  0  0  0  0  0  0  0  0  0
    3.6679   -1.8124    0.0000 C   0  0  0  0  0  0  0  0  0  0  0  0
  1  2  1  0  0  0  0
  1  3  2  0  0  0  0
  1  4  2  0  0  0  0
  1  5  1  0  0  0  0
  5  6  1  0  0  0  0
  7  6  1  0  0  0  0
  8  7  2  0  0  0  0
  9  8  1  0  0  0  0
  9 10  1  0  0  0  0
 10 11  1  0  0  0  0
 11 12  1  0  0  0  0
 12 13  1  0  0  0  0
 13 14  1  0  0  0  0
 11 15  1  0  0  0  0
 15 16  1  0  0  0  0
 15 17  1  0  0  0  0
 15 18  1  0  0  0  0
 18  9  2  0  0  0  0
 19 18  1  0  0  0  0
  6 19  2  0  0  0  0
M  END
> <ChemID>
100599

> <CAS>
26225-79-6

> <Original_SMILES>
CCOC1Oc2ccc(cc2C1(C)C)OS(C)(=O)=O

> <preferred_name>
Ethofumesate

> <dsstox_substance_id>
DTXSID8034580

> <dsstox_compound_id>
DTXCID6014580

> <qc_level>
DSSTox_Low

> <Canonical_QSARr>
CCOC1OC2C=CC(=CC=2C1(C)C)OS(C)(=O)=O

> <InChI_Code_QSARr>
InChI=1S/C13H18O5S/c1-5-16-12-13(2,3)10-8-9(18-19(4,14)15)6-7-11(10)17-12/h6-8,12H,5H2,1-4H3

> <InChI Key_QSARr>
IRCMYGHHKLLGHV-UHFFFAOYSA-N

> <Salt_Solvent>


> <Salt_Solvent_ID>
0

> <MPID>
99857

> <KocRef>
Schuurmann-Main

> <LogKOC>
2.53

> <Tr_1_Tst_0>
0

$$$$
100600
  Mrv171c012251911022D          

 16 16  0  0  0  0            999 V2000
    5.0951   -1.6143    0.0000 C   0  0  0  0  0  0  0  0  0  0  0  0
    5.0951   -2.4393    0.0000 C   0  0  0  0  0  0  0  0  0  0  0  0
    4.3806   -2.8518    0.0000 N   0  0  0  0  0  0  0  0  0  0  0  0
    3.6661   -2.4393    0.0000 C   0  0  0  0  0  0  0  0  0  0  0  0
    3.6661   -1.6143    0.0000 N   0  0  0  0  0  0  0  0  0  0  0  0
    2.9517   -1.2018    0.0000 C   0  0  0  0  0  0  0  0  0  0  0  0
    2.9517   -0.3768    0.0000 O   0  0  0  0  0  0  0  0  0  0  0  0
    2.2372    0.0357    0.0000 C   0  0  0  0  0  0  0  0  0  0  0  0
    2.2372   -1.6143    0.0000 N   0  0  0  0  0  0  0  0  0  0  0  0
    2.2372   -2.4393    0.0000 C   0  0  0  0  0  0  0  0  0  0  0  0
    1.5227   -2.8518    0.0000 N   0  0  0  0  0  0  0  0  0  0  0  0
    0.8082   -2.4393    0.0000 C   0  0  0  0  0  0  0  0  0  0  0  0
    0.0938   -2.8518    0.0000 C   0  0  0  0  0  0  0  0  0  0  0  0
    2.9517   -2.8518    0.0000 N   0  0  0  0  0  0  0  0  0  0  0  0
    5.8095   -2.8518    0.0000 C   0  0  0  0  0  0  0  0  0  0  0  0
    6.5240   -2.4393    0.0000 C   0  0  0  0  0  0  0  0  0  0  0  0
  1  2  1  0  0  0  0
  2  3  1  0  0  0  0
  3  4  1  0  0  0  0
  5  4  1  0  0  0  0
  6  5  2  0  0  0  0
  6  7  1  0  0  0  0
  7  8  1  0  0  0  0
  9  6  1  0  0  0  0
 10  9  2  0  0  0  0
 10 11  1  0  0  0  0
 11 12  1  0  0  0  0
 12 13  1  0  0  0  0
 14 10  1  0  0  0  0
  4 14  2  0  0  0  0
  2 15  1  0  0  0  0
 15 16  1  0  0  0  0
M  END
> <ChemID>
100600

> <CAS>
26259-45-0

> <Original_SMILES>
COc1[n]c(NCC)[n]c(NC(C)CC)[n]1

> <preferred_name>
Secbumeton

> <dsstox_substance_id>
DTXSID8037594

> <dsstox_compound_id>
DTXCID6017594

> <qc_level>
DSSTox_Low

> <Canonical_QSARr>
COC1N=C(NCC)N=C(NC(C)CC)N=1

> <InChI_Code_QSARr>
InChI=1S/C10H19N5O/c1-5-7(3)12-9-13-8(11-6-2)14-10(15-9)16-4/h7H,5-6H2,1-4H3,(H2,11,12,13,14,15)

> <InChI Key_QSARr>
ZJMZZNVGNSWOOM-UHFFFAOYSA-N

> <Salt_Solvent>


> <Salt_Solvent_ID>
0

> <MPID>
99858

> <KocRef>
Schuurmann-Main

> <LogKOC>
2.78

> <Tr_1_Tst_0>
1

$$$$
100601
  Mrv171c012251911022D          

 20 20  0  0  0  0            999 V2000
    3.0746   -1.7033    0.0000 N   0  0  0  0  0  0  0  0  0  0  0  0
    2.6621   -0.9888    0.0000 C   0  0  0  0  0  0  0  0  0  0  0  0
    1.8371   -0.9888    0.0000 C   0  0  0  0  0  0  0  0  0  0  0  0
    1.4246   -0.2743    0.0000 Cl  0  0  0  0  0  0  0  0  0  0  0  0
    3.8996   -1.7033    0.0000 C   0  0  0  0  0  0  0  0  0  0  0  0
    4.3121   -0.9888    0.0000 C   0  0  0  0  0  0  0  0  0  0  0  0
    3.8996   -0.2743    0.0000 Cl  0  0  0  0  0  0  0  0  0  0  0  0
    2.6621   -2.4177    0.0000 C   0  0  0  0  0  0  0  0  0  0  0  0
    1.8371   -2.4177    0.0000 C   0  0  0  0  0  0  0  0  0  0  0  0
    1.4246   -1.7033    0.0000 N   0  3  0  0  0  0  0  0  0  0  0  0
    1.3384   -0.8828    0.0000 O   0  0  0  0  0  0  0  0  0  0  0  0
    0.5996   -1.7033    0.0000 O   0  5  0  0  0  0  0  0  0  0  0  0
    1.4246   -3.1322    0.0000 C   0  0  0  0  0  0  0  0  0  0  0  0
    1.8371   -3.8467    0.0000 C   0  0  0  0  0  0  0  0  0  0  0  0
    1.4246   -4.5612    0.0000 C   0  0  0  0  0  0  0  0  0  0  0  0
    2.6621   -3.8467    0.0000 C   0  0  0  0  0  0  0  0  0  0  0  0
    3.0746   -3.1322    0.0000 C   0  0  0  0  0  0  0  0  0  0  0  0
    3.8996   -3.1322    0.0000 N   0  3  0  0  0  0  0  0  0  0  0  0
    4.3121   -3.8467    0.0000 O   0  0  0  0  0  0  0  0  0  0  0  0
    4.3121   -2.4177    0.0000 O   0  5  0  0  0  0  0  0  0  0  0  0
  1  2  1  0  0  0  0
  2  3  1  0  0  0  0
  3  4  1  0  0  0  0
  1  5  1  0  0  0  0
  5  6  1  0  0  0  0
  6  7  1  0  0  0  0
  1  8  1  0  0  0  0
  9  8  1  0  0  0  0
  9 10  1  0  0  0  0
 10 11  2  0  0  0  0
 10 12  1  0  0  0  0
 13  9  2  0  0  0  0
 14 13  1  0  0  0  0
 14 15  1  0  0  0  0
 16 14  2  0  0  0  0
 17 16  1  0  0  0  0
  8 17  2  0  0  0  0
 17 18  1  0  0  0  0
 18 19  2  0  0  0  0
 18 20  1  0  0  0  0
M  CHG  4  10   1  12  -1  18   1  20  -1
M  END
> <ChemID>
100601

> <CAS>
26389-78-6

> <Original_SMILES>
Cc1cc(c(c(c1)[N+]([O-])=O)N(CCCl)CCCl)[N+]([O-])=O

> <preferred_name>
N,N-Bis(2-chloroethyl)-4-methyl-2,6-dinitroaniline

> <dsstox_substance_id>
DTXSID8042183

> <dsstox_compound_id>
DTXCID6022183

> <qc_level>
DSSTox_Low

> <Canonical_QSARr>
CC1=CC(=C(C(=C1)[N+]([O-])=O)N(CCCl)CCCl)[N+]([O-])=O

> <InChI_Code_QSARr>
InChI=1S/C11H13Cl2N3O4/c1-8-6-9(15(17)18)11(10(7-8)16(19)20)14(4-2-12)5-3-13/h6-7H,2-5H2,1H3

> <InChI Key_QSARr>
XKUWFOYPQIVFMM-UHFFFAOYSA-N

> <Salt_Solvent>


> <Salt_Solvent_ID>
0

> <MPID>
99859

> <KocRef>
Schuurmann-Main

> <LogKOC>
3.94

> <Tr_1_Tst_0>
1

$$$$
100602
  Mrv171c012251911022D          

 24 25  0  0  0  0            999 V2000
    2.1719   -2.7936    0.0000 C   0  0  0  0  0  0  0  0  0  0  0  0
    2.1719   -3.6186    0.0000 C   0  0  0  0  0  0  0  0  0  0  0  0
    2.8864   -4.0311    0.0000 C   0  0  0  0  0  0  0  0  0  0  0  0
    2.8864   -4.8561    0.0000 C   0  0  0  0  0  0  0  0  0  0  0  0
    2.8864   -5.6811    0.0000 F   0  0  0  0  0  0  0  0  0  0  0  0
    3.7114   -4.8561    0.0000 F   0  0  0  0  0  0  0  0  0  0  0  0
    2.0614   -4.8561    0.0000 F   0  0  0  0  0  0  0  0  0  0  0  0
    3.6009   -3.6186    0.0000 C   0  0  0  0  0  0  0  0  0  0  0  0
    3.6009   -2.7936    0.0000 C   0  0  0  0  0  0  0  0  0  0  0  0
    4.3153   -2.3811    0.0000 N   0  3  0  0  0  0  0  0  0  0  0  0
    4.3153   -1.5561    0.0000 O   0  0  0  0  0  0  0  0  0  0  0  0
    5.0298   -2.7936    0.0000 O   0  5  0  0  0  0  0  0  0  0  0  0
    2.8864   -2.3811    0.0000 C   0  0  0  0  0  0  0  0  0  0  0  0
    2.8864   -1.5561    0.0000 N   0  0  0  0  0  0  0  0  0  0  0  0
    2.1719   -1.1436    0.0000 C   0  0  0  0  0  0  0  0  0  0  0  0
    2.1719   -0.3186    0.0000 C   0  0  0  0  0  0  0  0  0  0  0  0
    1.4575    0.0939    0.0000 C   0  0  0  0  0  0  0  0  0  0  0  0
    3.6009   -1.1436    0.0000 C   0  0  0  0  0  0  0  0  0  0  0  0
    3.6009   -0.3186    0.0000 C   0  0  0  0  0  0  0  0  0  0  0  0
    4.0134    0.3958    0.0000 C   0  0  0  0  0  0  0  0  0  0  0  0
    3.1884    0.3958    0.0000 C   0  0  0  0  0  0  0  0  0  0  0  0
    1.4575   -2.3811    0.0000 N   0  3  0  0  0  0  0  0  0  0  0  0
    1.4575   -1.5561    0.0000 O   0  0  0  0  0  0  0  0  0  0  0  0
    0.7430   -2.7936    0.0000 O   0  5  0  0  0  0  0  0  0  0  0  0
  2  1  1  0  0  0  0
  3  2  2  0  0  0  0
  3  4  1  0  0  0  0
  4  5  1  0  0  0  0
  4  6  1  0  0  0  0
  4  7  1  0  0  0  0
  8  3  1  0  0  0  0
  9  8  2  0  0  0  0
  9 10  1  0  0  0  0
 10 11  2  0  0  0  0
 10 12  1  0  0  0  0
 13  9  1  0  0  0  0
  1 13  2  0  0  0  0
 13 14  1  0  0  0  0
 14 15  1  0  0  0  0
 15 16  1  0  0  0  0
 16 17  1  0  0  0  0
 14 18  1  0  0  0  0
 18 19  1  0  0  0  0
 20 19  1  0  0  0  0
 21 20  1  0  0  0  0
 19 21  1  0  0  0  0
  1 22  1  0  0  0  0
 22 23  2  0  0  0  0
 22 24  1  0  0  0  0
M  CHG  4  10   1  12  -1  22   1  24  -1
M  END
> <ChemID>
100602

> <CAS>
26399-36-0

> <Original_SMILES>
CCCN(CC1CC1)c1c(cc(cc1[N+]([O-])=O)C(F)(F)F)[N+]([O-])=O

> <preferred_name>
Profluralin

> <dsstox_substance_id>
DTXSID2044559

> <dsstox_compound_id>
DTXCID0024559

> <qc_level>
DSSTox_Low

> <Canonical_QSARr>
CCCN(CC1CC1)C1C(=CC(=CC=1[N+]([O-])=O)C(F)(F)F)[N+]([O-])=O

> <InChI_Code_QSARr>
InChI=1S/C14H16F3N3O4/c1-2-5-18(8-9-3-4-9)13-11(19(21)22)6-10(14(15,16)17)7-12(13)20(23)24/h6-7,9H,2-5,8H2,1H3

> <InChI Key_QSARr>
ITVQAKZNYJEWKS-UHFFFAOYSA-N

> <Salt_Solvent>


> <Salt_Solvent_ID>
0

> <MPID>
99860

> <KocRef>
Schuurmann-Main

> <LogKOC>
4.01

> <Tr_1_Tst_0>
1

$$$$
100603
  Mrv171c012251911022D          

 22 22  0  0  0  0            999 V2000
    3.5932   -1.1923    0.0000 C   0  0  0  0  0  0  0  0  0  0  0  0
    4.4182   -1.1923    0.0000 Cl  0  0  0  0  0  0  0  0  0  0  0  0
    2.7682   -1.1923    0.0000 Cl  0  0  0  0  0  0  0  0  0  0  0  0
    3.5932   -0.3673    0.0000 Cl  0  0  0  0  0  0  0  0  0  0  0  0
    3.5932   -2.0173    0.0000 C   0  0  0  0  0  0  0  0  0  0  0  0
    4.3077   -2.4298    0.0000 N   0  0  0  0  0  0  0  0  0  0  0  0
    5.0222   -2.0173    0.0000 C   0  0  0  0  0  0  0  0  0  0  0  0
    5.7367   -2.4298    0.0000 O   0  0  0  0  0  0  0  0  0  0  0  0
    2.8788   -2.4298    0.0000 N   0  0  0  0  0  0  0  0  0  0  0  0
    2.1643   -2.0173    0.0000 C   0  0  0  0  0  0  0  0  0  0  0  0
    1.4498   -2.4298    0.0000 C   0  0  0  0  0  0  0  0  0  0  0  0
    1.4498   -3.2548    0.0000 N   0  0  0  0  0  0  0  0  0  0  0  0
    0.7354   -3.6673    0.0000 C   0  0  0  0  0  0  0  0  0  0  0  0
    0.7354   -4.4923    0.0000 N   0  0  0  0  0  0  0  0  0  0  0  0
    0.0209   -4.9048    0.0000 C   0  0  0  0  0  0  0  0  0  0  0  0
    0.0209   -5.7298    0.0000 O   0  0  0  0  0  0  0  0  0  0  0  0
    0.0209   -3.2548    0.0000 C   0  0  0  0  0  0  0  0  0  0  0  0
   -0.6936   -2.8423    0.0000 Cl  0  0  0  0  0  0  0  0  0  0  0  0
   -0.3916   -3.9693    0.0000 Cl  0  0  0  0  0  0  0  0  0  0  0  0
    0.4334   -2.5403    0.0000 Cl  0  0  0  0  0  0  0  0  0  0  0  0
    2.1643   -3.6673    0.0000 C   0  0  0  0  0  0  0  0  0  0  0  0
    2.8788   -3.2548    0.0000 C   0  0  0  0  0  0  0  0  0  0  0  0
  1  2  1  0  0  0  0
  1  3  1  0  0  0  0
  1  4  1  0  0  0  0
  1  5  1  0  0  0  0
  5  6  1  0  0  0  0
  6  7  1  0  0  0  0
  7  8  2  0  0  0  0
  5  9  1  0  0  0  0
 10  9  1  0  0  0  0
 11 10  1  0  0  0  0
 12 11  1  0  0  0  0
 12 13  1  0  0  0  0
 13 14  1  0  0  0  0
 14 15  1  0  0  0  0
 15 16  2  0  0  0  0
 13 17  1  0  0  0  0
 17 18  1  0  0  0  0
 17 19  1  0  0  0  0
 17 20  1  0  0  0  0
 21 12  1  0  0  0  0
 22 21  1  0  0  0  0
  9 22  1  0  0  0  0
M  END
> <ChemID>
100603

> <CAS>
26644-46-2

> <Original_SMILES>
O=CNC(N1CCN(CC1)C(NC=O)C(Cl)(Cl)Cl)C(Cl)(Cl)Cl

> <preferred_name>
Triforine

> <dsstox_substance_id>
DTXSID5032654

> <dsstox_compound_id>
DTXCID3012654

> <qc_level>
DSSTox_Low

> <Canonical_QSARr>
O=CNC(N1CCN(CC1)C(NC=O)C(Cl)(Cl)Cl)C(Cl)(Cl)Cl

> <InChI_Code_QSARr>
InChI=1S/C10H14Cl6N4O2/c11-9(12,13)7(17-5-21)19-1-2-20(4-3-19)8(18-6-22)10(14,15)16/h5-8H,1-4H2,(H,17,21)(H,18,22)

> <InChI Key_QSARr>
RROQIUMZODEXOR-UHFFFAOYSA-N

> <Salt_Solvent>


> <Salt_Solvent_ID>
0

> <MPID>
99861

> <KocRef>
Schuurmann-Main

> <LogKOC>
2.3

> <Tr_1_Tst_0>
0

$$$$
100605
  Mrv171c012251911022D          

 20 21  0  0  0  0            999 V2000
    0.0000    0.0000    0.0000 C   0  0  0  0  0  0  0  0  0  0  0  0
    0.7145   -0.4125    0.0000 N   0  0  0  0  0  0  0  0  0  0  0  0
    0.7145   -1.2375    0.0000 C   0  0  0  0  0  0  0  0  0  0  0  0
    1.4289   -1.6500    0.0000 C   0  0  0  0  0  0  0  0  0  0  0  0
    1.4289   -2.4750    0.0000 N   0  0  0  0  0  0  0  0  0  0  0  0
    0.7145   -2.8875    0.0000 N   0  0  0  0  0  0  0  0  0  0  0  0
    0.0000   -2.4750    0.0000 C   0  0  0  0  0  0  0  0  0  0  0  0
   -0.7145   -2.8875    0.0000 O   0  0  0  0  0  0  0  0  0  0  0  0
    0.0000   -1.6500    0.0000 C   0  0  0  0  0  0  0  0  0  0  0  0
   -0.7145   -1.2375    0.0000 Cl  0  0  0  0  0  0  0  0  0  0  0  0
    0.7145   -3.7125    0.0000 C   0  0  0  0  0  0  0  0  0  0  0  0
    1.4289   -4.1250    0.0000 C   0  0  0  0  0  0  0  0  0  0  0  0
    1.4289   -4.9500    0.0000 C   0  0  0  0  0  0  0  0  0  0  0  0
    0.7145   -5.3625    0.0000 C   0  0  0  0  0  0  0  0  0  0  0  0
   -0.0000   -4.9500    0.0000 C   0  0  0  0  0  0  0  0  0  0  0  0
    0.0000   -4.1250    0.0000 C   0  0  0  0  0  0  0  0  0  0  0  0
   -0.7145   -5.3625    0.0000 C   0  0  0  0  0  0  0  0  0  0  0  0
   -1.4289   -5.7750    0.0000 F   0  0  0  0  0  0  0  0  0  0  0  0
   -1.1270   -4.6480    0.0000 F   0  0  0  0  0  0  0  0  0  0  0  0
   -0.3020   -6.0770    0.0000 F   0  0  0  0  0  0  0  0  0  0  0  0
  2  1  1  4  0  0  0
  2  3  2  0  0  0  0
  3  4  1  0  0  0  0
  4  5  2  0  0  0  0
  5  6  1  0  0  0  0
  6  7  1  0  0  0  0
  7  8  2  0  0  0  0
  7  9  1  0  0  0  0
  3  9  1  0  0  0  0
  9 10  1  0  0  0  0
  6 11  1  0  0  0  0
 11 12  1  0  0  0  0
 12 13  2  0  0  0  0
 13 14  1  0  0  0  0
 14 15  2  0  0  0  0
 15 16  1  0  0  0  0
 11 16  2  0  0  0  0
 15 17  1  0  0  0  0
 17 18  1  0  0  0  0
 17 19  1  0  0  0  0
 17 20  1  0  0  0  0
M  END
> <ChemID>
100605

> <CAS>
27314-13-2

> <Original_SMILES>
CNC1C=NN(C(=O)C=1Cl)c1cc(ccc1)C(F)(F)F

> <preferred_name>
Norflurazon

> <dsstox_substance_id>
DTXSID8024234

> <dsstox_compound_id>
DTXCID304234

> <qc_level>
DSSTox_Low

> <Canonical_QSARr>
CN=C1C=NN(C(=O)C1Cl)C1C=CC=C(C=1)C(F)(F)F

> <InChI_Code_QSARr>
InChI=1S/C12H9ClF3N3O/c1-17-9-6-18-19(11(20)10(9)13)8-4-2-3-7(5-8)12(14,15)16/h2-6,10H,1H3

> <InChI Key_QSARr>
LXZVTHMPPAYLTH-UHFFFAOYSA-N

> <Salt_Solvent>


> <Salt_Solvent_ID>
0

> <MPID>
99862

> <KocRef>
Schuurmann-Main

> <LogKOC>
3.28

> <Tr_1_Tst_0>
1

$$$$
100606
  Mrv171c012251911022D          

 14 15  0  0  0  0            999 V2000
    0.3361   -2.6825    0.0000 C   0  0  0  0  0  0  0  0  0  0  0  0
   -0.1488   -2.0151    0.0000 O   0  0  0  0  0  0  0  0  0  0  0  0
    0.3361   -1.3476    0.0000 C   0  0  0  0  0  0  0  0  0  0  0  0
    0.0812   -0.5630    0.0000 O   0  0  0  0  0  0  0  0  0  0  0  0
    1.1207   -1.6026    0.0000 C   0  0  0  0  0  0  0  0  0  0  0  0
    1.8352   -1.1901    0.0000 C   0  0  0  0  0  0  0  0  0  0  0  0
    1.8352   -0.3651    0.0000 Cl  0  0  0  0  0  0  0  0  0  0  0  0
    2.5497   -1.6026    0.0000 C   0  0  0  0  0  0  0  0  0  0  0  0
    3.2641   -1.1901    0.0000 Cl  0  0  0  0  0  0  0  0  0  0  0  0
    2.5497   -2.4276    0.0000 C   0  0  0  0  0  0  0  0  0  0  0  0
    3.2641   -2.8401    0.0000 Cl  0  0  0  0  0  0  0  0  0  0  0  0
    1.8352   -2.8401    0.0000 C   0  0  0  0  0  0  0  0  0  0  0  0
    1.8352   -3.6651    0.0000 Cl  0  0  0  0  0  0  0  0  0  0  0  0
    1.1207   -2.4276    0.0000 C   0  0  0  0  0  0  0  0  0  0  0  0
  2  1  1  0  0  0  0
  3  2  1  0  0  0  0
  3  4  2  0  0  0  0
  5  3  1  0  0  0  0
  5  6  1  0  0  0  0
  6  7  1  0  0  0  0
  6  8  2  0  0  0  0
  8  9  1  0  0  0  0
  8 10  1  0  0  0  0
 10 11  1  0  0  0  0
 10 12  2  0  0  0  0
 12 13  1  0  0  0  0
 12 14  1  0  0  0  0
  1 14  1  0  0  0  0
 14  5  2  0  0  0  0
M  END
> <ChemID>
100606

> <CAS>
27355-22-2

> <Original_SMILES>
O=C1OCc2c1c(Cl)c(Cl)c(Cl)c2Cl

> <preferred_name>
Fthalide

> <dsstox_substance_id>
DTXSID2058045

> <dsstox_compound_id>
DTXCID8031813

> <qc_level>
DSSTox_High

> <Canonical_QSARr>
O=C1OCC2=C1C(Cl)=C(Cl)C(Cl)=C2Cl

> <InChI_Code_QSARr>
InChI=1S/C8H2Cl4O2/c9-4-2-1-14-8(13)3(2)5(10)7(12)6(4)11/h1H2

> <InChI Key_QSARr>
NMWKWBPNKPGATC-UHFFFAOYSA-N

> <Salt_Solvent>


> <Salt_Solvent_ID>
0

> <MPID>
99863

> <KocRef>
SRC 1992 Polar

> <LogKOC>
3.3

> <Tr_1_Tst_0>
1

$$$$
100607
  Mrv171c012251911022D          

 28 28  0  0  0  0            999 V2000
    3.3544   -3.6456    0.0000 C   0  0  0  0  0  0  0  0  0  0  0  0
    2.8143   -4.2692    0.0000 C   0  0  0  0  0  0  0  0  0  0  0  0
    2.0041   -4.1133    0.0000 O   0  0  0  0  0  0  0  0  0  0  0  0
    1.4640   -4.7369    0.0000 C   0  0  0  0  0  0  0  0  0  0  0  0
    0.6539   -4.5810    0.0000 C   0  0  0  0  0  0  0  0  0  0  0  0
    0.1138   -5.2047    0.0000 C   0  0  0  0  0  0  0  0  0  0  0  0
   -0.6963   -5.0487    0.0000 C   0  0  0  0  0  0  0  0  0  0  0  0
   -1.2364   -5.6724    0.0000 C   0  0  0  0  0  0  0  0  0  0  0  0
   -2.0465   -5.5165    0.0000 C   0  0  0  0  0  0  0  0  0  0  0  0
   -2.5866   -6.1401    0.0000 C   0  0  0  0  0  0  0  0  0  0  0  0
   -2.3166   -4.7369    0.0000 C   0  0  0  0  0  0  0  0  0  0  0  0
    3.0843   -5.0487    0.0000 O   0  0  0  0  0  0  0  0  0  0  0  0
    4.1645   -3.8015    0.0000 C   0  0  0  0  0  0  0  0  0  0  0  0
    4.4345   -4.5810    0.0000 C   0  0  0  0  0  0  0  0  0  0  0  0
    3.8944   -5.2047    0.0000 O   0  0  0  0  0  0  0  0  0  0  0  0
    4.1645   -5.9842    0.0000 C   0  0  0  0  0  0  0  0  0  0  0  0
    4.9746   -6.1401    0.0000 C   0  0  0  0  0  0  0  0  0  0  0  0
    5.5147   -5.5165    0.0000 C   0  0  0  0  0  0  0  0  0  0  0  0
    6.3248   -5.6724    0.0000 C   0  0  0  0  0  0  0  0  0  0  0  0
    6.8649   -5.0487    0.0000 C   0  0  0  0  0  0  0  0  0  0  0  0
    7.6751   -5.2047    0.0000 C   0  0  0  0  0  0  0  0  0  0  0  0
    8.2152   -4.5810    0.0000 C   0  0  0  0  0  0  0  0  0  0  0  0
    7.9451   -5.9842    0.0000 C   0  0  0  0  0  0  0  0  0  0  0  0
    5.2447   -4.7369    0.0000 O   0  0  0  0  0  0  0  0  0  0  0  0
    4.7046   -3.1778    0.0000 C   0  0  0  0  0  0  0  0  0  0  0  0
    4.4345   -2.3983    0.0000 C   0  0  0  0  0  0  0  0  0  0  0  0
    3.6244   -2.2424    0.0000 C   0  0  0  0  0  0  0  0  0  0  0  0
    3.0843   -2.8660    0.0000 C   0  0  0  0  0  0  0  0  0  0  0  0
  1  2  1  0  0  0  0
  2  3  1  0  0  0  0
  3  4  1  0  0  0  0
  4  5  1  0  0  0  0
  5  6  1  0  0  0  0
  6  7  1  0  0  0  0
  7  8  1  0  0  0  0
  8  9  1  0  0  0  0
  9 10  1  0  0  0  0
  9 11  1  0  0  0  0
  2 12  2  0  0  0  0
 13  1  1  0  0  0  0
 13 14  1  0  0  0  0
 14 15  1  0  0  0  0
 15 16  1  0  0  0  0
 16 17  1  0  0  0  0
 17 18  1  0  0  0  0
 18 19  1  0  0  0  0
 19 20  1  0  0  0  0
 20 21  1  0  0  0  0
 21 22  1  0  0  0  0
 21 23  1  0  0  0  0
 14 24  2  0  0  0  0
 25 13  2  0  0  0  0
 26 25  1  0  0  0  0
 27 26  2  0  0  0  0
 28 27  1  0  0  0  0
  1 28  2  0  0  0  0
M  END
> <ChemID>
100607

> <CAS>
131-20-4

> <Original_SMILES>
CC(C)CCCCCOC(=O)c1ccccc1C(=O)OCCCCCC(C)C

> <preferred_name>
Diisooctyl phthalate

> <dsstox_substance_id>
DTXSID50873226

> <dsstox_compound_id>
DTXCID607933

> <qc_level>
DSSTox_Low

> <Canonical_QSARr>
CC(C)CCCCCOC(=O)C1=CC=CC=C1C(=O)OCCCCCC(C)C

> <InChI_Code_QSARr>
InChI=1S/C24H38O4/c1-19(2)13-7-5-11-17-27-23(25)21-15-9-10-16-22(21)24(26)28-18-12-6-8-14-20(3)4/h9-10,15-16,19-20H,5-8,11-14,17-18H2,1-4H3

> <InChI Key_QSARr>
IJFPVINAQGWBRJ-UHFFFAOYSA-N

> <Salt_Solvent>


> <Salt_Solvent_ID>
0

> <MPID>
99864

> <KocRef>
Schuurmann-Main

> <LogKOC>
3.21

> <Tr_1_Tst_0>
1

$$$$
100608
  Mrv171c012251911022D          

 14 14  0  0  0  0            999 V2000
    2.2624   -1.6500    0.0000 O   0  0  0  0  0  0  0  0  0  0  0  0
    2.2624   -2.4750    0.0000 C   0  0  0  0  0  0  0  0  0  0  0  0
    2.9769   -1.2375    0.0000 C   0  0  0  0  0  0  0  0  0  0  0  0
    3.6914   -1.6500    0.0000 C   0  0  0  0  0  0  0  0  0  0  0  0
    4.4058   -1.2375    0.0000 C   0  0  0  0  0  0  0  0  0  0  0  0
    4.4058   -0.4125    0.0000 C   0  0  0  0  0  0  0  0  0  0  0  0
    3.6914    0.0000    0.0000 C   0  0  0  0  0  0  0  0  0  0  0  0
    3.6914    0.8250    0.0000 N   0  0  0  0  0  0  0  0  0  0  0  0
    2.9769    1.2375    0.0000 C   0  0  0  0  0  0  0  0  0  0  0  0
    2.9769    2.0625    0.0000 N   0  0  0  0  0  0  0  0  0  0  0  0
    2.2624    2.4750    0.0000 C   0  0  0  0  0  0  0  0  0  0  0  0
    3.6914    2.4750    0.0000 C   0  0  0  0  0  0  0  0  0  0  0  0
    2.2624    0.8250    0.0000 O   0  0  0  0  0  0  0  0  0  0  0  0
    2.9769   -0.4125    0.0000 C   0  0  0  0  0  0  0  0  0  0  0  0
  1  2  1  0  0  0  0
  1  3  1  0  0  0  0
  4  3  2  0  0  0  0
  5  4  1  0  0  0  0
  6  5  2  0  0  0  0
  7  6  1  0  0  0  0
  7  8  1  0  0  0  0
  8  9  1  0  0  0  0
  9 10  1  0  0  0  0
 10 11  1  0  0  0  0
 10 12  1  0  0  0  0
  9 13  2  0  0  0  0
 14  7  2  0  0  0  0
  3 14  1  0  0  0  0
M  END
> <ChemID>
100608

> <CAS>
28170-54-9

> <Original_SMILES>
COc1cc(ccc1)NC(=O)N(C)C

> <preferred_name>
Urea, 3-(m-methoxyphenyl)-1,1-dimethyl-

> <dsstox_substance_id>
DTXSID30182444

> <dsstox_compound_id>
DTXCID40104935

> <qc_level>
Public_Medium

> <Canonical_QSARr>
CN(C)C(=O)NC1=CC(=CC=C1)OC

> <InChI_Code_QSARr>
InChI=1S/C10H14N2O2/c1-12(2)10(13)11-8-5-4-6-9(7-8)14-3/h4-7H,1-3H3,(H,11,13)

> <InChI Key_QSARr>
BGDUKFUILQWOAE-UHFFFAOYSA-N

> <Salt_Solvent>


> <Salt_Solvent_ID>
0

> <MPID>
99865

> <KocRef>
Schuurmann-Main

> <LogKOC>
1.72

> <Tr_1_Tst_0>
0

$$$$
100609
  Mrv171c012251911022D          

 16 16  0  0  0  0            999 V2000
    2.4881   -2.4750    0.0000 C   0  0  0  0  0  0  0  0  0  0  0  0
    1.6631   -2.4750    0.0000 N   0  0  0  0  0  0  0  0  0  0  0  0
    1.2506   -3.1894    0.0000 C   0  0  0  0  0  0  0  0  0  0  0  0
    0.4256   -3.1894    0.0000 C   0  0  0  0  0  0  0  0  0  0  0  0
    1.2506   -1.7605    0.0000 C   0  0  0  0  0  0  0  0  0  0  0  0
    1.6631   -1.0460    0.0000 C   0  0  0  0  0  0  0  0  0  0  0  0
    2.9006   -1.7605    0.0000 S   0  0  0  0  0  0  0  0  0  0  0  0
    3.7256   -1.7605    0.0000 C   0  0  0  0  0  0  0  0  0  0  0  0
    4.1381   -1.0460    0.0000 C   0  0  0  0  0  0  0  0  0  0  0  0
    4.9631   -1.0460    0.0000 C   0  0  0  0  0  0  0  0  0  0  0  0
    5.3756   -0.3316    0.0000 C   0  0  0  0  0  0  0  0  0  0  0  0
    4.9631    0.3829    0.0000 C   0  0  0  0  0  0  0  0  0  0  0  0
    5.3756    1.0974    0.0000 Cl  0  0  0  0  0  0  0  0  0  0  0  0
    4.1381    0.3829    0.0000 C   0  0  0  0  0  0  0  0  0  0  0  0
    3.7256   -0.3316    0.0000 C   0  0  0  0  0  0  0  0  0  0  0  0
    2.9006   -3.1894    0.0000 O   0  0  0  0  0  0  0  0  0  0  0  0
  1  2  1  0  0  0  0
  2  3  1  0  0  0  0
  3  4  1  0  0  0  0
  2  5  1  0  0  0  0
  5  6  1  0  0  0  0
  1  7  1  0  0  0  0
  7  8  1  0  0  0  0
  8  9  1  0  0  0  0
 10  9  1  0  0  0  0
 11 10  2  0  0  0  0
 12 11  1  0  0  0  0
 12 13  1  0  0  0  0
 14 12  2  0  0  0  0
 15 14  1  0  0  0  0
  9 15  2  0  0  0  0
  1 16  2  0  0  0  0
M  END
> <ChemID>
100609

> <CAS>
28249-77-6

> <Original_SMILES>
CCN(CC)C(=O)SCc1ccc(Cl)cc1

> <preferred_name>
Thiobencarb

> <dsstox_substance_id>
DTXSID6024337

> <dsstox_compound_id>
DTXCID704337

> <qc_level>
DSSTox_Low

> <Canonical_QSARr>
CCN(CC)C(=O)SCC1C=CC(Cl)=CC=1

> <InChI_Code_QSARr>
InChI=1S/C12H16ClNOS/c1-3-14(4-2)12(15)16-9-10-5-7-11(13)8-6-10/h5-8H,3-4,9H2,1-2H3

> <InChI Key_QSARr>
QHTQREMOGMZHJV-UHFFFAOYSA-N

> <Salt_Solvent>


> <Salt_Solvent_ID>
0

> <MPID>
99866

> <KocRef>
Schuurmann-Main

> <LogKOC>
3.27

> <Tr_1_Tst_0>
1

$$$$
100610
  Mrv171c012251911022D          

 22 22  0  0  0  0            999 V2000
    2.9574   -2.3230    0.0000 C   0  0  0  0  0  0  0  0  0  0  0  0
    3.6718   -1.9105    0.0000 N   0  0  0  0  0  0  0  0  0  0  0  0
    2.2429   -1.9105    0.0000 C   0  0  0  0  0  0  0  0  0  0  0  0
    2.2429   -1.0855    0.0000 N   0  3  0  0  0  0  0  0  0  0  0  0
    1.5284   -0.6730    0.0000 O   0  0  0  0  0  0  0  0  0  0  0  0
    2.9574   -0.6730    0.0000 O   0  5  0  0  0  0  0  0  0  0  0  0
    1.5284   -2.3230    0.0000 C   0  0  0  0  0  0  0  0  0  0  0  0
    0.8140   -1.9105    0.0000 N   0  0  0  0  0  0  0  0  0  0  0  0
    0.0995   -2.3230    0.0000 C   0  0  0  0  0  0  0  0  0  0  0  0
   -0.6150   -1.9105    0.0000 C   0  0  0  0  0  0  0  0  0  0  0  0
    0.8140   -1.0855    0.0000 C   0  0  0  0  0  0  0  0  0  0  0  0
    0.0995   -0.6730    0.0000 C   0  0  0  0  0  0  0  0  0  0  0  0
    1.5284   -3.1480    0.0000 C   0  0  0  0  0  0  0  0  0  0  0  0
    0.8140   -3.5605    0.0000 N   0  3  0  0  0  0  0  0  0  0  0  0
    0.8140   -4.3855    0.0000 O   0  0  0  0  0  0  0  0  0  0  0  0
    0.0995   -3.1480    0.0000 O   0  5  0  0  0  0  0  0  0  0  0  0
    2.2429   -3.5605    0.0000 C   0  0  0  0  0  0  0  0  0  0  0  0
    2.9574   -3.1480    0.0000 C   0  0  0  0  0  0  0  0  0  0  0  0
    3.6718   -3.5605    0.0000 C   0  0  0  0  0  0  0  0  0  0  0  0
    4.3863   -3.9730    0.0000 F   0  0  0  0  0  0  0  0  0  0  0  0
    3.2593   -4.2750    0.0000 F   0  0  0  0  0  0  0  0  0  0  0  0
    4.0843   -2.8460    0.0000 F   0  0  0  0  0  0  0  0  0  0  0  0
  1  2  1  0  0  0  0
  3  1  2  0  0  0  0
  3  4  1  0  0  0  0
  4  5  2  0  0  0  0
  4  6  1  0  0  0  0
  7  3  1  0  0  0  0
  7  8  1  0  0  0  0
  8  9  1  0  0  0  0
  9 10  1  0  0  0  0
  8 11  1  0  0  0  0
 11 12  1  0  0  0  0
 13  7  2  0  0  0  0
 13 14  1  0  0  0  0
 14 15  2  0  0  0  0
 14 16  1  0  0  0  0
 17 13  1  0  0  0  0
 18 17  2  0  0  0  0
  1 18  1  0  0  0  0
 18 19  1  0  0  0  0
 19 20  1  0  0  0  0
 19 21  1  0  0  0  0
 19 22  1  0  0  0  0
M  CHG  4   4   1   6  -1  14   1  16  -1
M  END
> <ChemID>
100610

> <CAS>
29091-05-2

> <Original_SMILES>
CCN(CC)c1c(cc(c(N)c1[N+]([O-])=O)C(F)(F)F)[N+]([O-])=O

> <preferred_name>
Dinitramine

> <dsstox_substance_id>
DTXSID9040265

> <dsstox_compound_id>
DTXCID7020265

> <qc_level>
DSSTox_Low

> <Canonical_QSARr>
CCN(CC)C1=C(C=C(C(N)=C1[N+]([O-])=O)C(F)(F)F)[N+]([O-])=O

> <InChI_Code_QSARr>
InChI=1S/C11H13F3N4O4/c1-3-16(4-2)9-7(17(19)20)5-6(11(12,13)14)8(15)10(9)18(21)22/h5H,3-4,15H2,1-2H3

> <InChI Key_QSARr>
OFDYMSKSGFSLLM-UHFFFAOYSA-N

> <Salt_Solvent>


> <Salt_Solvent_ID>
0

> <MPID>
99867

> <KocRef>
Schuurmann-Main

> <LogKOC>
3.63

> <Tr_1_Tst_0>
1

$$$$
100611
  Mrv171c012251911022D          

 24 24  0  0  0  0            999 V2000
    2.8609   -2.8832    0.0000 C   0  0  0  0  0  0  0  0  0  0  0  0
    3.5754   -2.4707    0.0000 N   0  3  0  0  0  0  0  0  0  0  0  0
    4.2898   -2.8832    0.0000 O   0  0  0  0  0  0  0  0  0  0  0  0
    3.5754   -1.6457    0.0000 O   0  5  0  0  0  0  0  0  0  0  0  0
    2.1464   -2.4707    0.0000 C   0  0  0  0  0  0  0  0  0  0  0  0
    2.1464   -1.6457    0.0000 N   0  0  0  0  0  0  0  0  0  0  0  0
    1.4319   -1.2332    0.0000 C   0  0  0  0  0  0  0  0  0  0  0  0
    1.4319   -0.4082    0.0000 C   0  0  0  0  0  0  0  0  0  0  0  0
    0.7175    0.0043    0.0000 C   0  0  0  0  0  0  0  0  0  0  0  0
    2.8609   -1.2332    0.0000 C   0  0  0  0  0  0  0  0  0  0  0  0
    2.8609   -0.4082    0.0000 C   0  0  0  0  0  0  0  0  0  0  0  0
    3.5754    0.0043    0.0000 C   0  0  0  0  0  0  0  0  0  0  0  0
    1.4319   -2.8832    0.0000 C   0  0  0  0  0  0  0  0  0  0  0  0
    0.7175   -2.4707    0.0000 N   0  3  0  0  0  0  0  0  0  0  0  0
    0.0030   -2.8832    0.0000 O   0  0  0  0  0  0  0  0  0  0  0  0
    0.7175   -1.6457    0.0000 O   0  5  0  0  0  0  0  0  0  0  0  0
    1.4319   -3.7082    0.0000 C   0  0  0  0  0  0  0  0  0  0  0  0
    2.1464   -4.1207    0.0000 C   0  0  0  0  0  0  0  0  0  0  0  0
    2.1464   -4.9457    0.0000 C   0  0  0  0  0  0  0  0  0  0  0  0
    2.1464   -5.7707    0.0000 F   0  0  0  0  0  0  0  0  0  0  0  0
    1.3214   -4.9457    0.0000 F   0  0  0  0  0  0  0  0  0  0  0  0
    2.9714   -4.9457    0.0000 F   0  0  0  0  0  0  0  0  0  0  0  0
    2.8609   -3.7082    0.0000 C   0  0  0  0  0  0  0  0  0  0  0  0
    3.5754   -4.1207    0.0000 N   0  0  0  0  0  0  0  0  0  0  0  0
  1  2  1  0  0  0  0
  2  3  2  0  0  0  0
  2  4  1  0  0  0  0
  5  1  2  0  0  0  0
  5  6  1  0  0  0  0
  6  7  1  0  0  0  0
  7  8  1  0  0  0  0
  8  9  1  0  0  0  0
  6 10  1  0  0  0  0
 10 11  1  0  0  0  0
 11 12  1  0  0  0  0
 13  5  1  0  0  0  0
 13 14  1  0  0  0  0
 14 15  2  0  0  0  0
 14 16  1  0  0  0  0
 17 13  2  0  0  0  0
 18 17  1  0  0  0  0
 18 19  1  0  0  0  0
 19 20  1  0  0  0  0
 19 21  1  0  0  0  0
 19 22  1  0  0  0  0
 23 18  2  0  0  0  0
  1 23  1  0  0  0  0
 23 24  1  0  0  0  0
M  CHG  4   2   1   4  -1  14   1  16  -1
M  END
> <ChemID>
100611

> <CAS>
29091-21-2

> <Original_SMILES>
CCCN(CCC)c1c(cc(c(N)c1[N+]([O-])=O)C(F)(F)F)[N+]([O-])=O

> <preferred_name>
Prodiamine

> <dsstox_substance_id>
DTXSID1034210

> <dsstox_compound_id>
DTXCID9014210

> <qc_level>
DSSTox_Low

> <Canonical_QSARr>
CCCN(CCC)C1C(=CC(=C(N)C=1[N+]([O-])=O)C(F)(F)F)[N+]([O-])=O

> <InChI_Code_QSARr>
InChI=1S/C13H17F3N4O4/c1-3-5-18(6-4-2)11-9(19(21)22)7-8(13(14,15)16)10(17)12(11)20(23)24/h7H,3-6,17H2,1-2H3

> <InChI Key_QSARr>
RSVPPPHXAASNOL-UHFFFAOYSA-N

> <Salt_Solvent>


> <Salt_Solvent_ID>
0

> <MPID>
99868

> <KocRef>
USDA Pest Prop DB

> <LogKOC>
4.11

> <Tr_1_Tst_0>
1

$$$$
100612
  Mrv171c012251911022D          

 19 19  0  0  0  0            999 V2000
    3.2741   -1.7444    0.0000 N   0  0  0  0  0  0  0  0  0  0  0  0
    2.5597   -1.3319    0.0000 C   0  0  0  0  0  0  0  0  0  0  0  0
    2.5597   -0.5069    0.0000 O   0  0  0  0  0  0  0  0  0  0  0  0
    1.8452   -0.0944    0.0000 P   0  0  0  0  0  0  0  0  0  0  0  0
    1.1307    0.3181    0.0000 O   0  0  0  0  0  0  0  0  0  0  0  0
    1.1307    1.1431    0.0000 C   0  0  0  0  0  0  0  0  0  0  0  0
    1.4327   -0.8089    0.0000 O   0  0  0  0  0  0  0  0  0  0  0  0
    0.6077   -0.8089    0.0000 C   0  0  0  0  0  0  0  0  0  0  0  0
    2.2577    0.6200    0.0000 S   0  0  0  0  0  0  0  0  0  0  0  0
    1.8452   -1.7444    0.0000 C   0  0  0  0  0  0  0  0  0  0  0  0
    1.8452   -2.5694    0.0000 C   0  0  0  0  0  0  0  0  0  0  0  0
    1.1307   -2.9819    0.0000 C   0  0  0  0  0  0  0  0  0  0  0  0
    2.5597   -2.9819    0.0000 N   0  0  0  0  0  0  0  0  0  0  0  0
    3.2741   -2.5694    0.0000 C   0  0  0  0  0  0  0  0  0  0  0  0
    3.9886   -2.9819    0.0000 N   0  0  0  0  0  0  0  0  0  0  0  0
    3.9886   -3.8069    0.0000 C   0  0  0  0  0  0  0  0  0  0  0  0
    4.7031   -4.2194    0.0000 C   0  0  0  0  0  0  0  0  0  0  0  0
    4.7031   -2.5694    0.0000 C   0  0  0  0  0  0  0  0  0  0  0  0
    5.4175   -2.9819    0.0000 C   0  0  0  0  0  0  0  0  0  0  0  0
  2  1  1  0  0  0  0
  2  3  1  0  0  0  0
  3  4  1  0  0  0  0
  4  5  1  0  0  0  0
  5  6  1  0  0  0  0
  4  7  1  0  0  0  0
  7  8  1  0  0  0  0
  4  9  2  0  0  0  0
 10  2  2  0  0  0  0
 11 10  1  0  0  0  0
 11 12  1  0  0  0  0
 13 11  2  0  0  0  0
 14 13  1  0  0  0  0
  1 14  2  0  0  0  0
 14 15  1  0  0  0  0
 15 16  1  0  0  0  0
 16 17  1  0  0  0  0
 15 18  1  0  0  0  0
 18 19  1  0  0  0  0
M  END
> <ChemID>
100612

> <CAS>
29232-93-7

> <Original_SMILES>
Cc1cc([n]c([n]1)N(CC)CC)OP(=S)(OC)OC

> <preferred_name>
Pirimiphos-methyl

> <dsstox_substance_id>
DTXSID0024266

> <dsstox_compound_id>
DTXCID004266

> <qc_level>
DSSTox_Low

> <Canonical_QSARr>
CC1C=C(N=C(N=1)N(CC)CC)OP(=S)(OC)OC

> <InChI_Code_QSARr>
InChI=1S/C11H20N3O3PS/c1-6-14(7-2)11-12-9(3)8-10(13-11)17-18(19,15-4)16-5/h8H,6-7H2,1-5H3

> <InChI Key_QSARr>
QHOQHJPRIBSPCY-UHFFFAOYSA-N

> <Salt_Solvent>


> <Salt_Solvent_ID>
0

> <MPID>
99869

> <KocRef>
Schuurmann-Main

> <LogKOC>
3.0

> <Tr_1_Tst_0>
0

$$$$
100613
  Mrv171c012251911022D          

 11 11  0  0  0  0            999 V2000
    3.0787   -1.8563    0.0000 Br  0  0  0  0  0  0  0  0  0  0  0  0
    3.0787   -1.0313    0.0000 C   0  0  0  0  0  0  0  0  0  0  0  0
    3.7932   -0.6188    0.0000 C   0  0  0  0  0  0  0  0  0  0  0  0
    3.7932    0.2062    0.0000 C   0  0  0  0  0  0  0  0  0  0  0  0
    3.0787    0.6187    0.0000 C   0  0  0  0  0  0  0  0  0  0  0  0
    3.0787    1.4437    0.0000 N   0  3  0  0  0  0  0  0  0  0  0  0
    2.3642    1.8562    0.0000 O   0  0  0  0  0  0  0  0  0  0  0  0
    3.7932    1.8562    0.0000 O   0  5  0  0  0  0  0  0  0  0  0  0
    2.3642    0.2062    0.0000 C   0  0  0  0  0  0  0  0  0  0  0  0
    2.3642   -0.6188    0.0000 C   0  0  0  0  0  0  0  0  0  0  0  0
    1.6498   -1.0313    0.0000 Cl  0  0  0  0  0  0  0  0  0  0  0  0
  1  2  1  0  0  0  0
  3  2  1  0  0  0  0
  4  3  2  0  0  0  0
  5  4  1  0  0  0  0
  5  6  1  0  0  0  0
  6  7  2  0  0  0  0
  6  8  1  0  0  0  0
  9  5  2  0  0  0  0
 10  9  1  0  0  0  0
  2 10  2  0  0  0  0
 10 11  1  0  0  0  0
M  CHG  2   6   1   8  -1
M  END
> <ChemID>
100613

> <CAS>
29682-39-1

> <Original_SMILES>
[O-][N+](=O)c1ccc(Br)c(Cl)c1

> <preferred_name>
1-Bromo-2-chloro-4-nitrobenzene

> <dsstox_substance_id>
DTXSID70183839

> <dsstox_compound_id>
DTXCID60106330

> <qc_level>
Public_Medium

> <Canonical_QSARr>
[O-][N+](=O)C1C=CC(Br)=C(Cl)C=1

> <InChI_Code_QSARr>
InChI=1S/C6H3BrClNO2/c7-5-2-1-4(9(10)11)3-6(5)8/h1-3H

> <InChI Key_QSARr>
YKSXEJZFIQAUHJ-UHFFFAOYSA-N

> <Salt_Solvent>


> <Salt_Solvent_ID>
0

> <MPID>
99870

> <KocRef>
Schuurmann-Main

> <LogKOC>
2.6

> <Tr_1_Tst_0>
1

$$$$
100614
  Mrv171c012251911022D          

 10  9  0  0  0  0            999 V2000
    1.9714   -0.8937    0.0000 P   0  0  0  0  0  0  0  0  0  0  0  0
    1.5589   -0.1792    0.0000 O   0  0  0  0  0  0  0  0  0  0  0  0
    1.9714    0.5352    0.0000 C   0  0  0  0  0  0  0  0  0  0  0  0
    1.2569   -1.3062    0.0000 S   0  0  0  0  0  0  0  0  0  0  0  0
    0.5424   -0.8937    0.0000 C   0  0  0  0  0  0  0  0  0  0  0  0
    2.6858   -0.4812    0.0000 O   0  0  0  0  0  0  0  0  0  0  0  0
    2.3839   -1.6082    0.0000 N   0  0  0  0  0  0  0  0  0  0  0  0
    1.9714   -2.3227    0.0000 C   0  0  0  0  0  0  0  0  0  0  0  0
    2.3839   -3.0371    0.0000 C   0  0  0  0  0  0  0  0  0  0  0  0
    1.1464   -2.3227    0.0000 O   0  0  0  0  0  0  0  0  0  0  0  0
  1  2  1  0  0  0  0
  2  3  1  0  0  0  0
  1  4  1  0  0  0  0
  4  5  1  0  0  0  0
  1  6  2  0  0  0  0
  1  7  1  0  0  0  0
  7  8  1  0  0  0  0
  8  9  1  0  0  0  0
  8 10  2  0  0  0  0
M  END
> <ChemID>
100614

> <CAS>
30560-19-1

> <Original_SMILES>
COP(=O)(NC(C)=O)SC

> <preferred_name>
Acephate

> <dsstox_substance_id>
DTXSID8023846

> <dsstox_compound_id>
DTXCID503846

> <qc_level>
DSSTox_Low

> <Canonical_QSARr>
COP(=O)(NC(C)=O)SC

> <InChI_Code_QSARr>
InChI=1S/C4H10NO3PS/c1-4(6)5-9(7,8-2)10-3/h1-3H3,(H,5,6,7)

> <InChI Key_QSARr>
YASYVMFAVPKPKE-UHFFFAOYSA-N

> <Salt_Solvent>


> <Salt_Solvent_ID>
0

> <MPID>
99871

> <KocRef>
Schuurmann-Main

> <LogKOC>
0.3

> <Tr_1_Tst_0>
1

$$$$
100615
  Mrv171c012251911022D          

 11 11  0  0  0  0            999 V2000
    4.5728   -0.9000    0.0000 Cl  0  0  0  0  0  0  0  0  0  0  0  0
    3.8583   -0.4875    0.0000 C   0  0  0  0  0  0  0  0  0  0  0  0
    3.8583    0.3375    0.0000 C   0  0  0  0  0  0  0  0  0  0  0  0
    3.1438    0.7500    0.0000 C   0  0  0  0  0  0  0  0  0  0  0  0
    3.1438    1.5750    0.0000 Cl  0  0  0  0  0  0  0  0  0  0  0  0
    2.4294    0.3375    0.0000 C   0  0  0  0  0  0  0  0  0  0  0  0
    1.7149    0.7500    0.0000 Cl  0  0  0  0  0  0  0  0  0  0  0  0
    2.4294   -0.4875    0.0000 N   0  0  0  0  0  0  0  0  0  0  0  0
    3.1438   -0.9000    0.0000 C   0  0  0  0  0  0  0  0  0  0  0  0
    3.1438   -1.7250    0.0000 O   0  0  0  0  0  0  0  0  0  0  0  0
    3.8583   -2.1375    0.0000 C   0  0  0  0  0  0  0  0  0  0  0  0
  1  2  1  0  0  0  0
  3  2  2  0  0  0  0
  4  3  1  0  0  0  0
  4  5  1  0  0  0  0
  6  4  2  0  0  0  0
  6  7  1  0  0  0  0
  8  6  1  0  0  0  0
  9  8  2  0  0  0  0
  2  9  1  0  0  0  0
  9 10  1  0  0  0  0
 10 11  1  0  0  0  0
M  END
> <ChemID>
100615

> <CAS>
31557-34-3

> <Original_SMILES>
COc1[n]c(Cl)c(Cl)cc1Cl

> <preferred_name>
2-Methoxy-3,5,6-trichloropyridine

> <dsstox_substance_id>
DTXSID90185456

> <dsstox_compound_id>
DTXCID00107947

> <qc_level>
Public_Medium

> <Canonical_QSARr>
COC1=NC(Cl)=C(Cl)C=C1Cl

> <InChI_Code_QSARr>
InChI=1S/C6H4Cl3NO/c1-11-6-4(8)2-3(7)5(9)10-6/h2H,1H3

> <InChI Key_QSARr>
RLIVUWLXZBDMBL-UHFFFAOYSA-N

> <Salt_Solvent>


> <Salt_Solvent_ID>
0

> <MPID>
99872

> <KocRef>
SRC 1992 Polar

> <LogKOC>
2.96

> <Tr_1_Tst_0>
1

$$$$
100617
  Mrv171c012251911022D          

 20 20  0  0  0  0            999 V2000
    3.0368   -3.0765    0.0000 P   0  0  0  0  0  0  0  0  0  0  0  0
    2.3224   -3.4890    0.0000 O   0  0  0  0  0  0  0  0  0  0  0  0
    2.3224   -4.3140    0.0000 C   0  0  0  0  0  0  0  0  0  0  0  0
    1.6079   -4.7265    0.0000 C   0  0  0  0  0  0  0  0  0  0  0  0
    3.4493   -3.7910    0.0000 O   0  0  0  0  0  0  0  0  0  0  0  0
    3.7513   -2.6640    0.0000 O   0  0  0  0  0  0  0  0  0  0  0  0
    3.7513   -1.8390    0.0000 C   0  0  0  0  0  0  0  0  0  0  0  0
    4.4658   -1.4265    0.0000 C   0  0  0  0  0  0  0  0  0  0  0  0
    4.4658   -0.6015    0.0000 C   0  0  0  0  0  0  0  0  0  0  0  0
    3.7513   -0.1890    0.0000 C   0  0  0  0  0  0  0  0  0  0  0  0
    3.7513    0.6360    0.0000 S   0  0  0  0  0  0  0  0  0  0  0  0
    3.0368    1.0485    0.0000 O   0  0  0  0  0  0  0  0  0  0  0  0
    4.4658    1.0485    0.0000 C   0  0  0  0  0  0  0  0  0  0  0  0
    3.0368   -0.6015    0.0000 C   0  0  0  0  0  0  0  0  0  0  0  0
    2.3224   -0.1890    0.0000 C   0  0  0  0  0  0  0  0  0  0  0  0
    3.0368   -1.4265    0.0000 C   0  0  0  0  0  0  0  0  0  0  0  0
    2.6243   -2.3621    0.0000 N   0  0  0  0  0  0  0  0  0  0  0  0
    1.7993   -2.3621    0.0000 C   0  0  0  0  0  0  0  0  0  0  0  0
    1.3868   -1.6476    0.0000 C   0  0  0  0  0  0  0  0  0  0  0  0
    1.3868   -3.0765    0.0000 C   0  0  0  0  0  0  0  0  0  0  0  0
  1  2  1  0  0  0  0
  2  3  1  0  0  0  0
  3  4  1  0  0  0  0
  1  5  2  0  0  0  0
  1  6  1  0  0  0  0
  6  7  1  0  0  0  0
  8  7  2  0  0  0  0
  9  8  1  0  0  0  0
 10  9  2  0  0  0  0
 10 11  1  0  0  0  0
 11 12  2  0  0  0  0
 11 13  1  0  0  0  0
 14 10  1  0  0  0  0
 14 15  1  0  0  0  0
 16 14  2  0  0  0  0
  7 16  1  0  0  0  0
  1 17  1  0  0  0  0
 17 18  1  0  0  0  0
 18 19  1  0  0  0  0
 18 20  1  0  0  0  0
M  END
> <ChemID>
100617

> <CAS>
31972-43-7

> <Original_SMILES>
Cc1cc(ccc1S(C)=O)OP(=O)(NC(C)C)OCC

> <preferred_name>
Fenamiphos sulfoxide

> <dsstox_substance_id>
DTXSID8037548

> <dsstox_compound_id>
DTXCID6017548

> <qc_level>
DSSTox_Low

> <Canonical_QSARr>
CC1=CC(=CC=C1S(C)=O)OP(=O)(NC(C)C)OCC

> <InChI_Code_QSARr>
InChI=1S/C13H22NO4PS/c1-6-17-19(15,14-10(2)3)18-12-7-8-13(20(5)16)11(4)9-12/h7-10H,6H2,1-5H3,(H,14,15)

> <InChI Key_QSARr>
LUQMWGMGWJEGAT-UHFFFAOYSA-N

> <Salt_Solvent>


> <Salt_Solvent_ID>
0

> <MPID>
99873

> <KocRef>
Schuurmann-Main

> <LogKOC>
1.57

> <Tr_1_Tst_0>
0

$$$$
100618
  Mrv171c012251911022D          

 21 21  0  0  0  0            999 V2000
    3.1073   -3.2131    0.0000 P   0  0  0  0  0  0  0  0  0  0  0  0
    2.3929   -3.6256    0.0000 O   0  0  0  0  0  0  0  0  0  0  0  0
    2.3929   -4.4506    0.0000 C   0  0  0  0  0  0  0  0  0  0  0  0
    1.6784   -4.8631    0.0000 C   0  0  0  0  0  0  0  0  0  0  0  0
    3.5198   -3.9276    0.0000 O   0  0  0  0  0  0  0  0  0  0  0  0
    3.8218   -2.8006    0.0000 O   0  0  0  0  0  0  0  0  0  0  0  0
    3.8218   -1.9756    0.0000 C   0  0  0  0  0  0  0  0  0  0  0  0
    4.5363   -1.5631    0.0000 C   0  0  0  0  0  0  0  0  0  0  0  0
    4.5363   -0.7381    0.0000 C   0  0  0  0  0  0  0  0  0  0  0  0
    3.8218   -0.3256    0.0000 C   0  0  0  0  0  0  0  0  0  0  0  0
    3.8218    0.4994    0.0000 S   0  0  0  0  0  0  0  0  0  0  0  0
    3.8218    1.3244    0.0000 O   0  0  0  0  0  0  0  0  0  0  0  0
    4.6468    0.4994    0.0000 O   0  0  0  0  0  0  0  0  0  0  0  0
    2.9968    0.4994    0.0000 C   0  0  0  0  0  0  0  0  0  0  0  0
    3.1073   -0.7381    0.0000 C   0  0  0  0  0  0  0  0  0  0  0  0
    2.3929   -0.3256    0.0000 C   0  0  0  0  0  0  0  0  0  0  0  0
    3.1073   -1.5631    0.0000 C   0  0  0  0  0  0  0  0  0  0  0  0
    2.6948   -2.4986    0.0000 N   0  0  0  0  0  0  0  0  0  0  0  0
    1.8698   -2.4986    0.0000 C   0  0  0  0  0  0  0  0  0  0  0  0
    1.4573   -1.7841    0.0000 C   0  0  0  0  0  0  0  0  0  0  0  0
    1.4573   -3.2131    0.0000 C   0  0  0  0  0  0  0  0  0  0  0  0
  1  2  1  0  0  0  0
  2  3  1  0  0  0  0
  3  4  1  0  0  0  0
  1  5  2  0  0  0  0
  1  6  1  0  0  0  0
  6  7  1  0  0  0  0
  8  7  2  0  0  0  0
  9  8  1  0  0  0  0
 10  9  2  0  0  0  0
 10 11  1  0  0  0  0
 11 12  2  0  0  0  0
 11 13  2  0  0  0  0
 11 14  1  0  0  0  0
 15 10  1  0  0  0  0
 15 16  1  0  0  0  0
 17 15  2  0  0  0  0
  7 17  1  0  0  0  0
  1 18  1  0  0  0  0
 18 19  1  0  0  0  0
 19 20  1  0  0  0  0
 19 21  1  0  0  0  0
M  END
> <ChemID>
100618

> <CAS>
31972-44-8

> <Original_SMILES>
Cc1cc(ccc1S(C)(=O)=O)OP(=O)(NC(C)C)OCC

> <preferred_name>
Fenamiphos sulfone

> <dsstox_substance_id>
DTXSID3037547

> <dsstox_compound_id>
DTXCID1017547

> <qc_level>
DSSTox_Low

> <Canonical_QSARr>
CC1=CC(=CC=C1S(C)(=O)=O)OP(=O)(NC(C)C)OCC

> <InChI_Code_QSARr>
InChI=1S/C13H22NO5PS/c1-6-18-20(15,14-10(2)3)19-12-7-8-13(11(4)9-12)21(5,16)17/h7-10H,6H2,1-5H3,(H,14,15)

> <InChI Key_QSARr>
LVNYJXIBJFXIRZ-UHFFFAOYSA-N

> <Salt_Solvent>


> <Salt_Solvent_ID>
0

> <MPID>
99874

> <KocRef>
Schuurmann-Main

> <LogKOC>
1.64

> <Tr_1_Tst_0>
1

$$$$
100619
  Mrv171c012251911022D          

 22 22  0  0  0  0            999 V2000
    1.4921   -1.6120    0.0000 C   0  0  0  0  0  0  0  0  0  0  0  0
    1.4921   -2.4370    0.0000 Cl  0  0  0  0  0  0  0  0  0  0  0  0
    2.2065   -1.1995    0.0000 C   0  0  0  0  0  0  0  0  0  0  0  0
    2.9210   -1.6120    0.0000 O   0  0  0  0  0  0  0  0  0  0  0  0
    3.6355   -1.1995    0.0000 C   0  0  0  0  0  0  0  0  0  0  0  0
    4.3499   -1.6120    0.0000 C   0  0  0  0  0  0  0  0  0  0  0  0
    5.0644   -1.1995    0.0000 C   0  0  0  0  0  0  0  0  0  0  0  0
    5.7789   -1.6120    0.0000 C   0  0  0  0  0  0  0  0  0  0  0  0
    5.7789   -2.4370    0.0000 O   0  0  0  0  0  0  0  0  0  0  0  0
    6.4934   -1.1995    0.0000 O   0  0  0  0  0  0  0  0  0  0  0  0
    7.2078   -1.6120    0.0000 C   0  0  0  0  0  0  0  0  0  0  0  0
    7.9223   -1.1995    0.0000 C   0  0  0  0  0  0  0  0  0  0  0  0
    8.6368   -1.6120    0.0000 O   0  0  0  0  0  0  0  0  0  0  0  0
    9.3512   -1.1995    0.0000 C   0  0  0  0  0  0  0  0  0  0  0  0
   10.0657   -1.6120    0.0000 C   0  0  0  0  0  0  0  0  0  0  0  0
   10.7802   -1.1995    0.0000 C   0  0  0  0  0  0  0  0  0  0  0  0
   11.4946   -1.6120    0.0000 C   0  0  0  0  0  0  0  0  0  0  0  0
    2.2065   -0.3745    0.0000 C   0  0  0  0  0  0  0  0  0  0  0  0
    1.4921    0.0380    0.0000 C   0  0  0  0  0  0  0  0  0  0  0  0
    0.7776   -0.3745    0.0000 C   0  0  0  0  0  0  0  0  0  0  0  0
    0.0631    0.0380    0.0000 Cl  0  0  0  0  0  0  0  0  0  0  0  0
    0.7776   -1.1995    0.0000 C   0  0  0  0  0  0  0  0  0  0  0  0
  1  2  1  0  0  0  0
  3  1  1  0  0  0  0
  3  4  1  0  0  0  0
  4  5  1  0  0  0  0
  5  6  1  0  0  0  0
  6  7  1  0  0  0  0
  7  8  1  0  0  0  0
  8  9  2  0  0  0  0
  8 10  1  0  0  0  0
 10 11  1  0  0  0  0
 11 12  1  0  0  0  0
 12 13  1  0  0  0  0
 13 14  1  0  0  0  0
 14 15  1  0  0  0  0
 15 16  1  0  0  0  0
 16 17  1  0  0  0  0
 18  3  2  0  0  0  0
 19 18  1  0  0  0  0
 20 19  2  0  0  0  0
 20 21  1  0  0  0  0
 22 20  1  0  0  0  0
  1 22  2  0  0  0  0
M  END
> <ChemID>
100619

> <CAS>
32357-46-3

> <Original_SMILES>
CCCCOCCOC(=O)CCCOc1ccc(Cl)cc1Cl

> <preferred_name>
2,4-DB 2-butoxyethyl ester

> <dsstox_substance_id>
DTXSID5041354

> <dsstox_compound_id>
DTXCID3021354

> <qc_level>
DSSTox_Low

> <Canonical_QSARr>
CCCCOCCOC(=O)CCCOC1=CC=C(Cl)C=C1Cl

> <InChI_Code_QSARr>
InChI=1S/C16H22Cl2O4/c1-2-3-8-20-10-11-22-16(19)5-4-9-21-15-7-6-13(17)12-14(15)18/h6-7,12H,2-5,8-11H2,1H3

> <InChI Key_QSARr>
IRLJKGHTPKJLFX-UHFFFAOYSA-N

> <Salt_Solvent>


> <Salt_Solvent_ID>
0

> <MPID>
99875

> <KocRef>
Schuurmann-Main

> <LogKOC>
2.7

> <Tr_1_Tst_0>
1

$$$$
100620
  Mrv171c012251911022D          

 16 17  0  0  0  0            999 V2000
    2.1949   -1.1224    0.0000 C   0  0  0  0  0  0  0  0  0  0  0  0
    2.1949   -0.2974    0.0000 C   0  0  0  0  0  0  0  0  0  0  0  0
    1.4804    0.1151    0.0000 C   0  0  0  0  0  0  0  0  0  0  0  0
    1.4804    0.9401    0.0000 Cl  0  0  0  0  0  0  0  0  0  0  0  0
    0.7659   -0.2974    0.0000 C   0  0  0  0  0  0  0  0  0  0  0  0
    0.7659   -1.1224    0.0000 C   0  0  0  0  0  0  0  0  0  0  0  0
    1.4804   -1.5349    0.0000 C   0  0  0  0  0  0  0  0  0  0  0  0
    1.4804   -2.3599    0.0000 Cl  0  0  0  0  0  0  0  0  0  0  0  0
    2.9093   -1.5349    0.0000 C   0  0  0  0  0  0  0  0  0  0  0  0
    2.9093   -2.3599    0.0000 C   0  0  0  0  0  0  0  0  0  0  0  0
    3.6238   -2.7724    0.0000 C   0  0  0  0  0  0  0  0  0  0  0  0
    4.3383   -2.3599    0.0000 C   0  0  0  0  0  0  0  0  0  0  0  0
    5.0528   -2.7724    0.0000 Cl  0  0  0  0  0  0  0  0  0  0  0  0
    4.3383   -1.5349    0.0000 C   0  0  0  0  0  0  0  0  0  0  0  0
    5.0528   -1.1224    0.0000 Cl  0  0  0  0  0  0  0  0  0  0  0  0
    3.6238   -1.1224    0.0000 C   0  0  0  0  0  0  0  0  0  0  0  0
  2  1  1  0  0  0  0
  3  2  2  0  0  0  0
  3  4  1  0  0  0  0
  5  3  1  0  0  0  0
  6  5  2  0  0  0  0
  7  6  1  0  0  0  0
  1  7  2  0  0  0  0
  7  8  1  0  0  0  0
  1  9  1  0  0  0  0
 10  9  1  0  0  0  0
 11 10  2  0  0  0  0
 12 11  1  0  0  0  0
 12 13  1  0  0  0  0
 14 12  2  0  0  0  0
 14 15  1  0  0  0  0
 16 14  1  0  0  0  0
  9 16  2  0  0  0  0
M  END
> <ChemID>
100620

> <CAS>
32598-11-1

> <Original_SMILES>
Clc1cc(-c2cc(Cl)c(Cl)cc2)c(Cl)cc1

> <preferred_name>
2,3',4',5-Tetrachlorobiphenyl

> <dsstox_substance_id>
DTXSID3038309

> <dsstox_compound_id>
DTXCID1018309

> <qc_level>
DSSTox_Low

> <Canonical_QSARr>
ClC1=CC(C2=CC(Cl)=C(Cl)C=C2)=C(Cl)C=C1

> <InChI_Code_QSARr>
InChI=1S/C12H6Cl4/c13-8-2-4-10(14)9(6-8)7-1-3-11(15)12(16)5-7/h1-6H

> <InChI Key_QSARr>
KENZYIHFBRWMOD-UHFFFAOYSA-N

> <Salt_Solvent>


> <Salt_Solvent_ID>
0

> <MPID>
99876

> <KocRef>
Schuurmann-Main

> <LogKOC>
4.86

> <Tr_1_Tst_0>
1

$$$$
100621
  Mrv171c012251911022D          

 18 20  0  0  0  0            999 V2000
    1.0059   -1.5371    0.0000 C   0  0  0  0  0  0  0  0  0  0  0  0
    0.6704   -0.7834    0.0000 C   0  0  0  0  0  0  0  0  0  0  0  0
    0.2915   -1.9496    0.0000 C   0  0  0  0  0  0  0  0  0  0  0  0
    1.0059   -2.3621    0.0000 C   0  0  0  0  0  0  0  0  0  0  0  0
    0.6704   -3.1158    0.0000 C   0  0  0  0  0  0  0  0  0  0  0  0
    1.7905   -2.6170    0.0000 C   0  0  0  0  0  0  0  0  0  0  0  0
    2.0455   -3.4016    0.0000 O   0  0  0  0  0  0  0  0  0  0  0  0
    2.2755   -1.9496    0.0000 N   0  0  0  0  0  0  0  0  0  0  0  0
    3.1005   -1.9496    0.0000 C   0  0  0  0  0  0  0  0  0  0  0  0
    3.5130   -2.6641    0.0000 C   0  0  0  0  0  0  0  0  0  0  0  0
    4.3380   -2.6641    0.0000 C   0  0  0  0  0  0  0  0  0  0  0  0
    4.7505   -3.3785    0.0000 Cl  0  0  0  0  0  0  0  0  0  0  0  0
    4.7505   -1.9496    0.0000 C   0  0  0  0  0  0  0  0  0  0  0  0
    4.3380   -1.2351    0.0000 C   0  0  0  0  0  0  0  0  0  0  0  0
    4.7505   -0.5206    0.0000 Cl  0  0  0  0  0  0  0  0  0  0  0  0
    3.5130   -1.2351    0.0000 C   0  0  0  0  0  0  0  0  0  0  0  0
    1.7905   -1.2821    0.0000 C   0  0  0  0  0  0  0  0  0  0  0  0
    2.0455   -0.4975    0.0000 O   0  0  0  0  0  0  0  0  0  0  0  0
  1  2  1  0  0  0  0
  3  1  1  0  0  0  0
  4  3  1  0  0  0  0
  4  1  1  0  0  0  0
  4  5  1  0  0  0  0
  6  4  1  0  0  0  0
  6  7  2  0  0  0  0
  8  6  1  0  0  0  0
  8  9  1  0  0  0  0
 10  9  1  0  0  0  0
 11 10  2  0  0  0  0
 11 12  1  0  0  0  0
 13 11  1  0  0  0  0
 14 13  2  0  0  0  0
 14 15  1  0  0  0  0
 16 14  1  0  0  0  0
  9 16  2  0  0  0  0
 17  8  1  0  0  0  0
  1 17  1  0  0  0  0
 17 18  2  0  0  0  0
M  END
> <ChemID>
100621

> <CAS>
32809-16-8

> <Original_SMILES>
CC12CC1(C)C(=O)N(c1cc(Cl)cc(Cl)c1)C2=O

> <preferred_name>
Procymidone

> <dsstox_substance_id>
DTXSID9033923

> <dsstox_compound_id>
DTXCID7013923

> <qc_level>
DSSTox_Low

> <Canonical_QSARr>
CC12CC1(C)C(=O)N(C1C=C(Cl)C=C(Cl)C=1)C2=O

> <InChI_Code_QSARr>
InChI=1S/C13H11Cl2NO2/c1-12-6-13(12,2)11(18)16(10(12)17)9-4-7(14)3-8(15)5-9/h3-5H,6H2,1-2H3

> <InChI Key_QSARr>
QXJKBPAVAHBARF-UHFFFAOYSA-N

> <Salt_Solvent>


> <Salt_Solvent_ID>
0

> <MPID>
99877

> <KocRef>
USDA Pest Prop DB

> <LogKOC>
3.18

> <Tr_1_Tst_0>
0

$$$$
100622
  Mrv171c012251911022D          

 22 23  0  0  0  0            999 V2000
    2.8579    0.0000    0.0000 C   0  0  0  0  0  0  0  0  0  0  0  0
    3.5724   -0.4125    0.0000 N   0  0  0  0  0  0  0  0  0  0  0  0
    3.5724   -1.2375    0.0000 C   0  0  0  0  0  0  0  0  0  0  0  0
    4.2868   -1.6500    0.0000 N   0  0  0  0  0  0  0  0  0  0  0  0
    4.2868   -2.4750    0.0000 C   0  0  0  0  0  0  0  0  0  0  0  0
    5.0013   -2.8875    0.0000 C   0  0  0  0  0  0  0  0  0  0  0  0
    5.0013   -3.7125    0.0000 C   0  0  0  0  0  0  0  0  0  0  0  0
    4.2868   -4.1250    0.0000 C   0  0  0  0  0  0  0  0  0  0  0  0
    4.2868   -4.9500    0.0000 C   0  0  0  0  0  0  0  0  0  0  0  0
    3.5724   -3.7125    0.0000 C   0  0  0  0  0  0  0  0  0  0  0  0
    3.5724   -2.8875    0.0000 C   0  0  0  0  0  0  0  0  0  0  0  0
    2.8579   -2.4750    0.0000 C   0  0  0  0  0  0  0  0  0  0  0  0
    4.2868    0.0000    0.0000 C   0  0  0  0  0  0  0  0  0  0  0  0
    4.2868    0.8250    0.0000 N   0  0  0  0  0  0  0  0  0  0  0  0
    5.0013    1.2375    0.0000 C   0  0  0  0  0  0  0  0  0  0  0  0
    5.0013    2.0625    0.0000 C   0  0  0  0  0  0  0  0  0  0  0  0
    5.7158    2.4750    0.0000 C   0  0  0  0  0  0  0  0  0  0  0  0
    6.4302    2.0625    0.0000 C   0  0  0  0  0  0  0  0  0  0  0  0
    7.1447    2.4750    0.0000 C   0  0  0  0  0  0  0  0  0  0  0  0
    6.4302    1.2375    0.0000 C   0  0  0  0  0  0  0  0  0  0  0  0
    5.7158    0.8250    0.0000 C   0  0  0  0  0  0  0  0  0  0  0  0
    5.7158    0.0000    0.0000 C   0  0  0  0  0  0  0  0  0  0  0  0
  1  2  1  0  0  0  0
  3  2  1  4  0  0  0
  3  4  2  0  0  0  0
  4  5  1  0  0  0  0
  5  6  1  0  0  0  0
  6  7  2  0  0  0  0
  7  8  1  0  0  0  0
  8  9  1  0  0  0  0
  8 10  2  0  0  0  0
 10 11  1  0  0  0  0
  5 11  2  0  0  0  0
 11 12  1  0  0  0  0
 13  2  1  4  0  0  0
 13 14  2  0  0  0  0
 14 15  1  0  0  0  0
 15 16  1  0  0  0  0
 16 17  2  0  0  0  0
 17 18  1  0  0  0  0
 18 19  1  0  0  0  0
 18 20  2  0  0  0  0
 20 21  1  0  0  0  0
 15 21  2  0  0  0  0
 21 22  1  0  0  0  0
M  END
> <ChemID>
100622

> <CAS>
33089-61-1

> <Original_SMILES>
CN(/C=N/c1ccc(C)cc1C)/C=N/c1ccc(C)cc1C

> <preferred_name>
Amitraz

> <dsstox_substance_id>
DTXSID5023871

> <dsstox_compound_id>
DTXCID403871

> <qc_level>
DSSTox_Low

> <Canonical_QSARr>
CN(C=NC1C=CC(C)=CC=1C)C=NC1C=CC(C)=CC=1C

> <InChI_Code_QSARr>
InChI=1S/C19H23N3/c1-14-6-8-18(16(3)10-14)20-12-22(5)13-21-19-9-7-15(2)11-17(19)4/h6-13H,1-5H3

> <InChI Key_QSARr>
QXAITBQSYVNQDR-UHFFFAOYSA-N

> <Salt_Solvent>


> <Salt_Solvent_ID>
0

> <MPID>
99878

> <KocRef>
Schuurmann-Main

> <LogKOC>
3.0

> <Tr_1_Tst_0>
1

$$$$
100623
  Mrv171c012251911022D          

 11 11  0  0  0  0            999 V2000
    2.5593   -1.3091    0.0000 O   0  0  0  0  0  0  0  0  0  0  0  0
    1.8448   -0.8966    0.0000 C   0  0  0  0  0  0  0  0  0  0  0  0
    1.1303   -1.3091    0.0000 N   0  0  0  0  0  0  0  0  0  0  0  0
    1.8448   -0.0716    0.0000 O   0  0  0  0  0  0  0  0  0  0  0  0
    3.2737   -0.8966    0.0000 C   0  0  0  0  0  0  0  0  0  0  0  0
    3.9882   -1.3091    0.0000 C   0  0  0  0  0  0  0  0  0  0  0  0
    4.7027   -0.8966    0.0000 C   0  0  0  0  0  0  0  0  0  0  0  0
    4.7027   -0.0716    0.0000 C   0  0  0  0  0  0  0  0  0  0  0  0
    3.9882    0.3409    0.0000 C   0  0  0  0  0  0  0  0  0  0  0  0
    3.9882    1.1659    0.0000 C   0  0  0  0  0  0  0  0  0  0  0  0
    3.2737   -0.0716    0.0000 C   0  0  0  0  0  0  0  0  0  0  0  0
  1  2  1  0  0  0  0
  2  3  1  0  0  0  0
  2  4  2  0  0  0  0
  1  5  1  0  0  0  0
  6  5  2  0  0  0  0
  7  6  1  0  0  0  0
  8  7  2  0  0  0  0
  9  8  1  0  0  0  0
  9 10  1  0  0  0  0
 11  9  2  0  0  0  0
  5 11  1  0  0  0  0
M  END
> <ChemID>
100623

> <CAS>
33222-69-4

> <Original_SMILES>
Cc1cc(ccc1)OC(N)=O

> <preferred_name>
Carbamic acid, m-tolyl ester

> <dsstox_substance_id>
DTXSID10186869

> <dsstox_compound_id>
DTXCID00109360

> <qc_level>
Public_Medium

> <Canonical_QSARr>
CC1=CC(=CC=C1)OC(N)=O

> <InChI_Code_QSARr>
InChI=1S/C8H9NO2/c1-6-3-2-4-7(5-6)11-8(9)10/h2-5H,1H3,(H2,9,10)

> <InChI Key_QSARr>
VTONZKDPQTYHLV-UHFFFAOYSA-N

> <Salt_Solvent>


> <Salt_Solvent_ID>
0

> <MPID>
99879

> <KocRef>
Schuurmann-Main

> <LogKOC>
1.48

> <Tr_1_Tst_0>
1

$$$$
100624
  Mrv171c012251911022D          

 14 14  0  0  0  0            999 V2000
    1.6499   -0.0495    0.0000 O   0  0  0  0  0  0  0  0  0  0  0  0
    2.3643   -0.4620    0.0000 C   0  0  0  0  0  0  0  0  0  0  0  0
    2.3643   -1.2870    0.0000 C   0  0  0  0  0  0  0  0  0  0  0  0
    1.6499   -1.6995    0.0000 C   0  0  0  0  0  0  0  0  0  0  0  0
    1.6499   -2.5245    0.0000 C   0  0  0  0  0  0  0  0  0  0  0  0
    2.3643   -2.9370    0.0000 C   0  0  0  0  0  0  0  0  0  0  0  0
    3.0788   -2.5245    0.0000 C   0  0  0  0  0  0  0  0  0  0  0  0
    3.0788   -1.6995    0.0000 C   0  0  0  0  0  0  0  0  0  0  0  0
    3.0788   -0.0495    0.0000 N   0  0  0  0  0  0  0  0  0  0  0  0
    3.0788    0.7755    0.0000 C   0  0  0  0  0  0  0  0  0  0  0  0
    3.0788    1.6005    0.0000 C   0  0  0  0  0  0  0  0  0  0  0  0
    3.0788    2.4255    0.0000 C   0  0  0  0  0  0  0  0  0  0  0  0
    3.9038    0.7755    0.0000 C   0  0  0  0  0  0  0  0  0  0  0  0
    2.2538    0.7755    0.0000 C   0  0  0  0  0  0  0  0  0  0  0  0
  1  2  2  0  0  0  0
  2  3  1  0  0  0  0
  4  3  1  0  0  0  0
  5  4  2  0  0  0  0
  6  5  1  0  0  0  0
  7  6  2  0  0  0  0
  8  7  1  0  0  0  0
  3  8  2  0  0  0  0
  2  9  1  0  0  0  0
  9 10  1  0  0  0  0
 10 11  1  0  0  0  0
 11 12  3  0  0  0  0
 10 13  1  0  0  0  0
 10 14  1  0  0  0  0
M  END
> <ChemID>
100624

> <CAS>
33244-86-9

> <Original_SMILES>
CC(C)(C#C)NC(=O)c1ccccc1

> <preferred_name>
N-(1,1-dimethyl-2-propynyl)benzamide

> <dsstox_substance_id>
DTXSID20186895

> <dsstox_compound_id>
DTXCID60109386

> <qc_level>
Public_Medium

> <Canonical_QSARr>
CC(C)(C#C)NC(=O)C1C=CC=CC=1

> <InChI_Code_QSARr>
InChI=1S/C12H13NO/c1-4-12(2,3)13-11(14)10-8-6-5-7-9-10/h1,5-9H,2-3H3,(H,13,14)

> <InChI Key_QSARr>
IZBRKPDCFBAIKG-UHFFFAOYSA-N

> <Salt_Solvent>


> <Salt_Solvent_ID>
0

> <MPID>
99880

> <KocRef>
Schuurmann-Main

> <LogKOC>
1.54

> <Tr_1_Tst_0>
1

$$$$
100625
  Mrv171c012251911022D          

 23 23  0  0  0  0            999 V2000
    2.0936   -2.0705    0.0000 C   0  0  0  0  0  0  0  0  0  0  0  0
    2.0936   -2.8955    0.0000 C   0  0  0  0  0  0  0  0  0  0  0  0
    2.8080   -3.3080    0.0000 C   0  0  0  0  0  0  0  0  0  0  0  0
    2.8080   -4.1330    0.0000 C   0  0  0  0  0  0  0  0  0  0  0  0
    2.8080   -4.9580    0.0000 F   0  0  0  0  0  0  0  0  0  0  0  0
    3.6330   -4.1330    0.0000 F   0  0  0  0  0  0  0  0  0  0  0  0
    1.9830   -4.1330    0.0000 F   0  0  0  0  0  0  0  0  0  0  0  0
    3.5225   -2.8955    0.0000 C   0  0  0  0  0  0  0  0  0  0  0  0
    3.5225   -2.0705    0.0000 C   0  0  0  0  0  0  0  0  0  0  0  0
    4.2370   -1.6580    0.0000 N   0  3  0  0  0  0  0  0  0  0  0  0
    4.2370   -0.8330    0.0000 O   0  0  0  0  0  0  0  0  0  0  0  0
    4.9515   -2.0705    0.0000 O   0  5  0  0  0  0  0  0  0  0  0  0
    2.8080   -1.6580    0.0000 C   0  0  0  0  0  0  0  0  0  0  0  0
    2.8080   -0.8330    0.0000 N   0  0  0  0  0  0  0  0  0  0  0  0
    2.0936   -0.4205    0.0000 C   0  0  0  0  0  0  0  0  0  0  0  0
    2.0936    0.4045    0.0000 C   0  0  0  0  0  0  0  0  0  0  0  0
    1.3791    0.8170    0.0000 C   0  0  0  0  0  0  0  0  0  0  0  0
    3.5225   -0.4205    0.0000 C   0  0  0  0  0  0  0  0  0  0  0  0
    3.5225    0.4045    0.0000 C   0  0  0  0  0  0  0  0  0  0  0  0
    4.2370    0.8170    0.0000 Cl  0  0  0  0  0  0  0  0  0  0  0  0
    1.3791   -1.6580    0.0000 N   0  3  0  0  0  0  0  0  0  0  0  0
    1.3791   -0.8330    0.0000 O   0  0  0  0  0  0  0  0  0  0  0  0
    0.6646   -2.0705    0.0000 O   0  5  0  0  0  0  0  0  0  0  0  0
  2  1  1  0  0  0  0
  3  2  2  0  0  0  0
  3  4  1  0  0  0  0
  4  5  1  0  0  0  0
  4  6  1  0  0  0  0
  4  7  1  0  0  0  0
  8  3  1  0  0  0  0
  9  8  2  0  0  0  0
  9 10  1  0  0  0  0
 10 11  2  0  0  0  0
 10 12  1  0  0  0  0
 13  9  1  0  0  0  0
  1 13  2  0  0  0  0
 13 14  1  0  0  0  0
 14 15  1  0  0  0  0
 15 16  1  0  0  0  0
 16 17  1  0  0  0  0
 14 18  1  0  0  0  0
 18 19  1  0  0  0  0
 19 20  1  0  0  0  0
  1 21  1  0  0  0  0
 21 22  2  0  0  0  0
 21 23  1  0  0  0  0
M  CHG  4  10   1  12  -1  21   1  23  -1
M  END
> <ChemID>
100625

> <CAS>
33245-39-5

> <Original_SMILES>
CCCN(CCCl)c1c(cc(cc1[N+]([O-])=O)C(F)(F)F)[N+]([O-])=O

> <preferred_name>
Fluchloralin

> <dsstox_substance_id>
DTXSID9032614

> <dsstox_compound_id>
DTXCID7012614

> <qc_level>
DSSTox_Low

> <Canonical_QSARr>
CCCN(CCCl)C1C(=CC(=CC=1[N+]([O-])=O)C(F)(F)F)[N+]([O-])=O

> <InChI_Code_QSARr>
InChI=1S/C12H13ClF3N3O4/c1-2-4-17(5-3-13)11-9(18(20)21)6-8(12(14,15)16)7-10(11)19(22)23/h6-7H,2-5H2,1H3

> <InChI Key_QSARr>
MNFMIVVPXOGUMX-UHFFFAOYSA-N

> <Salt_Solvent>


> <Salt_Solvent_ID>
0

> <MPID>
99881

> <KocRef>
Schuurmann-Main

> <LogKOC>
3.55

> <Tr_1_Tst_0>
0

$$$$
100626
  Mrv171c012251911022D          

 21 21  0  0  0  0            999 V2000
    3.4370   -1.8500    0.0000 C   0  0  0  0  0  0  0  0  0  0  0  0
    3.4370   -1.0250    0.0000 C   0  0  0  0  0  0  0  0  0  0  0  0
    2.7225   -0.6125    0.0000 C   0  0  0  0  0  0  0  0  0  0  0  0
    2.7225    0.2125    0.0000 C   0  0  0  0  0  0  0  0  0  0  0  0
    2.7225    1.0375    0.0000 C   0  0  0  0  0  0  0  0  0  0  0  0
    1.8975    0.2125    0.0000 C   0  0  0  0  0  0  0  0  0  0  0  0
    3.5475    0.2125    0.0000 C   0  0  0  0  0  0  0  0  0  0  0  0
    2.0081   -1.0250    0.0000 C   0  0  0  0  0  0  0  0  0  0  0  0
    2.0081   -1.8500    0.0000 C   0  0  0  0  0  0  0  0  0  0  0  0
    1.2936   -2.2625    0.0000 N   0  3  0  0  0  0  0  0  0  0  0  0
    0.5791   -1.8500    0.0000 O   0  0  0  0  0  0  0  0  0  0  0  0
    1.2936   -3.0875    0.0000 O   0  5  0  0  0  0  0  0  0  0  0  0
    2.7225   -2.2625    0.0000 C   0  0  0  0  0  0  0  0  0  0  0  0
    2.7225   -3.0875    0.0000 N   0  0  0  0  0  0  0  0  0  0  0  0
    2.0081   -3.5000    0.0000 C   0  0  0  0  0  0  0  0  0  0  0  0
    1.1876   -3.5863    0.0000 C   0  0  0  0  0  0  0  0  0  0  0  0
    2.0081   -4.3250    0.0000 C   0  0  0  0  0  0  0  0  0  0  0  0
    1.2936   -4.7375    0.0000 C   0  0  0  0  0  0  0  0  0  0  0  0
    4.1515   -2.2625    0.0000 N   0  3  0  0  0  0  0  0  0  0  0  0
    4.1515   -3.0875    0.0000 O   0  0  0  0  0  0  0  0  0  0  0  0
    4.8660   -1.8500    0.0000 O   0  5  0  0  0  0  0  0  0  0  0  0
  2  1  1  0  0  0  0
  3  2  2  0  0  0  0
  3  4  1  0  0  0  0
  4  5  1  0  0  0  0
  4  6  1  0  0  0  0
  4  7  1  0  0  0  0
  8  3  1  0  0  0  0
  9  8  2  0  0  0  0
  9 10  1  0  0  0  0
 10 11  2  0  0  0  0
 10 12  1  0  0  0  0
 13  9  1  0  0  0  0
  1 13  2  0  0  0  0
 13 14  1  0  0  0  0
 14 15  1  0  0  0  0
 15 16  1  0  0  0  0
 15 17  1  0  0  0  0
 17 18  1  0  0  0  0
  1 19  1  0  0  0  0
 19 20  2  0  0  0  0
 19 21  1  0  0  0  0
M  CHG  4  10   1  12  -1  19   1  21  -1
M  END
> <ChemID>
100626

> <CAS>
33629-47-9

> <Original_SMILES>
CCC(C)Nc1c(cc(cc1[N+]([O-])=O)C(C)(C)C)[N+]([O-])=O

> <preferred_name>
Butralin

> <dsstox_substance_id>
DTXSID3032337

> <dsstox_compound_id>
DTXCID1012337

> <qc_level>
DSSTox_Low

> <Canonical_QSARr>
CCC(C)NC1C(=CC(=CC=1[N+]([O-])=O)C(C)(C)C)[N+]([O-])=O

> <InChI_Code_QSARr>
InChI=1S/C14H21N3O4/c1-6-9(2)15-13-11(16(18)19)7-10(14(3,4)5)8-12(13)17(20)21/h7-9,15H,6H2,1-5H3

> <InChI Key_QSARr>
SPNQRCTZKIBOAX-UHFFFAOYSA-N

> <Salt_Solvent>


> <Salt_Solvent_ID>
0

> <MPID>
99882

> <KocRef>
Schuurmann-Main

> <LogKOC>
3.98

> <Tr_1_Tst_0>
1

$$$$
100627
  Mrv171c012251911022D          

 22 22  0  0  0  0            999 V2000
    2.1634   -2.8690    0.0000 C   0  0  0  0  0  0  0  0  0  0  0  0
    2.1634   -3.6940    0.0000 C   0  0  0  0  0  0  0  0  0  0  0  0
    2.8778   -4.1065    0.0000 C   0  0  0  0  0  0  0  0  0  0  0  0
    2.8778   -4.9315    0.0000 C   0  0  0  0  0  0  0  0  0  0  0  0
    3.5923   -5.3440    0.0000 C   0  0  0  0  0  0  0  0  0  0  0  0
    2.1634   -5.3440    0.0000 C   0  0  0  0  0  0  0  0  0  0  0  0
    3.5923   -3.6940    0.0000 C   0  0  0  0  0  0  0  0  0  0  0  0
    3.5923   -2.8690    0.0000 C   0  0  0  0  0  0  0  0  0  0  0  0
    4.3068   -2.4565    0.0000 N   0  3  0  0  0  0  0  0  0  0  0  0
    4.3068   -1.6315    0.0000 O   0  0  0  0  0  0  0  0  0  0  0  0
    5.0212   -2.8690    0.0000 O   0  5  0  0  0  0  0  0  0  0  0  0
    2.8778   -2.4565    0.0000 C   0  0  0  0  0  0  0  0  0  0  0  0
    2.8778   -1.6315    0.0000 N   0  0  0  0  0  0  0  0  0  0  0  0
    2.1634   -1.2190    0.0000 C   0  0  0  0  0  0  0  0  0  0  0  0
    2.1634   -0.3940    0.0000 C   0  0  0  0  0  0  0  0  0  0  0  0
    1.4489    0.0185    0.0000 C   0  0  0  0  0  0  0  0  0  0  0  0
    3.5923   -1.2190    0.0000 C   0  0  0  0  0  0  0  0  0  0  0  0
    3.5923   -0.3940    0.0000 C   0  0  0  0  0  0  0  0  0  0  0  0
    4.3068    0.0185    0.0000 C   0  0  0  0  0  0  0  0  0  0  0  0
    1.4489   -2.4565    0.0000 N   0  3  0  0  0  0  0  0  0  0  0  0
    1.4489   -1.6315    0.0000 O   0  0  0  0  0  0  0  0  0  0  0  0
    0.7344   -2.8690    0.0000 O   0  5  0  0  0  0  0  0  0  0  0  0
  2  1  1  0  0  0  0
  3  2  2  0  0  0  0
  3  4  1  0  0  0  0
  4  5  1  0  0  0  0
  4  6  1  0  0  0  0
  7  3  1  0  0  0  0
  8  7  2  0  0  0  0
  8  9  1  0  0  0  0
  9 10  2  0  0  0  0
  9 11  1  0  0  0  0
 12  8  1  0  0  0  0
  1 12  2  0  0  0  0
 12 13  1  0  0  0  0
 13 14  1  0  0  0  0
 14 15  1  0  0  0  0
 15 16  1  0  0  0  0
 13 17  1  0  0  0  0
 17 18  1  0  0  0  0
 18 19  1  0  0  0  0
  1 20  1  0  0  0  0
 20 21  2  0  0  0  0
 20 22  1  0  0  0  0
M  CHG  4   9   1  11  -1  20   1  22  -1
M  END
> <ChemID>
100627

> <CAS>
33820-53-0

> <Original_SMILES>
CC(C)c1cc(c(c(c1)[N+]([O-])=O)N(CCC)CCC)[N+]([O-])=O

> <preferred_name>
Isopropalin

> <dsstox_substance_id>
DTXSID8024157

> <dsstox_compound_id>
DTXCID904157

> <qc_level>
DSSTox_Low

> <Canonical_QSARr>
CC(C)C1=CC(=C(C(=C1)[N+]([O-])=O)N(CCC)CCC)[N+]([O-])=O

> <InChI_Code_QSARr>
InChI=1S/C15H23N3O4/c1-5-7-16(8-6-2)15-13(17(19)20)9-12(11(3)4)10-14(15)18(21)22/h9-11H,5-8H2,1-4H3

> <InChI Key_QSARr>
NEKOXWSIMFDGMA-UHFFFAOYSA-N

> <Salt_Solvent>


> <Salt_Solvent_ID>
0

> <MPID>
99883

> <KocRef>
Schuurmann-Main

> <LogKOC>
4.0

> <Tr_1_Tst_0>
1

$$$$
100628
  Mrv171c012251911022D          

 18 19  0  0  0  0            999 V2000
    2.5275   -1.6352    0.0000 C   0  0  0  0  0  0  0  0  0  0  0  0
    1.8131   -1.2227    0.0000 C   0  0  0  0  0  0  0  0  0  0  0  0
    1.8131   -0.3977    0.0000 Cl  0  0  0  0  0  0  0  0  0  0  0  0
    1.0986   -1.6352    0.0000 C   0  0  0  0  0  0  0  0  0  0  0  0
    1.0986   -2.4602    0.0000 C   0  0  0  0  0  0  0  0  0  0  0  0
    0.3841   -2.8727    0.0000 Cl  0  0  0  0  0  0  0  0  0  0  0  0
    1.8131   -2.8727    0.0000 C   0  0  0  0  0  0  0  0  0  0  0  0
    2.5275   -2.4602    0.0000 C   0  0  0  0  0  0  0  0  0  0  0  0
    3.2420   -2.8727    0.0000 Cl  0  0  0  0  0  0  0  0  0  0  0  0
    3.2420   -1.2227    0.0000 C   0  0  0  0  0  0  0  0  0  0  0  0
    3.9565   -1.6352    0.0000 C   0  0  0  0  0  0  0  0  0  0  0  0
    3.9565   -2.4602    0.0000 Cl  0  0  0  0  0  0  0  0  0  0  0  0
    4.6709   -1.2227    0.0000 C   0  0  0  0  0  0  0  0  0  0  0  0
    4.6709   -0.3977    0.0000 C   0  0  0  0  0  0  0  0  0  0  0  0
    5.3854    0.0148    0.0000 Cl  0  0  0  0  0  0  0  0  0  0  0  0
    3.9565    0.0148    0.0000 C   0  0  0  0  0  0  0  0  0  0  0  0
    3.2420   -0.3977    0.0000 C   0  0  0  0  0  0  0  0  0  0  0  0
    2.5275    0.0148    0.0000 Cl  0  0  0  0  0  0  0  0  0  0  0  0
  2  1  1  0  0  0  0
  2  3  1  0  0  0  0
  4  2  2  0  0  0  0
  5  4  1  0  0  0  0
  5  6  1  0  0  0  0
  7  5  2  0  0  0  0
  8  7  1  0  0  0  0
  1  8  2  0  0  0  0
  8  9  1  0  0  0  0
  1 10  1  0  0  0  0
 11 10  1  0  0  0  0
 11 12  1  0  0  0  0
 13 11  2  0  0  0  0
 14 13  1  0  0  0  0
 14 15  1  0  0  0  0
 16 14  2  0  0  0  0
 17 16  1  0  0  0  0
 10 17  2  0  0  0  0
 17 18  1  0  0  0  0
M  END
> <ChemID>
100628

> <CAS>
33979-03-2

> <Original_SMILES>
Clc1cc(Cl)c(-c2c(Cl)cc(Cl)cc2Cl)c(Cl)c1

> <preferred_name>
2,2',4,4',6,6'-Hexachlorobiphenyl

> <dsstox_substance_id>
DTXSID3040302

> <dsstox_compound_id>
DTXCID1020302

> <qc_level>
DSSTox_Low

> <Canonical_QSARr>
ClC1=CC(Cl)=C(C2C(Cl)=CC(Cl)=CC=2Cl)C(Cl)=C1

> <InChI_Code_QSARr>
InChI=1S/C12H4Cl6/c13-5-1-7(15)11(8(16)2-5)12-9(17)3-6(14)4-10(12)18/h1-4H

> <InChI Key_QSARr>
ICOAEPDGFWLUTI-UHFFFAOYSA-N

> <Salt_Solvent>


> <Salt_Solvent_ID>
0

> <MPID>
99884

> <KocRef>
Nguyen-Add

> <LogKOC>
6.08

> <Tr_1_Tst_0>
1

$$$$
100629
  Mrv171c012251911022D          

 15 15  0  0  0  0            999 V2000
    2.5223   -1.3688    0.0000 C   0  0  0  0  0  0  0  0  0  0  0  0
    2.0373   -2.0362    0.0000 N   0  0  0  0  0  0  0  0  0  0  0  0
    1.2169   -1.9500    0.0000 C   0  0  0  0  0  0  0  0  0  0  0  0
    2.3729   -2.7899    0.0000 C   0  0  0  0  0  0  0  0  0  0  0  0
    1.8880   -3.4574    0.0000 N   0  0  0  0  0  0  0  0  0  0  0  0
    2.2235   -4.2110    0.0000 C   0  0  0  0  0  0  0  0  0  0  0  0
    3.1934   -2.8762    0.0000 O   0  0  0  0  0  0  0  0  0  0  0  0
    3.3473   -1.3688    0.0000 N   0  0  0  0  0  0  0  0  0  0  0  0
    3.6022   -0.5842    0.0000 N   0  0  0  0  0  0  0  0  0  0  0  0
    2.9348   -0.0993    0.0000 C   0  0  0  0  0  0  0  0  0  0  0  0
    2.9348    0.7257    0.0000 C   0  0  0  0  0  0  0  0  0  0  0  0
    2.9348    1.5507    0.0000 C   0  0  0  0  0  0  0  0  0  0  0  0
    3.7598    0.7257    0.0000 C   0  0  0  0  0  0  0  0  0  0  0  0
    2.1098    0.7257    0.0000 C   0  0  0  0  0  0  0  0  0  0  0  0
    2.2673   -0.5842    0.0000 S   0  0  0  0  0  0  0  0  0  0  0  0
  1  2  1  0  0  0  0
  2  3  1  0  0  0  0
  2  4  1  0  0  0  0
  4  5  1  0  0  0  0
  5  6  1  0  0  0  0
  4  7  2  0  0  0  0
  8  1  2  0  0  0  0
  9  8  1  0  0  0  0
 10  9  2  0  0  0  0
 10 11  1  0  0  0  0
 11 12  1  0  0  0  0
 11 13  1  0  0  0  0
 11 14  1  0  0  0  0
 15 10  1  0  0  0  0
  1 15  1  0  0  0  0
M  END
> <ChemID>
100629

> <CAS>
34014-18-1

> <Original_SMILES>
CNC(=O)N(C)c1[n][n]c([s]1)C(C)(C)C

> <preferred_name>
Tebuthiuron

> <dsstox_substance_id>
DTXSID3024316

> <dsstox_compound_id>
DTXCID704316

> <qc_level>
DSSTox_Low

> <Canonical_QSARr>
CNC(=O)N(C)C1=NN=C(S1)C(C)(C)C

> <InChI_Code_QSARr>
InChI=1S/C9H16N4OS/c1-9(2,3)6-11-12-8(15-6)13(5)7(14)10-4/h1-5H3,(H,10,14)

> <InChI Key_QSARr>
HBPDKDSFLXWOAE-UHFFFAOYSA-N

> <Salt_Solvent>


> <Salt_Solvent_ID>
0

> <MPID>
99885

> <KocRef>
Schuurmann-Main

> <LogKOC>
1.83

> <Tr_1_Tst_0>
0

$$$$
100630
  Mrv171c012251911022D          

 18 18  0  0  0  0            999 V2000
    1.6418   -1.2882    0.0000 C   0  0  0  0  0  0  0  0  0  0  0  0
    0.8168   -1.2882    0.0000 C   0  0  0  0  0  0  0  0  0  0  0  0
    0.4043   -0.5737    0.0000 Cl  0  0  0  0  0  0  0  0  0  0  0  0
    2.0543   -2.0027    0.0000 N   0  0  0  0  0  0  0  0  0  0  0  0
    1.6418   -2.7172    0.0000 C   0  0  0  0  0  0  0  0  0  0  0  0
    0.8168   -2.7172    0.0000 C   0  0  0  0  0  0  0  0  0  0  0  0
    0.4043   -2.0027    0.0000 C   0  0  0  0  0  0  0  0  0  0  0  0
    0.4043   -3.4316    0.0000 C   0  0  0  0  0  0  0  0  0  0  0  0
    0.8168   -4.1461    0.0000 C   0  0  0  0  0  0  0  0  0  0  0  0
    1.6418   -4.1461    0.0000 C   0  0  0  0  0  0  0  0  0  0  0  0
    2.0543   -3.4316    0.0000 C   0  0  0  0  0  0  0  0  0  0  0  0
    2.8793   -3.4316    0.0000 C   0  0  0  0  0  0  0  0  0  0  0  0
    3.2918   -2.7172    0.0000 C   0  0  0  0  0  0  0  0  0  0  0  0
    2.8793   -2.0027    0.0000 C   0  0  0  0  0  0  0  0  0  0  0  0
    3.2918   -1.2882    0.0000 O   0  0  0  0  0  0  0  0  0  0  0  0
    4.1168   -1.2882    0.0000 C   0  0  0  0  0  0  0  0  0  0  0  0
    4.5293   -0.5737    0.0000 C   0  0  0  0  0  0  0  0  0  0  0  0
    2.0543   -0.5737    0.0000 O   0  0  0  0  0  0  0  0  0  0  0  0
  1  2  1  0  0  0  0
  2  3  1  0  0  0  0
  1  4  1  0  0  0  0
  4  5  1  0  0  0  0
  6  5  1  0  0  0  0
  6  7  1  0  0  0  0
  8  6  2  0  0  0  0
  9  8  1  0  0  0  0
 10  9  2  0  0  0  0
 11 10  1  0  0  0  0
  5 11  2  0  0  0  0
 11 12  1  0  0  0  0
 12 13  1  0  0  0  0
  4 14  1  0  0  0  0
 14 15  1  0  0  0  0
 15 16  1  0  0  0  0
 16 17  1  0  0  0  0
  1 18  2  0  0  0  0
M  END
> <ChemID>
100630

> <CAS>
34256-82-1

> <Original_SMILES>
Cc1cccc(CC)c1N(COCC)C(=O)CCl

> <preferred_name>
Acetochlor

> <dsstox_substance_id>
DTXSID8023848

> <dsstox_compound_id>
DTXCID303848

> <qc_level>
DSSTox_Low

> <Canonical_QSARr>
CC1=CC=CC(CC)=C1N(COCC)C(=O)CCl

> <InChI_Code_QSARr>
InChI=1S/C14H20ClNO2/c1-4-12-8-6-7-11(3)14(12)16(10-18-5-2)13(17)9-15/h6-8H,4-5,9-10H2,1-3H3

> <InChI Key_QSARr>
VTNQPKFIQCLBDU-UHFFFAOYSA-N

> <Salt_Solvent>


> <Salt_Solvent_ID>
0

> <MPID>
99886

> <KocRef>
Schuurmann-Main

> <LogKOC>
2.32

> <Tr_1_Tst_0>
1

$$$$
100632
  Mrv171c012251911022D          

 14 15  0  0  0  0            999 V2000
    3.1655   -1.7074    0.0000 C   0  0  0  0  0  0  0  0  0  0  0  0
    3.1655   -2.5324    0.0000 C   0  0  0  0  0  0  0  0  0  0  0  0
    3.8800   -2.9449    0.0000 C   0  0  0  0  0  0  0  0  0  0  0  0
    4.5945   -2.5324    0.0000 C   0  0  0  0  0  0  0  0  0  0  0  0
    4.5945   -1.7074    0.0000 C   0  0  0  0  0  0  0  0  0  0  0  0
    3.8800   -1.2949    0.0000 C   0  0  0  0  0  0  0  0  0  0  0  0
    3.8800   -0.4699    0.0000 Cl  0  0  0  0  0  0  0  0  0  0  0  0
    2.4510   -1.2949    0.0000 C   0  0  0  0  0  0  0  0  0  0  0  0
    2.4510   -0.4699    0.0000 C   0  0  0  0  0  0  0  0  0  0  0  0
    1.7366   -0.0574    0.0000 C   0  0  0  0  0  0  0  0  0  0  0  0
    1.0221   -0.4699    0.0000 C   0  0  0  0  0  0  0  0  0  0  0  0
    0.3076   -0.0574    0.0000 Cl  0  0  0  0  0  0  0  0  0  0  0  0
    1.0221   -1.2949    0.0000 C   0  0  0  0  0  0  0  0  0  0  0  0
    1.7366   -1.7074    0.0000 C   0  0  0  0  0  0  0  0  0  0  0  0
  2  1  1  0  0  0  0
  3  2  2  0  0  0  0
  4  3  1  0  0  0  0
  5  4  2  0  0  0  0
  6  5  1  0  0  0  0
  1  6  2  0  0  0  0
  6  7  1  0  0  0  0
  1  8  1  0  0  0  0
  9  8  1  0  0  0  0
 10  9  2  0  0  0  0
 11 10  1  0  0  0  0
 11 12  1  0  0  0  0
 13 11  2  0  0  0  0
 14 13  1  0  0  0  0
  8 14  2  0  0  0  0
M  END
> <ChemID>
100632

> <CAS>
34883-43-7

> <Original_SMILES>
Clc1ccc(cc1)-c1ccccc1Cl

> <preferred_name>
2,4'-Dichlorobiphenyl

> <dsstox_substance_id>
DTXSID0022511

> <dsstox_compound_id>
DTXCID902511

> <qc_level>
DSSTox_Low

> <Canonical_QSARr>
ClC1C=CC(=CC=1)C1C=CC=CC=1Cl

> <InChI_Code_QSARr>
InChI=1S/C12H8Cl2/c13-10-7-5-9(6-8-10)11-3-1-2-4-12(11)14/h1-8H

> <InChI Key_QSARr>
UFNIBRDIUNVOMX-UHFFFAOYSA-N

> <Salt_Solvent>


> <Salt_Solvent_ID>
0

> <MPID>
99887

> <KocRef>
Schuur-SRC avg

> <LogKOC>
4.34

> <Tr_1_Tst_0>
1

$$$$
100633
  Mrv171c012251911022D          

 18 19  0  0  0  0            999 V2000
    2.5315   -1.6342    0.0000 C   0  0  0  0  0  0  0  0  0  0  0  0
    1.8170   -1.2217    0.0000 C   0  0  0  0  0  0  0  0  0  0  0  0
    1.8170   -0.3967    0.0000 Cl  0  0  0  0  0  0  0  0  0  0  0  0
    1.1025   -1.6342    0.0000 C   0  0  0  0  0  0  0  0  0  0  0  0
    1.1025   -2.4592    0.0000 C   0  0  0  0  0  0  0  0  0  0  0  0
    0.3881   -2.8717    0.0000 Cl  0  0  0  0  0  0  0  0  0  0  0  0
    1.8170   -2.8717    0.0000 C   0  0  0  0  0  0  0  0  0  0  0  0
    1.8170   -3.6967    0.0000 Cl  0  0  0  0  0  0  0  0  0  0  0  0
    2.5315   -2.4592    0.0000 C   0  0  0  0  0  0  0  0  0  0  0  0
    3.2460   -1.2217    0.0000 C   0  0  0  0  0  0  0  0  0  0  0  0
    3.9604   -1.6342    0.0000 C   0  0  0  0  0  0  0  0  0  0  0  0
    4.6749   -1.2217    0.0000 C   0  0  0  0  0  0  0  0  0  0  0  0
    5.3894   -1.6342    0.0000 Cl  0  0  0  0  0  0  0  0  0  0  0  0
    4.6749   -0.3967    0.0000 C   0  0  0  0  0  0  0  0  0  0  0  0
    5.3894    0.0158    0.0000 Cl  0  0  0  0  0  0  0  0  0  0  0  0
    3.9604    0.0158    0.0000 C   0  0  0  0  0  0  0  0  0  0  0  0
    3.2460   -0.3967    0.0000 C   0  0  0  0  0  0  0  0  0  0  0  0
    2.5315    0.0158    0.0000 Cl  0  0  0  0  0  0  0  0  0  0  0  0
  2  1  1  0  0  0  0
  2  3  1  0  0  0  0
  4  2  2  0  0  0  0
  5  4  1  0  0  0  0
  5  6  1  0  0  0  0
  7  5  2  0  0  0  0
  7  8  1  0  0  0  0
  9  7  1  0  0  0  0
  1  9  2  0  0  0  0
  1 10  1  0  0  0  0
 11 10  1  0  0  0  0
 12 11  2  0  0  0  0
 12 13  1  0  0  0  0
 14 12  1  0  0  0  0
 14 15  1  0  0  0  0
 16 14  2  0  0  0  0
 17 16  1  0  0  0  0
 10 17  2  0  0  0  0
 17 18  1  0  0  0  0
M  END
> <ChemID>
100633

> <CAS>
35065-27-1

> <Original_SMILES>
Clc1cc(Cl)c(Cl)cc1-c1cc(Cl)c(Cl)cc1Cl

> <preferred_name>
2,2',4,4',5,5'-Hexachlorobiphenyl

> <dsstox_substance_id>
DTXSID2032180

> <dsstox_compound_id>
DTXCID0012180

> <qc_level>
DSSTox_Low

> <Canonical_QSARr>
ClC1=CC(Cl)=C(C=C1Cl)C1=CC(Cl)=C(Cl)C=C1Cl

> <InChI_Code_QSARr>
InChI=1S/C12H4Cl6/c13-7-3-11(17)9(15)1-5(7)6-2-10(16)12(18)4-8(6)14/h1-4H

> <InChI Key_QSARr>
MVWHGTYKUMDIHL-UHFFFAOYSA-N

> <Salt_Solvent>


> <Salt_Solvent_ID>
0

> <MPID>
99888

> <KocRef>
SRC 1992 Non-Polar

> <LogKOC>
5.58

> <Tr_1_Tst_0>
1

$$$$
100634
  Mrv171c012251911022D          

 18 19  0  0  0  0            999 V2000
    3.0652   -0.8568    0.0000 C   0  0  0  0  0  0  0  0  0  0  0  0
    3.7796   -0.4443    0.0000 C   0  0  0  0  0  0  0  0  0  0  0  0
    3.7796    0.3807    0.0000 C   0  0  0  0  0  0  0  0  0  0  0  0
    3.0652    0.7932    0.0000 C   0  0  0  0  0  0  0  0  0  0  0  0
    3.0652    1.6182    0.0000 Cl  0  0  0  0  0  0  0  0  0  0  0  0
    2.3507    0.3807    0.0000 C   0  0  0  0  0  0  0  0  0  0  0  0
    1.6362    0.7932    0.0000 Cl  0  0  0  0  0  0  0  0  0  0  0  0
    2.3507   -0.4443    0.0000 C   0  0  0  0  0  0  0  0  0  0  0  0
    1.6362   -0.8568    0.0000 Cl  0  0  0  0  0  0  0  0  0  0  0  0
    3.0652   -1.6818    0.0000 C   0  0  0  0  0  0  0  0  0  0  0  0
    2.3507   -2.0943    0.0000 C   0  0  0  0  0  0  0  0  0  0  0  0
    2.3507   -2.9193    0.0000 C   0  0  0  0  0  0  0  0  0  0  0  0
    1.6362   -3.3318    0.0000 Cl  0  0  0  0  0  0  0  0  0  0  0  0
    3.0652   -3.3318    0.0000 C   0  0  0  0  0  0  0  0  0  0  0  0
    3.0652   -4.1568    0.0000 Cl  0  0  0  0  0  0  0  0  0  0  0  0
    3.7796   -2.9193    0.0000 C   0  0  0  0  0  0  0  0  0  0  0  0
    3.7796   -2.0943    0.0000 C   0  0  0  0  0  0  0  0  0  0  0  0
    4.4941   -1.6818    0.0000 Cl  0  0  0  0  0  0  0  0  0  0  0  0
  2  1  1  0  0  0  0
  3  2  2  0  0  0  0
  4  3  1  0  0  0  0
  4  5  1  0  0  0  0
  6  4  2  0  0  0  0
  6  7  1  0  0  0  0
  8  6  1  0  0  0  0
  1  8  2  0  0  0  0
  8  9  1  0  0  0  0
  1 10  1  0  0  0  0
 11 10  1  0  0  0  0
 12 11  2  0  0  0  0
 12 13  1  0  0  0  0
 14 12  1  0  0  0  0
 14 15  1  0  0  0  0
 16 14  2  0  0  0  0
 17 16  1  0  0  0  0
 10 17  2  0  0  0  0
 17 18  1  0  0  0  0
M  END
> <ChemID>
100634

> <CAS>
35065-28-2

> <Original_SMILES>
Clc1ccc(-c2cc(Cl)c(Cl)cc2Cl)c(Cl)c1Cl

> <preferred_name>
2,2',3,4,4',5'-Hexachlorobiphenyl

> <dsstox_substance_id>
DTXSID8038300

> <dsstox_compound_id>
DTXCID6018300

> <qc_level>
DSSTox_Low

> <Canonical_QSARr>
ClC1C=CC(C2C=C(Cl)C(Cl)=CC=2Cl)=C(Cl)C=1Cl

> <InChI_Code_QSARr>
InChI=1S/C12H4Cl6/c13-7-2-1-5(11(17)12(7)18)6-3-9(15)10(16)4-8(6)14/h1-4H

> <InChI Key_QSARr>
RPUMZMSNLZHIGZ-UHFFFAOYSA-N

> <Salt_Solvent>


> <Salt_Solvent_ID>
0

> <MPID>
99889

> <KocRef>
Baker-Data

> <LogKOC>
5.93

> <Tr_1_Tst_0>
0

$$$$
100635
  Mrv171c012251911022D          

 21 22  0  0  0  0            999 V2000
    2.3067   -1.5068    0.0000 C   0  0  0  0  0  0  0  0  0  0  0  0
    2.3067   -0.6818    0.0000 O   0  0  0  0  0  0  0  0  0  0  0  0
    1.5922   -1.9193    0.0000 C   0  0  0  0  0  0  0  0  0  0  0  0
    0.8778   -1.5068    0.0000 C   0  0  0  0  0  0  0  0  0  0  0  0
    0.8778   -0.6818    0.0000 F   0  0  0  0  0  0  0  0  0  0  0  0
    0.1633   -1.9193    0.0000 C   0  0  0  0  0  0  0  0  0  0  0  0
    0.1633   -2.7443    0.0000 C   0  0  0  0  0  0  0  0  0  0  0  0
    0.8778   -3.1568    0.0000 C   0  0  0  0  0  0  0  0  0  0  0  0
    1.5922   -2.7443    0.0000 C   0  0  0  0  0  0  0  0  0  0  0  0
    2.3067   -3.1568    0.0000 F   0  0  0  0  0  0  0  0  0  0  0  0
    3.0212   -1.9193    0.0000 N   0  0  0  0  0  0  0  0  0  0  0  0
    3.7356   -1.5068    0.0000 C   0  0  0  0  0  0  0  0  0  0  0  0
    3.7356   -0.6818    0.0000 O   0  0  0  0  0  0  0  0  0  0  0  0
    4.4501   -1.9193    0.0000 N   0  0  0  0  0  0  0  0  0  0  0  0
    5.1646   -1.5068    0.0000 C   0  0  0  0  0  0  0  0  0  0  0  0
    5.8791   -1.9193    0.0000 C   0  0  0  0  0  0  0  0  0  0  0  0
    6.5935   -1.5068    0.0000 C   0  0  0  0  0  0  0  0  0  0  0  0
    6.5935   -0.6818    0.0000 C   0  0  0  0  0  0  0  0  0  0  0  0
    7.3080   -0.2693    0.0000 Cl  0  0  0  0  0  0  0  0  0  0  0  0
    5.8791   -0.2693    0.0000 C   0  0  0  0  0  0  0  0  0  0  0  0
    5.1646   -0.6818    0.0000 C   0  0  0  0  0  0  0  0  0  0  0  0
  1  2  2  0  0  0  0
  1  3  1  0  0  0  0
  4  3  2  0  0  0  0
  4  5  1  0  0  0  0
  6  4  1  0  0  0  0
  7  6  2  0  0  0  0
  8  7  1  0  0  0  0
  9  8  2  0  0  0  0
  3  9  1  0  0  0  0
  9 10  1  0  0  0  0
  1 11  1  0  0  0  0
 11 12  1  0  0  0  0
 12 13  2  0  0  0  0
 12 14  1  0  0  0  0
 14 15  1  0  0  0  0
 16 15  2  0  0  0  0
 17 16  1  0  0  0  0
 18 17  2  0  0  0  0
 18 19  1  0  0  0  0
 20 18  1  0  0  0  0
 21 20  2  0  0  0  0
 15 21  1  0  0  0  0
M  END
> <ChemID>
100635

> <CAS>
35367-38-5

> <Original_SMILES>
O=C(Nc1ccc(Cl)cc1)NC(=O)c1c(F)cccc1F

> <preferred_name>
Diflubenzuron

> <dsstox_substance_id>
DTXSID1024049

> <dsstox_compound_id>
DTXCID204049

> <qc_level>
DSSTox_Low

> <Canonical_QSARr>
O=C(NC1C=CC(Cl)=CC=1)NC(=O)C1C(F)=CC=CC=1F

> <InChI_Code_QSARr>
InChI=1S/C14H9ClF2N2O2/c15-8-4-6-9(7-5-8)18-14(21)19-13(20)12-10(16)2-1-3-11(12)17/h1-7H,(H2,18,19,20,21)

> <InChI Key_QSARr>
QQQYTWIFVNKMRW-UHFFFAOYSA-N

> <Salt_Solvent>


> <Salt_Solvent_ID>
0

> <MPID>
99890

> <KocRef>
Schuurmann-Main

> <LogKOC>
3.83

> <Tr_1_Tst_0>
1

$$$$
100636
  Mrv171c012251911022D          

 18 18  0  0  0  0            999 V2000
    3.7280   -2.6008    0.0000 P   0  0  0  0  0  0  0  0  0  0  0  0
    3.3155   -1.8863    0.0000 O   0  0  0  0  0  0  0  0  0  0  0  0
    2.4905   -1.8863    0.0000 C   0  0  0  0  0  0  0  0  0  0  0  0
    2.0780   -1.1718    0.0000 C   0  0  0  0  0  0  0  0  0  0  0  0
    3.0135   -3.0133    0.0000 S   0  0  0  0  0  0  0  0  0  0  0  0
    3.0135   -3.8383    0.0000 C   0  0  0  0  0  0  0  0  0  0  0  0
    2.2991   -4.2508    0.0000 C   0  0  0  0  0  0  0  0  0  0  0  0
    2.2991   -5.0758    0.0000 C   0  0  0  0  0  0  0  0  0  0  0  0
    4.4425   -2.1883    0.0000 O   0  0  0  0  0  0  0  0  0  0  0  0
    4.4425   -1.3633    0.0000 C   0  0  0  0  0  0  0  0  0  0  0  0
    5.1569   -0.9508    0.0000 C   0  0  0  0  0  0  0  0  0  0  0  0
    5.1569   -0.1258    0.0000 C   0  0  0  0  0  0  0  0  0  0  0  0
    4.4425    0.2867    0.0000 C   0  0  0  0  0  0  0  0  0  0  0  0
    4.4425    1.1117    0.0000 S   0  0  0  0  0  0  0  0  0  0  0  0
    3.7280    1.5242    0.0000 C   0  0  0  0  0  0  0  0  0  0  0  0
    3.7280   -0.1258    0.0000 C   0  0  0  0  0  0  0  0  0  0  0  0
    3.7280   -0.9508    0.0000 C   0  0  0  0  0  0  0  0  0  0  0  0
    4.1405   -3.3153    0.0000 S   0  0  0  0  0  0  0  0  0  0  0  0
  1  2  1  0  0  0  0
  2  3  1  0  0  0  0
  3  4  1  0  0  0  0
  1  5  1  0  0  0  0
  5  6  1  0  0  0  0
  6  7  1  0  0  0  0
  7  8  1  0  0  0  0
  1  9  1  0  0  0  0
  9 10  1  0  0  0  0
 11 10  2  0  0  0  0
 12 11  1  0  0  0  0
 13 12  2  0  0  0  0
 13 14  1  0  0  0  0
 14 15  1  0  0  0  0
 16 13  1  0  0  0  0
 17 16  2  0  0  0  0
 10 17  1  0  0  0  0
  1 18  2  0  0  0  0
M  END
> <ChemID>
100636

> <CAS>
35400-43-2

> <Original_SMILES>
CSc1ccc(cc1)OP(=S)(OCC)SCCC

> <preferred_name>
Sulprofos

> <dsstox_substance_id>
DTXSID8032675

> <dsstox_compound_id>
DTXCID6012675

> <qc_level>
DSSTox_Low

> <Canonical_QSARr>
CSC1=CC=C(C=C1)OP(=S)(OCC)SCCC

> <InChI_Code_QSARr>
InChI=1S/C12H19O2PS3/c1-4-10-18-15(16,13-5-2)14-11-6-8-12(17-3)9-7-11/h6-9H,4-5,10H2,1-3H3

> <InChI Key_QSARr>
JXHJNEJVUNHLKO-UHFFFAOYSA-N

> <Salt_Solvent>


> <Salt_Solvent_ID>
0

> <MPID>
99891

> <KocRef>
Schuurmann-Main

> <LogKOC>
4.08

> <Tr_1_Tst_0>
1

$$$$
100637
  Mrv171c012251911022D          

 19 20  0  0  0  0            999 V2000
    3.3414   -1.0121    0.0000 C   0  0  0  0  0  0  0  0  0  0  0  0
    4.1664   -1.0121    0.0000 C   0  0  0  0  0  0  0  0  0  0  0  0
    4.5789   -0.2977    0.0000 C   0  0  0  0  0  0  0  0  0  0  0  0
    4.1664    0.4168    0.0000 C   0  0  0  0  0  0  0  0  0  0  0  0
    4.5789    1.1313    0.0000 Cl  0  0  0  0  0  0  0  0  0  0  0  0
    3.3414    0.4168    0.0000 C   0  0  0  0  0  0  0  0  0  0  0  0
    2.9289   -0.2977    0.0000 C   0  0  0  0  0  0  0  0  0  0  0  0
    2.1039   -0.2977    0.0000 Cl  0  0  0  0  0  0  0  0  0  0  0  0
    2.9289   -1.7266    0.0000 C   0  0  0  0  0  0  0  0  0  0  0  0
    2.1039   -1.7266    0.0000 O   0  0  0  0  0  0  0  0  0  0  0  0
    1.6914   -2.4411    0.0000 C   0  0  0  0  0  0  0  0  0  0  0  0
    0.8664   -2.4411    0.0000 C   0  0  0  0  0  0  0  0  0  0  0  0
    0.4539   -3.1556    0.0000 C   0  0  0  0  0  0  0  0  0  0  0  0
    3.3414   -2.4411    0.0000 C   0  0  0  0  0  0  0  0  0  0  0  0
    2.9289   -3.1556    0.0000 N   0  0  0  0  0  0  0  0  0  0  0  0
    2.1084   -3.2418    0.0000 C   0  0  0  0  0  0  0  0  0  0  0  0
    1.9369   -4.0488    0.0000 C   0  0  0  0  0  0  0  0  0  0  0  0
    2.6513   -4.4613    0.0000 N   0  0  0  0  0  0  0  0  0  0  0  0
    3.2644   -3.9092    0.0000 C   0  0  0  0  0  0  0  0  0  0  0  0
  2  1  1  0  0  0  0
  3  2  2  0  0  0  0
  4  3  1  0  0  0  0
  4  5  1  0  0  0  0
  6  4  2  0  0  0  0
  7  6  1  0  0  0  0
  1  7  2  0  0  0  0
  7  8  1  0  0  0  0
  1  9  1  0  0  0  0
  9 10  1  0  0  0  0
 10 11  1  0  0  0  0
 11 12  1  0  0  0  0
 12 13  2  0  0  0  0
  9 14  1  0  0  0  0
 14 15  1  0  0  0  0
 16 15  1  0  0  0  0
 17 16  2  0  0  0  0
 18 17  1  0  0  0  0
 19 18  2  0  0  0  0
 15 19  1  0  0  0  0
M  END
> <ChemID>
100637

> <CAS>
35554-44-0

> <Original_SMILES>
C=CCOC(C[n]1c[n]cc1)c1ccc(Cl)cc1Cl

> <preferred_name>
Imazalil

> <dsstox_substance_id>
DTXSID8024151

> <dsstox_compound_id>
DTXCID504151

> <qc_level>
DSSTox_Low

> <Canonical_QSARr>
C=CCOC(CN1C=NC=C1)C1C=CC(Cl)=CC=1Cl

> <InChI_Code_QSARr>
InChI=1S/C14H14Cl2N2O/c1-2-7-19-14(9-18-6-5-17-10-18)12-4-3-11(15)8-13(12)16/h2-6,8,10,14H,1,7,9H2

> <InChI Key_QSARr>
PZBPKYOVPCNPJY-UHFFFAOYSA-N

> <Salt_Solvent>


> <Salt_Solvent_ID>
0

> <MPID>
99892

> <KocRef>
Schuurmann-Main

> <LogKOC>
3.73

> <Tr_1_Tst_0>
1

$$$$
100638
  Mrv171c012251911022D          

 16 17  0  0  0  0            999 V2000
    1.7032   -1.2210    0.0000 C   0  0  0  0  0  0  0  0  0  0  0  0
    1.7032   -0.3960    0.0000 C   0  0  0  0  0  0  0  0  0  0  0  0
    0.9887    0.0165    0.0000 C   0  0  0  0  0  0  0  0  0  0  0  0
    0.9887    0.8415    0.0000 Cl  0  0  0  0  0  0  0  0  0  0  0  0
    0.2743   -0.3960    0.0000 C   0  0  0  0  0  0  0  0  0  0  0  0
    0.2743   -1.2210    0.0000 C   0  0  0  0  0  0  0  0  0  0  0  0
    0.9887   -1.6335    0.0000 C   0  0  0  0  0  0  0  0  0  0  0  0
    0.9887   -2.4585    0.0000 Cl  0  0  0  0  0  0  0  0  0  0  0  0
    2.4177   -1.6335    0.0000 C   0  0  0  0  0  0  0  0  0  0  0  0
    2.4177   -2.4585    0.0000 C   0  0  0  0  0  0  0  0  0  0  0  0
    3.1321   -2.8710    0.0000 C   0  0  0  0  0  0  0  0  0  0  0  0
    3.1321   -3.6960    0.0000 Cl  0  0  0  0  0  0  0  0  0  0  0  0
    3.8466   -2.4585    0.0000 C   0  0  0  0  0  0  0  0  0  0  0  0
    3.8466   -1.6335    0.0000 C   0  0  0  0  0  0  0  0  0  0  0  0
    3.1321   -1.2210    0.0000 C   0  0  0  0  0  0  0  0  0  0  0  0
    3.1321   -0.3960    0.0000 Cl  0  0  0  0  0  0  0  0  0  0  0  0
  2  1  1  0  0  0  0
  3  2  2  0  0  0  0
  3  4  1  0  0  0  0
  5  3  1  0  0  0  0
  6  5  2  0  0  0  0
  7  6  1  0  0  0  0
  1  7  2  0  0  0  0
  7  8  1  0  0  0  0
  1  9  1  0  0  0  0
 10  9  1  0  0  0  0
 11 10  2  0  0  0  0
 11 12  1  0  0  0  0
 13 11  1  0  0  0  0
 14 13  2  0  0  0  0
 15 14  1  0  0  0  0
  9 15  2  0  0  0  0
 15 16  1  0  0  0  0
M  END
> <ChemID>
100638

> <CAS>
35693-99-3

> <Original_SMILES>
Clc1cc(-c2cc(Cl)ccc2Cl)c(Cl)cc1

> <preferred_name>
2,2',5,5'-Tetrachlorobiphenyl

> <dsstox_substance_id>
DTXSID3038305

> <dsstox_compound_id>
DTXCID1018305

> <qc_level>
DSSTox_Low

> <Canonical_QSARr>
ClC1=CC(C2C=C(Cl)C=CC=2Cl)=C(Cl)C=C1

> <InChI_Code_QSARr>
InChI=1S/C12H6Cl4/c13-7-1-3-11(15)9(5-7)10-6-8(14)2-4-12(10)16/h1-6H

> <InChI Key_QSARr>
HCWZEPKLWVAEOV-UHFFFAOYSA-N

> <Salt_Solvent>


> <Salt_Solvent_ID>
0

> <MPID>
99893

> <KocRef>
Schuur-SRC avg

> <LogKOC>
5.12

> <Tr_1_Tst_0>
0

$$$$
100639
  Mrv171c012251911022D          

 18 19  0  0  0  0            999 V2000
    1.7141   -1.0667    0.0000 C   0  0  0  0  0  0  0  0  0  0  0  0
    1.7141   -0.2417    0.0000 C   0  0  0  0  0  0  0  0  0  0  0  0
    0.9997    0.1708    0.0000 C   0  0  0  0  0  0  0  0  0  0  0  0
    0.9997    0.9958    0.0000 Cl  0  0  0  0  0  0  0  0  0  0  0  0
    0.2852   -0.2417    0.0000 C   0  0  0  0  0  0  0  0  0  0  0  0
    0.2852   -1.0667    0.0000 C   0  0  0  0  0  0  0  0  0  0  0  0
   -0.4293   -1.4792    0.0000 Cl  0  0  0  0  0  0  0  0  0  0  0  0
    0.9997   -1.4792    0.0000 C   0  0  0  0  0  0  0  0  0  0  0  0
    0.9997   -2.3042    0.0000 Cl  0  0  0  0  0  0  0  0  0  0  0  0
    2.4286   -1.4792    0.0000 C   0  0  0  0  0  0  0  0  0  0  0  0
    2.4286   -2.3042    0.0000 C   0  0  0  0  0  0  0  0  0  0  0  0
    3.1431   -2.7167    0.0000 C   0  0  0  0  0  0  0  0  0  0  0  0
    3.1431   -3.5417    0.0000 Cl  0  0  0  0  0  0  0  0  0  0  0  0
    3.8575   -2.3042    0.0000 C   0  0  0  0  0  0  0  0  0  0  0  0
    3.8575   -1.4792    0.0000 C   0  0  0  0  0  0  0  0  0  0  0  0
    4.5720   -1.0667    0.0000 Cl  0  0  0  0  0  0  0  0  0  0  0  0
    3.1431   -1.0667    0.0000 C   0  0  0  0  0  0  0  0  0  0  0  0
    3.1431   -0.2417    0.0000 Cl  0  0  0  0  0  0  0  0  0  0  0  0
  2  1  1  0  0  0  0
  3  2  2  0  0  0  0
  3  4  1  0  0  0  0
  5  3  1  0  0  0  0
  6  5  2  0  0  0  0
  6  7  1  0  0  0  0
  8  6  1  0  0  0  0
  1  8  2  0  0  0  0
  8  9  1  0  0  0  0
  1 10  1  0  0  0  0
 11 10  1  0  0  0  0
 12 11  2  0  0  0  0
 12 13  1  0  0  0  0
 14 12  1  0  0  0  0
 15 14  2  0  0  0  0
 15 16  1  0  0  0  0
 17 15  1  0  0  0  0
 10 17  2  0  0  0  0
 17 18  1  0  0  0  0
M  END
> <ChemID>
100639

> <CAS>
35694-04-3

> <Original_SMILES>
Clc1cc(Cl)c(Cl)c(c1)-c1cc(Cl)cc(Cl)c1Cl

> <preferred_name>
2,2',3,3',5,5'-Hexachlorobiphenyl

> <dsstox_substance_id>
DTXSID4030045

> <dsstox_compound_id>
DTXCID2010045

> <qc_level>
DSSTox_Low

> <Canonical_QSARr>
ClC1C=C(Cl)C(Cl)=C(C=1)C1C=C(Cl)C=C(Cl)C=1Cl

> <InChI_Code_QSARr>
InChI=1S/C12H4Cl6/c13-5-1-7(11(17)9(15)3-5)8-2-6(14)4-10(16)12(8)18/h1-4H

> <InChI Key_QSARr>
AJKLKINFZLWHQE-UHFFFAOYSA-N

> <Salt_Solvent>


> <Salt_Solvent_ID>
0

> <MPID>
99894

> <KocRef>
Schuurmann-Main

> <LogKOC>
6.48

> <Tr_1_Tst_0>
1

$$$$
100640
  Mrv171c012251911022D          

 20 21  0  0  0  0            999 V2000
    0.3573    1.8563    0.0000 C   0  0  0  0  0  0  0  0  0  0  0  0
    0.3573    2.6813    0.0000 C   0  0  0  0  0  0  0  0  0  0  0  0
   -0.3572    3.0938    0.0000 C   0  0  0  0  0  0  0  0  0  0  0  0
   -0.3572    3.9188    0.0000 Cl  0  0  0  0  0  0  0  0  0  0  0  0
   -1.0717    2.6813    0.0000 C   0  0  0  0  0  0  0  0  0  0  0  0
   -1.7862    3.0938    0.0000 Cl  0  0  0  0  0  0  0  0  0  0  0  0
   -1.0717    1.8563    0.0000 C   0  0  0  0  0  0  0  0  0  0  0  0
   -1.7862    1.4438    0.0000 Cl  0  0  0  0  0  0  0  0  0  0  0  0
   -0.3572    1.4438    0.0000 C   0  0  0  0  0  0  0  0  0  0  0  0
   -0.3572    0.6188    0.0000 Cl  0  0  0  0  0  0  0  0  0  0  0  0
    1.0717    1.4438    0.0000 C   0  0  0  0  0  0  0  0  0  0  0  0
    1.0717    0.6188    0.0000 C   0  0  0  0  0  0  0  0  0  0  0  0
    1.7862    0.2063    0.0000 C   0  0  0  0  0  0  0  0  0  0  0  0
    1.7862   -0.6187    0.0000 Cl  0  0  0  0  0  0  0  0  0  0  0  0
    2.5007    0.6188    0.0000 C   0  0  0  0  0  0  0  0  0  0  0  0
    3.2151    0.2063    0.0000 Cl  0  0  0  0  0  0  0  0  0  0  0  0
    2.5007    1.4438    0.0000 C   0  0  0  0  0  0  0  0  0  0  0  0
    3.2151    1.8563    0.0000 Cl  0  0  0  0  0  0  0  0  0  0  0  0
    1.7862    1.8563    0.0000 C   0  0  0  0  0  0  0  0  0  0  0  0
    1.7862    2.6813    0.0000 Cl  0  0  0  0  0  0  0  0  0  0  0  0
  2  1  1  0  0  0  0
  3  2  2  0  0  0  0
  3  4  1  0  0  0  0
  5  3  1  0  0  0  0
  5  6  1  0  0  0  0
  7  5  2  0  0  0  0
  7  8  1  0  0  0  0
  9  7  1  0  0  0  0
  1  9  2  0  0  0  0
  9 10  1  0  0  0  0
  1 11  1  0  0  0  0
 12 11  1  0  0  0  0
 13 12  2  0  0  0  0
 13 14  1  0  0  0  0
 15 13  1  0  0  0  0
 15 16  1  0  0  0  0
 17 15  2  0  0  0  0
 17 18  1  0  0  0  0
 19 17  1  0  0  0  0
 11 19  2  0  0  0  0
 19 20  1  0  0  0  0
M  END
> <ChemID>
100640

> <CAS>
35694-08-7

> <Original_SMILES>
Clc1cc(-c2cc(Cl)c(Cl)c(Cl)c2Cl)c(Cl)c(Cl)c1Cl

> <preferred_name>
2,2',3,3',4,4',5,5'-Octachlorobiphenyl

> <dsstox_substance_id>
DTXSID5074139

> <dsstox_compound_id>
DTXCID9039078

> <qc_level>
Public_High

> <Canonical_QSARr>
ClC1=CC(C2C=C(Cl)C(Cl)=C(Cl)C=2Cl)=C(Cl)C(Cl)=C1Cl

> <InChI_Code_QSARr>
InChI=1S/C12H2Cl8/c13-5-1-3(7(15)11(19)9(5)17)4-2-6(14)10(18)12(20)8(4)16/h1-2H

> <InChI Key_QSARr>
DTMRKGRREZAYAP-UHFFFAOYSA-N

> <Salt_Solvent>


> <Salt_Solvent_ID>
0

> <MPID>
99895

> <KocRef>
Nguyen-Add

> <LogKOC>
6.41

> <Tr_1_Tst_0>
1

$$$$
100641
  Mrv171c012251911022D          

 14 14  0  0  0  0            999 V2000
    3.4361   -1.6205    0.0000 O   0  0  0  0  0  0  0  0  0  0  0  0
    4.1506   -1.2080    0.0000 C   0  0  0  0  0  0  0  0  0  0  0  0
    4.8651   -1.6205    0.0000 N   0  0  0  0  0  0  0  0  0  0  0  0
    4.8651   -2.4455    0.0000 C   0  0  0  0  0  0  0  0  0  0  0  0
    5.5795   -1.2080    0.0000 C   0  0  0  0  0  0  0  0  0  0  0  0
    4.1506   -0.3830    0.0000 N   0  0  0  0  0  0  0  0  0  0  0  0
    3.4361    0.0295    0.0000 C   0  0  0  0  0  0  0  0  0  0  0  0
    3.4361    0.8545    0.0000 C   0  0  0  0  0  0  0  0  0  0  0  0
    2.7217    1.2670    0.0000 C   0  0  0  0  0  0  0  0  0  0  0  0
    2.7217    2.0920    0.0000 C   0  0  0  0  0  0  0  0  0  0  0  0
    2.0072    0.8545    0.0000 C   0  0  0  0  0  0  0  0  0  0  0  0
    2.0072    0.0295    0.0000 C   0  0  0  0  0  0  0  0  0  0  0  0
    1.2927   -0.3830    0.0000 C   0  0  0  0  0  0  0  0  0  0  0  0
    2.7217   -0.3830    0.0000 C   0  0  0  0  0  0  0  0  0  0  0  0
  1  2  2  0  0  0  0
  2  3  1  0  0  0  0
  3  4  1  0  0  0  0
  3  5  1  0  0  0  0
  2  6  1  0  0  0  0
  6  7  1  0  0  0  0
  8  7  1  0  0  0  0
  9  8  2  0  0  0  0
  9 10  1  0  0  0  0
 11  9  1  0  0  0  0
 12 11  2  0  0  0  0
 12 13  1  0  0  0  0
 14 12  1  0  0  0  0
  7 14  2  0  0  0  0
M  END
> <ChemID>
100641

> <CAS>
36627-56-2

> <Original_SMILES>
CN(C)C(=O)Nc1cc(C)cc(C)c1

> <preferred_name>
N'-(3,5-Dimethylphenyl)-N,N-dimethylurea

> <dsstox_substance_id>
DTXSID60190097

> <dsstox_compound_id>
DTXCID70112588

> <qc_level>
Public_Medium

> <Canonical_QSARr>
CC1=CC(=CC(C)=C1)NC(=O)N(C)C

> <InChI_Code_QSARr>
InChI=1S/C11H16N2O/c1-8-5-9(2)7-10(6-8)12-11(14)13(3)4/h5-7H,1-4H3,(H,12,14)

> <InChI Key_QSARr>
GXENDNINAWQOAL-UHFFFAOYSA-N

> <Salt_Solvent>


> <Salt_Solvent_ID>
0

> <MPID>
99896

> <KocRef>
Schuurmann-Main

> <LogKOC>
1.73

> <Tr_1_Tst_0>
1

$$$$
100642
  Mrv171c012251911022D          

 21 22  0  0  0  0            999 V2000
    4.1746   -2.3035    0.0000 N   0  0  0  0  0  0  0  0  0  0  0  0
    4.4296   -1.5189    0.0000 C   0  0  0  0  0  0  0  0  0  0  0  0
    3.7621   -1.0340    0.0000 C   0  0  0  0  0  0  0  0  0  0  0  0
    3.7621   -0.2090    0.0000 O   0  0  0  0  0  0  0  0  0  0  0  0
    3.0947   -1.5189    0.0000 N   0  0  0  0  0  0  0  0  0  0  0  0
    2.3101   -1.2640    0.0000 C   0  0  0  0  0  0  0  0  0  0  0  0
    2.1385   -0.4570    0.0000 C   0  0  0  0  0  0  0  0  0  0  0  0
    1.3539   -0.2021    0.0000 C   0  0  0  0  0  0  0  0  0  0  0  0
    1.1824    0.6049    0.0000 Cl  0  0  0  0  0  0  0  0  0  0  0  0
    0.7408   -0.7541    0.0000 C   0  0  0  0  0  0  0  0  0  0  0  0
    0.9123   -1.5611    0.0000 C   0  0  0  0  0  0  0  0  0  0  0  0
    0.2992   -2.1131    0.0000 Cl  0  0  0  0  0  0  0  0  0  0  0  0
    1.6970   -1.8160    0.0000 C   0  0  0  0  0  0  0  0  0  0  0  0
    3.3496   -2.3035    0.0000 C   0  0  0  0  0  0  0  0  0  0  0  0
    2.8647   -2.9710    0.0000 O   0  0  0  0  0  0  0  0  0  0  0  0
    4.6595   -2.9710    0.0000 C   0  0  0  0  0  0  0  0  0  0  0  0
    4.3240   -3.7247    0.0000 O   0  0  0  0  0  0  0  0  0  0  0  0
    5.4800   -2.8847    0.0000 N   0  0  0  0  0  0  0  0  0  0  0  0
    5.9649   -3.5522    0.0000 C   0  0  0  0  0  0  0  0  0  0  0  0
    6.7854   -3.4659    0.0000 C   0  0  0  0  0  0  0  0  0  0  0  0
    5.6294   -4.3059    0.0000 C   0  0  0  0  0  0  0  0  0  0  0  0
  2  1  1  0  0  0  0
  3  2  1  0  0  0  0
  3  4  2  0  0  0  0
  5  3  1  0  0  0  0
  5  6  1  0  0  0  0
  7  6  2  0  0  0  0
  8  7  1  0  0  0  0
  8  9  1  0  0  0  0
 10  8  2  0  0  0  0
 11 10  1  0  0  0  0
 11 12  1  0  0  0  0
 13 11  2  0  0  0  0
  6 13  1  0  0  0  0
 14  5  1  0  0  0  0
  1 14  1  0  0  0  0
 14 15  2  0  0  0  0
  1 16  1  0  0  0  0
 16 17  2  0  0  0  0
 16 18  1  0  0  0  0
 18 19  1  0  0  0  0
 19 20  1  0  0  0  0
 19 21  1  0  0  0  0
M  END
> <ChemID>
100642

> <CAS>
36734-19-7

> <Original_SMILES>
CC(C)NC(=O)N1CC(=O)N(c2cc(Cl)cc(Cl)c2)C1=O

> <preferred_name>
Iprodione

> <dsstox_substance_id>
DTXSID3024154

> <dsstox_compound_id>
DTXCID704154

> <qc_level>
DSSTox_High

> <Canonical_QSARr>
CC(C)NC(=O)N1CC(=O)N(C2C=C(Cl)C=C(Cl)C=2)C1=O

> <InChI_Code_QSARr>
InChI=1S/C13H13Cl2N3O3/c1-7(2)16-12(20)17-6-11(19)18(13(17)21)10-4-8(14)3-9(15)5-10/h3-5,7H,6H2,1-2H3,(H,16,20)

> <InChI Key_QSARr>
ONUFESLQCSAYKA-UHFFFAOYSA-N

> <Salt_Solvent>


> <Salt_Solvent_ID>
0

> <MPID>
99897

> <KocRef>
Schuurmann-Main

> <LogKOC>
2.85

> <Tr_1_Tst_0>
0

$$$$
100643
  Mrv171c012251911022D          

 15 16  0  0  0  0            999 V2000
    0.5239    1.8425    0.0000 C   0  0  0  0  0  0  0  0  0  0  0  0
    0.5239    2.6675    0.0000 C   0  0  0  0  0  0  0  0  0  0  0  0
   -0.1905    3.0800    0.0000 C   0  0  0  0  0  0  0  0  0  0  0  0
   -0.1905    3.9050    0.0000 Cl  0  0  0  0  0  0  0  0  0  0  0  0
   -0.9050    2.6675    0.0000 C   0  0  0  0  0  0  0  0  0  0  0  0
   -0.9050    1.8425    0.0000 C   0  0  0  0  0  0  0  0  0  0  0  0
   -0.1905    1.4300    0.0000 C   0  0  0  0  0  0  0  0  0  0  0  0
   -0.1905    0.6050    0.0000 Cl  0  0  0  0  0  0  0  0  0  0  0  0
    1.2384    1.4300    0.0000 C   0  0  0  0  0  0  0  0  0  0  0  0
    1.2384    0.6050    0.0000 C   0  0  0  0  0  0  0  0  0  0  0  0
    1.9529    0.1925    0.0000 C   0  0  0  0  0  0  0  0  0  0  0  0
    2.6673    0.6050    0.0000 C   0  0  0  0  0  0  0  0  0  0  0  0
    2.6673    1.4300    0.0000 C   0  0  0  0  0  0  0  0  0  0  0  0
    1.9529    1.8425    0.0000 C   0  0  0  0  0  0  0  0  0  0  0  0
    1.9529    2.6675    0.0000 Cl  0  0  0  0  0  0  0  0  0  0  0  0
  2  1  1  0  0  0  0
  3  2  2  0  0  0  0
  3  4  1  0  0  0  0
  5  3  1  0  0  0  0
  6  5  2  0  0  0  0
  7  6  1  0  0  0  0
  1  7  2  0  0  0  0
  7  8  1  0  0  0  0
  1  9  1  0  0  0  0
 10  9  1  0  0  0  0
 11 10  2  0  0  0  0
 12 11  1  0  0  0  0
 13 12  2  0  0  0  0
 14 13  1  0  0  0  0
  9 14  2  0  0  0  0
 14 15  1  0  0  0  0
M  END
> <ChemID>
100643

> <CAS>
37680-65-2

> <Original_SMILES>
Clc1cc(-c2ccccc2Cl)c(Cl)cc1

> <preferred_name>
2,2',5-Trichlorobiphenyl

> <dsstox_substance_id>
DTXSID6073491

> <dsstox_compound_id>
DTXCID7039383

> <qc_level>
Public_High

> <Canonical_QSARr>
ClC1=CC(C2C=CC=CC=2Cl)=C(Cl)C=C1

> <InChI_Code_QSARr>
InChI=1S/C12H7Cl3/c13-8-5-6-12(15)10(7-8)9-3-1-2-4-11(9)14/h1-7H

> <InChI Key_QSARr>
DCMURXAZTZQAFB-UHFFFAOYSA-N

> <Salt_Solvent>


> <Salt_Solvent_ID>
0

> <MPID>
99898

> <KocRef>
Schuur-SRC avg

> <LogKOC>
4.4

> <Tr_1_Tst_0>
1

$$$$
100644
  Mrv171c012251911022D          

 15 16  0  0  0  0            999 V2000
    0.7145    2.0625    0.0000 C   0  0  0  0  0  0  0  0  0  0  0  0
    1.4289    2.4750    0.0000 C   0  0  0  0  0  0  0  0  0  0  0  0
    1.4289    3.3000    0.0000 C   0  0  0  0  0  0  0  0  0  0  0  0
    0.7145    3.7125    0.0000 C   0  0  0  0  0  0  0  0  0  0  0  0
    0.7145    4.5375    0.0000 Cl  0  0  0  0  0  0  0  0  0  0  0  0
   -0.0000    3.3000    0.0000 C   0  0  0  0  0  0  0  0  0  0  0  0
   -0.0000    2.4750    0.0000 C   0  0  0  0  0  0  0  0  0  0  0  0
   -0.7145    2.0625    0.0000 Cl  0  0  0  0  0  0  0  0  0  0  0  0
    0.7145    1.2375    0.0000 C   0  0  0  0  0  0  0  0  0  0  0  0
   -0.0000    0.8250    0.0000 C   0  0  0  0  0  0  0  0  0  0  0  0
   -0.0000    0.0000    0.0000 C   0  0  0  0  0  0  0  0  0  0  0  0
    0.7145   -0.4125    0.0000 C   0  0  0  0  0  0  0  0  0  0  0  0
    1.4289    0.0000    0.0000 C   0  0  0  0  0  0  0  0  0  0  0  0
    1.4289    0.8250    0.0000 C   0  0  0  0  0  0  0  0  0  0  0  0
    2.1434    1.2375    0.0000 Cl  0  0  0  0  0  0  0  0  0  0  0  0
  2  1  1  0  0  0  0
  3  2  2  0  0  0  0
  4  3  1  0  0  0  0
  4  5  1  0  0  0  0
  6  4  2  0  0  0  0
  7  6  1  0  0  0  0
  1  7  2  0  0  0  0
  7  8  1  0  0  0  0
  1  9  1  0  0  0  0
 10  9  1  0  0  0  0
 11 10  2  0  0  0  0
 12 11  1  0  0  0  0
 13 12  2  0  0  0  0
 14 13  1  0  0  0  0
  9 14  2  0  0  0  0
 14 15  1  0  0  0  0
M  END
> <ChemID>
100644

> <CAS>
37680-66-3

> <Original_SMILES>
Clc1cc(Cl)c(cc1)-c1ccccc1Cl

> <preferred_name>
2,2',4-Trichlorobiphenyl

> <dsstox_substance_id>
DTXSID1073492

> <dsstox_compound_id>
DTXCID2039384

> <qc_level>
Public_High

> <Canonical_QSARr>
ClC1=CC(Cl)=C(C=C1)C1C=CC=CC=1Cl

> <InChI_Code_QSARr>
InChI=1S/C12H7Cl3/c13-8-5-6-10(12(15)7-8)9-3-1-2-4-11(9)14/h1-7H

> <InChI Key_QSARr>
YKKYCYQDUUXNLN-UHFFFAOYSA-N

> <Salt_Solvent>


> <Salt_Solvent_ID>
0

> <MPID>
99899

> <KocRef>
Schuurmann-Main

> <LogKOC>
4.84

> <Tr_1_Tst_0>
1

$$$$
100645
  Mrv171c012251911022D          

 17 18  0  0  0  0            999 V2000
    2.5007   -1.3053    0.0000 C   0  0  0  0  0  0  0  0  0  0  0  0
    2.5007   -0.4803    0.0000 C   0  0  0  0  0  0  0  0  0  0  0  0
    1.7862   -0.0678    0.0000 C   0  0  0  0  0  0  0  0  0  0  0  0
    1.7862    0.7572    0.0000 Cl  0  0  0  0  0  0  0  0  0  0  0  0
    1.0718   -0.4803    0.0000 C   0  0  0  0  0  0  0  0  0  0  0  0
    0.3573   -0.0678    0.0000 Cl  0  0  0  0  0  0  0  0  0  0  0  0
    1.0718   -1.3053    0.0000 C   0  0  0  0  0  0  0  0  0  0  0  0
    1.7862   -1.7178    0.0000 C   0  0  0  0  0  0  0  0  0  0  0  0
    1.7862   -2.5428    0.0000 Cl  0  0  0  0  0  0  0  0  0  0  0  0
    3.2152   -1.7178    0.0000 C   0  0  0  0  0  0  0  0  0  0  0  0
    3.2152   -2.5428    0.0000 C   0  0  0  0  0  0  0  0  0  0  0  0
    3.9296   -2.9553    0.0000 C   0  0  0  0  0  0  0  0  0  0  0  0
    3.9296   -3.7803    0.0000 Cl  0  0  0  0  0  0  0  0  0  0  0  0
    4.6441   -2.5428    0.0000 C   0  0  0  0  0  0  0  0  0  0  0  0
    4.6441   -1.7178    0.0000 C   0  0  0  0  0  0  0  0  0  0  0  0
    3.9296   -1.3053    0.0000 C   0  0  0  0  0  0  0  0  0  0  0  0
    3.9296   -0.4803    0.0000 Cl  0  0  0  0  0  0  0  0  0  0  0  0
  2  1  1  0  0  0  0
  3  2  2  0  0  0  0
  3  4  1  0  0  0  0
  5  3  1  0  0  0  0
  5  6  1  0  0  0  0
  7  5  2  0  0  0  0
  8  7  1  0  0  0  0
  1  8  2  0  0  0  0
  8  9  1  0  0  0  0
  1 10  1  0  0  0  0
 11 10  1  0  0  0  0
 12 11  2  0  0  0  0
 12 13  1  0  0  0  0
 14 12  1  0  0  0  0
 15 14  2  0  0  0  0
 16 15  1  0  0  0  0
 10 16  2  0  0  0  0
 16 17  1  0  0  0  0
M  END
> <ChemID>
100645

> <CAS>
37680-73-2

> <Original_SMILES>
Clc1cc(-c2cc(Cl)c(Cl)cc2Cl)c(Cl)cc1

> <preferred_name>
2,2,4,5,5'-Pentochlorobiphenyl

> <dsstox_substance_id>
DTXSID8038304

> <dsstox_compound_id>
DTXCID6018304

> <qc_level>
DSSTox_Low

> <Canonical_QSARr>
ClC1=CC(C2C=C(Cl)C(Cl)=CC=2Cl)=C(Cl)C=C1

> <InChI_Code_QSARr>
InChI=1S/C12H5Cl5/c13-6-1-2-9(14)7(3-6)8-4-11(16)12(17)5-10(8)15/h1-5H

> <InChI Key_QSARr>
LAHWLEDBADHJGA-UHFFFAOYSA-N

> <Salt_Solvent>


> <Salt_Solvent_ID>
0

> <MPID>
99900

> <KocRef>
Schuur-SRC avg

> <LogKOC>
5.22

> <Tr_1_Tst_0>
1

$$$$
100646
  Mrv171c012251911022D          

 12 11  0  0  0  0            999 V2000
    1.6700   -2.7531    0.0000 C   0  0  0  0  0  0  0  0  0  0  0  0
    2.3845   -3.1656    0.0000 C   0  0  0  0  0  0  0  0  0  0  0  0
    2.3845   -3.9906    0.0000 Cl  0  0  0  0  0  0  0  0  0  0  0  0
    3.0990   -2.7531    0.0000 Cl  0  0  0  0  0  0  0  0  0  0  0  0
    1.6700   -1.9281    0.0000 N   0  0  0  0  0  0  0  0  0  0  0  0
    0.9556   -1.5156    0.0000 C   0  0  0  0  0  0  0  0  0  0  0  0
    0.9556   -0.6906    0.0000 C   0  0  0  0  0  0  0  0  0  0  0  0
    0.2411   -0.2781    0.0000 C   0  0  0  0  0  0  0  0  0  0  0  0
    2.3845   -1.5156    0.0000 C   0  0  0  0  0  0  0  0  0  0  0  0
    2.3845   -0.6906    0.0000 C   0  0  0  0  0  0  0  0  0  0  0  0
    3.0990   -0.2781    0.0000 C   0  0  0  0  0  0  0  0  0  0  0  0
    0.9556   -3.1656    0.0000 O   0  0  0  0  0  0  0  0  0  0  0  0
  1  2  1  0  0  0  0
  2  3  1  0  0  0  0
  2  4  1  0  0  0  0
  1  5  1  0  0  0  0
  5  6  1  0  0  0  0
  6  7  1  0  0  0  0
  7  8  2  0  0  0  0
  5  9  1  0  0  0  0
  9 10  1  0  0  0  0
 10 11  2  0  0  0  0
  1 12  2  0  0  0  0
M  END
> <ChemID>
100646

> <CAS>
37764-25-3

> <Original_SMILES>
C=CCN(CC=C)C(=O)C(Cl)Cl

> <preferred_name>
Dichlormid

> <dsstox_substance_id>
DTXSID4027997

> <dsstox_compound_id>
DTXCID007997

> <qc_level>
DSSTox_Low

> <Canonical_QSARr>
C=CCN(CC=C)C(=O)C(Cl)Cl

> <InChI_Code_QSARr>
InChI=1S/C8H11Cl2NO/c1-3-5-11(6-4-2)8(12)7(9)10/h3-4,7H,1-2,5-6H2

> <InChI Key_QSARr>
YRMLFORXOOIJDR-UHFFFAOYSA-N

> <Salt_Solvent>


> <Salt_Solvent_ID>
0

> <MPID>
99901

> <KocRef>
USDA Pest Prop DB

> <LogKOC>
1.6

> <Tr_1_Tst_0>
0

$$$$
100647
  Mrv171c012251911022D          

 24 25  0  0  0  0            999 V2000
    4.3006   -4.0277    0.0000 S   0  0  0  0  0  0  0  0  0  0  0  0
    3.8881   -4.7422    0.0000 O   0  0  0  0  0  0  0  0  0  0  0  0
    4.7131   -3.3133    0.0000 O   0  0  0  0  0  0  0  0  0  0  0  0
    3.5861   -3.6152    0.0000 N   0  0  0  0  0  0  0  0  0  0  0  0
    3.5861   -2.7902    0.0000 C   0  0  0  0  0  0  0  0  0  0  0  0
    4.3006   -2.3777    0.0000 C   0  0  0  0  0  0  0  0  0  0  0  0
    4.3006   -1.5527    0.0000 C   0  0  0  0  0  0  0  0  0  0  0  0
    3.5861   -1.1402    0.0000 C   0  0  0  0  0  0  0  0  0  0  0  0
    3.5861   -0.3152    0.0000 S   0  0  0  0  0  0  0  0  0  0  0  0
    3.5861    0.5098    0.0000 C   0  0  0  0  0  0  0  0  0  0  0  0
    4.3006    0.9223    0.0000 C   0  0  0  0  0  0  0  0  0  0  0  0
    4.3006    1.7473    0.0000 C   0  0  0  0  0  0  0  0  0  0  0  0
    3.5861    2.1598    0.0000 C   0  0  0  0  0  0  0  0  0  0  0  0
    2.8716    1.7473    0.0000 C   0  0  0  0  0  0  0  0  0  0  0  0
    2.8716    0.9223    0.0000 C   0  0  0  0  0  0  0  0  0  0  0  0
    2.7611   -0.3152    0.0000 O   0  0  0  0  0  0  0  0  0  0  0  0
    4.4111   -0.3152    0.0000 O   0  0  0  0  0  0  0  0  0  0  0  0
    2.8716   -1.5527    0.0000 C   0  0  0  0  0  0  0  0  0  0  0  0
    2.8716   -2.3777    0.0000 C   0  0  0  0  0  0  0  0  0  0  0  0
    2.1571   -2.7902    0.0000 C   0  0  0  0  0  0  0  0  0  0  0  0
    5.0150   -4.4402    0.0000 C   0  0  0  0  0  0  0  0  0  0  0  0
    5.7295   -4.8527    0.0000 F   0  0  0  0  0  0  0  0  0  0  0  0
    4.6025   -5.1547    0.0000 F   0  0  0  0  0  0  0  0  0  0  0  0
    5.4275   -3.7258    0.0000 F   0  0  0  0  0  0  0  0  0  0  0  0
  1  2  2  0  0  0  0
  1  3  2  0  0  0  0
  1  4  1  0  0  0  0
  4  5  1  0  0  0  0
  6  5  2  0  0  0  0
  7  6  1  0  0  0  0
  8  7  2  0  0  0  0
  8  9  1  0  0  0  0
  9 10  1  0  0  0  0
 11 10  1  0  0  0  0
 12 11  2  0  0  0  0
 13 12  1  0  0  0  0
 14 13  2  0  0  0  0
 15 14  1  0  0  0  0
 10 15  2  0  0  0  0
  9 16  2  0  0  0  0
  9 17  2  0  0  0  0
 18  8  1  0  0  0  0
 19 18  2  0  0  0  0
  5 19  1  0  0  0  0
 19 20  1  0  0  0  0
  1 21  1  0  0  0  0
 21 22  1  0  0  0  0
 21 23  1  0  0  0  0
 21 24  1  0  0  0  0
M  END
> <ChemID>
100647

> <CAS>
37924-13-3

> <Original_SMILES>
Cc1cc(ccc1NS(=O)(=O)C(F)(F)F)S(=O)(=O)c1ccccc1

> <preferred_name>
Perfluidone

> <dsstox_substance_id>
DTXSID3042267

> <dsstox_compound_id>
DTXCID1022267

> <qc_level>
DSSTox_Low

> <Canonical_QSARr>
CC1=CC(=CC=C1NS(=O)(=O)C(F)(F)F)S(=O)(=O)C1C=CC=CC=1

> <InChI_Code_QSARr>
InChI=1S/C14H12F3NO4S2/c1-10-9-12(23(19,20)11-5-3-2-4-6-11)7-8-13(10)18-24(21,22)14(15,16)17/h2-9,18H,1H3

> <InChI Key_QSARr>
WHTBVLXUSXVMEV-UHFFFAOYSA-N

> <Salt_Solvent>


> <Salt_Solvent_ID>
0

> <MPID>
99902

> <KocRef>
USDA Pest Prop DB

> <LogKOC>
3.08

> <Tr_1_Tst_0>
1

$$$$
100648
  Mrv171c012251911022D          

 17 18  0  0  0  0            999 V2000
    1.6581   -1.4656    0.0000 C   0  0  0  0  0  0  0  0  0  0  0  0
    0.9436   -1.0531    0.0000 C   0  0  0  0  0  0  0  0  0  0  0  0
    0.9436   -0.2281    0.0000 Cl  0  0  0  0  0  0  0  0  0  0  0  0
    0.2291   -1.4656    0.0000 C   0  0  0  0  0  0  0  0  0  0  0  0
    0.2291   -2.2906    0.0000 C   0  0  0  0  0  0  0  0  0  0  0  0
    0.9436   -2.7031    0.0000 C   0  0  0  0  0  0  0  0  0  0  0  0
    0.9436   -3.5281    0.0000 Cl  0  0  0  0  0  0  0  0  0  0  0  0
    1.6581   -2.2906    0.0000 C   0  0  0  0  0  0  0  0  0  0  0  0
    2.3725   -2.7031    0.0000 Cl  0  0  0  0  0  0  0  0  0  0  0  0
    2.3725   -1.0531    0.0000 C   0  0  0  0  0  0  0  0  0  0  0  0
    3.0870   -1.4656    0.0000 C   0  0  0  0  0  0  0  0  0  0  0  0
    3.8015   -1.0531    0.0000 C   0  0  0  0  0  0  0  0  0  0  0  0
    4.5160   -1.4656    0.0000 Cl  0  0  0  0  0  0  0  0  0  0  0  0
    3.8015   -0.2281    0.0000 C   0  0  0  0  0  0  0  0  0  0  0  0
    3.0870    0.1844    0.0000 C   0  0  0  0  0  0  0  0  0  0  0  0
    2.3725   -0.2281    0.0000 C   0  0  0  0  0  0  0  0  0  0  0  0
    1.6581    0.1844    0.0000 Cl  0  0  0  0  0  0  0  0  0  0  0  0
  2  1  1  0  0  0  0
  2  3  1  0  0  0  0
  4  2  2  0  0  0  0
  5  4  1  0  0  0  0
  6  5  2  0  0  0  0
  6  7  1  0  0  0  0
  8  6  1  0  0  0  0
  1  8  2  0  0  0  0
  8  9  1  0  0  0  0
  1 10  1  0  0  0  0
 11 10  1  0  0  0  0
 12 11  2  0  0  0  0
 12 13  1  0  0  0  0
 14 12  1  0  0  0  0
 15 14  2  0  0  0  0
 16 15  1  0  0  0  0
 10 16  2  0  0  0  0
 16 17  1  0  0  0  0
M  END
> <ChemID>
100648

> <CAS>
38379-99-6

> <Original_SMILES>
Clc1cc(-c2c(Cl)c(Cl)ccc2Cl)c(Cl)cc1

> <preferred_name>
2,2',3,5',6-Pentachlorobiphenyl

> <dsstox_substance_id>
DTXSID3038301

> <dsstox_compound_id>
DTXCID1018301

> <qc_level>
DSSTox_Low

> <Canonical_QSARr>
ClC1C=CC(Cl)=CC=1C1=C(Cl)C(Cl)=CC=C1Cl

> <InChI_Code_QSARr>
InChI=1S/C12H5Cl5/c13-6-1-2-8(14)7(5-6)11-9(15)3-4-10(16)12(11)17/h1-5H

> <InChI Key_QSARr>
GXNNLIMMEXHBKV-UHFFFAOYSA-N

> <Salt_Solvent>


> <Salt_Solvent_ID>
0

> <MPID>
99903

> <KocRef>
Baker-Data

> <LogKOC>
5.55

> <Tr_1_Tst_0>
1

$$$$
100649
  Mrv171c012251911022D          

 17 18  0  0  0  0            999 V2000
    0.7145    2.0625    0.0000 C   0  0  0  0  0  0  0  0  0  0  0  0
    1.4289    2.4750    0.0000 C   0  0  0  0  0  0  0  0  0  0  0  0
    1.4289    3.3000    0.0000 C   0  0  0  0  0  0  0  0  0  0  0  0
    0.7145    3.7125    0.0000 C   0  0  0  0  0  0  0  0  0  0  0  0
    0.7145    4.5375    0.0000 Cl  0  0  0  0  0  0  0  0  0  0  0  0
   -0.0000    3.3000    0.0000 C   0  0  0  0  0  0  0  0  0  0  0  0
   -0.7145    3.7125    0.0000 Cl  0  0  0  0  0  0  0  0  0  0  0  0
   -0.0000    2.4750    0.0000 C   0  0  0  0  0  0  0  0  0  0  0  0
   -0.7145    2.0625    0.0000 Cl  0  0  0  0  0  0  0  0  0  0  0  0
    0.7145    1.2375    0.0000 C   0  0  0  0  0  0  0  0  0  0  0  0
   -0.0000    0.8250    0.0000 C   0  0  0  0  0  0  0  0  0  0  0  0
   -0.0000    0.0000    0.0000 C   0  0  0  0  0  0  0  0  0  0  0  0
   -0.7145   -0.4125    0.0000 Cl  0  0  0  0  0  0  0  0  0  0  0  0
    0.7145   -0.4125    0.0000 C   0  0  0  0  0  0  0  0  0  0  0  0
    1.4289    0.0000    0.0000 C   0  0  0  0  0  0  0  0  0  0  0  0
    1.4289    0.8250    0.0000 C   0  0  0  0  0  0  0  0  0  0  0  0
    2.1434    1.2375    0.0000 Cl  0  0  0  0  0  0  0  0  0  0  0  0
  2  1  1  0  0  0  0
  3  2  2  0  0  0  0
  4  3  1  0  0  0  0
  4  5  1  0  0  0  0
  6  4  2  0  0  0  0
  6  7  1  0  0  0  0
  8  6  1  0  0  0  0
  1  8  2  0  0  0  0
  8  9  1  0  0  0  0
  1 10  1  0  0  0  0
 11 10  1  0  0  0  0
 12 11  2  0  0  0  0
 12 13  1  0  0  0  0
 14 12  1  0  0  0  0
 15 14  2  0  0  0  0
 16 15  1  0  0  0  0
 10 16  2  0  0  0  0
 16 17  1  0  0  0  0
M  END
> <ChemID>
100649

> <CAS>
38380-02-8

> <Original_SMILES>
Clc1cc(-c2ccc(Cl)c(Cl)c2Cl)c(Cl)cc1

> <preferred_name>
2,2',3,4,5'-Pentachlorobiphenyl

> <dsstox_substance_id>
DTXSID6073497

> <dsstox_compound_id>
DTXCID5039484

> <qc_level>
Public_High

> <Canonical_QSARr>
ClC1=CC(C2C=CC(Cl)=C(Cl)C=2Cl)=C(Cl)C=C1

> <InChI_Code_QSARr>
InChI=1S/C12H5Cl5/c13-6-1-3-9(14)8(5-6)7-2-4-10(15)12(17)11(7)16/h1-5H

> <InChI Key_QSARr>
OPKYDBFRKPQCBS-UHFFFAOYSA-N

> <Salt_Solvent>


> <Salt_Solvent_ID>
0

> <MPID>
99904

> <KocRef>
Schuurmann-Main

> <LogKOC>
4.62

> <Tr_1_Tst_0>
1

$$$$
100650
  Mrv171c012251911022D          

 18 19  0  0  0  0            999 V2000
    0.5160    1.8563    0.0000 C   0  0  0  0  0  0  0  0  0  0  0  0
    0.5160    2.6813    0.0000 C   0  0  0  0  0  0  0  0  0  0  0  0
   -0.1985    3.0938    0.0000 C   0  0  0  0  0  0  0  0  0  0  0  0
   -0.1985    3.9188    0.0000 Cl  0  0  0  0  0  0  0  0  0  0  0  0
   -0.9129    2.6813    0.0000 C   0  0  0  0  0  0  0  0  0  0  0  0
   -1.6274    3.0938    0.0000 Cl  0  0  0  0  0  0  0  0  0  0  0  0
   -0.9129    1.8563    0.0000 C   0  0  0  0  0  0  0  0  0  0  0  0
   -0.1985    1.4438    0.0000 C   0  0  0  0  0  0  0  0  0  0  0  0
   -0.1985    0.6188    0.0000 Cl  0  0  0  0  0  0  0  0  0  0  0  0
    1.2305    1.4438    0.0000 C   0  0  0  0  0  0  0  0  0  0  0  0
    1.2305    0.6188    0.0000 C   0  0  0  0  0  0  0  0  0  0  0  0
    0.5160    0.2063    0.0000 Cl  0  0  0  0  0  0  0  0  0  0  0  0
    1.9449    0.2063    0.0000 C   0  0  0  0  0  0  0  0  0  0  0  0
    2.6594    0.6188    0.0000 C   0  0  0  0  0  0  0  0  0  0  0  0
    2.6594    1.4438    0.0000 C   0  0  0  0  0  0  0  0  0  0  0  0
    3.3739    1.8563    0.0000 Cl  0  0  0  0  0  0  0  0  0  0  0  0
    1.9449    1.8563    0.0000 C   0  0  0  0  0  0  0  0  0  0  0  0
    1.9449    2.6813    0.0000 Cl  0  0  0  0  0  0  0  0  0  0  0  0
  2  1  1  0  0  0  0
  3  2  2  0  0  0  0
  3  4  1  0  0  0  0
  5  3  1  0  0  0  0
  5  6  1  0  0  0  0
  7  5  2  0  0  0  0
  8  7  1  0  0  0  0
  1  8  2  0  0  0  0
  8  9  1  0  0  0  0
  1 10  1  0  0  0  0
 11 10  1  0  0  0  0
 11 12  1  0  0  0  0
 13 11  2  0  0  0  0
 14 13  1  0  0  0  0
 15 14  2  0  0  0  0
 15 16  1  0  0  0  0
 17 15  1  0  0  0  0
 10 17  2  0  0  0  0
 17 18  1  0  0  0  0
M  END
> <ChemID>
100650

> <CAS>
38380-04-0

> <Original_SMILES>
Clc1ccc(Cl)c(-c2cc(Cl)c(Cl)cc2Cl)c1Cl

> <preferred_name>
2,2',3,4',5',6-Hexachlorobiphenyl

> <dsstox_substance_id>
DTXSID1073498

> <dsstox_compound_id>
DTXCID0039485

> <qc_level>
Public_High

> <Canonical_QSARr>
ClC1C=C(Cl)C(Cl)=CC=1C1=C(Cl)C(Cl)=CC=C1Cl

> <InChI_Code_QSARr>
InChI=1S/C12H4Cl6/c13-6-1-2-7(14)12(18)11(6)5-3-9(16)10(17)4-8(5)15/h1-4H

> <InChI Key_QSARr>
LKHLFUVHHXCNJH-UHFFFAOYSA-N

> <Salt_Solvent>


> <Salt_Solvent_ID>
0

> <MPID>
99905

> <KocRef>
Baker-Data

> <LogKOC>
5.79

> <Tr_1_Tst_0>
0

$$$$
100651
  Mrv171c012251911022D          

 18 19  0  0  0  0            999 V2000
    0.0000    0.4115    0.0000 C   0  0  0  0  0  0  0  0  0  0  0  0
    0.7145    0.8240    0.0000 C   0  0  0  0  0  0  0  0  0  0  0  0
    0.7145    1.6490    0.0000 C   0  0  0  0  0  0  0  0  0  0  0  0
    0.0000    2.0615    0.0000 C   0  0  0  0  0  0  0  0  0  0  0  0
    0.0000    2.8865    0.0000 Cl  0  0  0  0  0  0  0  0  0  0  0  0
   -0.7145    1.6490    0.0000 C   0  0  0  0  0  0  0  0  0  0  0  0
   -1.4289    2.0615    0.0000 Cl  0  0  0  0  0  0  0  0  0  0  0  0
   -0.7145    0.8240    0.0000 C   0  0  0  0  0  0  0  0  0  0  0  0
   -1.4289    0.4115    0.0000 Cl  0  0  0  0  0  0  0  0  0  0  0  0
    0.0000   -0.4135    0.0000 C   0  0  0  0  0  0  0  0  0  0  0  0
   -0.7145   -0.8260    0.0000 C   0  0  0  0  0  0  0  0  0  0  0  0
   -0.7145   -1.6510    0.0000 C   0  0  0  0  0  0  0  0  0  0  0  0
    0.0000   -2.0635    0.0000 C   0  0  0  0  0  0  0  0  0  0  0  0
    0.0000   -2.8885    0.0000 Cl  0  0  0  0  0  0  0  0  0  0  0  0
    0.7145   -1.6510    0.0000 C   0  0  0  0  0  0  0  0  0  0  0  0
    1.4290   -2.0635    0.0000 Cl  0  0  0  0  0  0  0  0  0  0  0  0
    0.7145   -0.8260    0.0000 C   0  0  0  0  0  0  0  0  0  0  0  0
    1.4290   -0.4135    0.0000 Cl  0  0  0  0  0  0  0  0  0  0  0  0
  2  1  1  0  0  0  0
  3  2  2  0  0  0  0
  4  3  1  0  0  0  0
  4  5  1  0  0  0  0
  6  4  2  0  0  0  0
  6  7  1  0  0  0  0
  8  6  1  0  0  0  0
  1  8  2  0  0  0  0
  8  9  1  0  0  0  0
  1 10  1  0  0  0  0
 11 10  1  0  0  0  0
 12 11  2  0  0  0  0
 13 12  1  0  0  0  0
 13 14  1  0  0  0  0
 15 13  2  0  0  0  0
 15 16  1  0  0  0  0
 17 15  1  0  0  0  0
 10 17  2  0  0  0  0
 17 18  1  0  0  0  0
M  END
> <ChemID>
100651

> <CAS>
38380-07-3

> <Original_SMILES>
Clc1ccc(-c2ccc(Cl)c(Cl)c2Cl)c(Cl)c1Cl

> <preferred_name>
2,2',3,3',4,4'-Hexachlorobiphenyl

> <dsstox_substance_id>
DTXSID50858932

> <dsstox_compound_id>
DTXCID40101

> <qc_level>
DSSTox_High

> <Canonical_QSARr>
ClC1C=CC(C2C=CC(Cl)=C(Cl)C=2Cl)=C(Cl)C=1Cl

> <InChI_Code_QSARr>
InChI=1S/C12H4Cl6/c13-7-3-1-5(9(15)11(7)17)6-2-4-8(14)12(18)10(6)16/h1-4H

> <InChI Key_QSARr>
BTAGRXWGMYTPBY-UHFFFAOYSA-N

> <Salt_Solvent>


> <Salt_Solvent_ID>
0

> <MPID>
99906

> <KocRef>
Schuur-SRC avg

> <LogKOC>
5.66

> <Tr_1_Tst_0>
1

$$$$
100652
  Mrv171c012251911022D          

 18 19  0  0  0  0            999 V2000
    0.3572    1.4438    0.0000 C   0  0  0  0  0  0  0  0  0  0  0  0
   -0.3572    1.8563    0.0000 C   0  0  0  0  0  0  0  0  0  0  0  0
   -0.3572    2.6813    0.0000 Cl  0  0  0  0  0  0  0  0  0  0  0  0
   -1.0717    1.4438    0.0000 C   0  0  0  0  0  0  0  0  0  0  0  0
   -1.0717    0.6188    0.0000 C   0  0  0  0  0  0  0  0  0  0  0  0
   -0.3572    0.2063    0.0000 C   0  0  0  0  0  0  0  0  0  0  0  0
   -0.3572   -0.6187    0.0000 Cl  0  0  0  0  0  0  0  0  0  0  0  0
    0.3572    0.6188    0.0000 C   0  0  0  0  0  0  0  0  0  0  0  0
    1.0717    0.2063    0.0000 Cl  0  0  0  0  0  0  0  0  0  0  0  0
    1.0717    1.8563    0.0000 C   0  0  0  0  0  0  0  0  0  0  0  0
    1.7862    1.4438    0.0000 C   0  0  0  0  0  0  0  0  0  0  0  0
    1.7862    0.6188    0.0000 Cl  0  0  0  0  0  0  0  0  0  0  0  0
    2.5006    1.8563    0.0000 C   0  0  0  0  0  0  0  0  0  0  0  0
    2.5006    2.6813    0.0000 C   0  0  0  0  0  0  0  0  0  0  0  0
    1.7862    3.0938    0.0000 C   0  0  0  0  0  0  0  0  0  0  0  0
    1.7862    3.9188    0.0000 Cl  0  0  0  0  0  0  0  0  0  0  0  0
    1.0717    2.6813    0.0000 C   0  0  0  0  0  0  0  0  0  0  0  0
    0.3572    3.0938    0.0000 Cl  0  0  0  0  0  0  0  0  0  0  0  0
  2  1  1  0  0  0  0
  2  3  1  0  0  0  0
  4  2  2  0  0  0  0
  5  4  1  0  0  0  0
  6  5  2  0  0  0  0
  6  7  1  0  0  0  0
  8  6  1  0  0  0  0
  1  8  2  0  0  0  0
  8  9  1  0  0  0  0
  1 10  1  0  0  0  0
 11 10  1  0  0  0  0
 11 12  1  0  0  0  0
 13 11  2  0  0  0  0
 14 13  1  0  0  0  0
 15 14  2  0  0  0  0
 15 16  1  0  0  0  0
 17 15  1  0  0  0  0
 10 17  2  0  0  0  0
 17 18  1  0  0  0  0
M  END
> <ChemID>
100652

> <CAS>
38411-22-2

> <Original_SMILES>
Clc1ccc(Cl)c(Cl)c1-c1c(Cl)c(Cl)ccc1Cl

> <preferred_name>
2,2',3,3',6,6'-Hexachlorobiphenyl

> <dsstox_substance_id>
DTXSID6073499

> <dsstox_compound_id>
DTXCID9039490

> <qc_level>
Public_High

> <Canonical_QSARr>
ClC1=CC=C(Cl)C(Cl)=C1C1=C(Cl)C(Cl)=CC=C1Cl

> <InChI_Code_QSARr>
InChI=1S/C12H4Cl6/c13-5-1-3-7(15)11(17)9(5)10-6(14)2-4-8(16)12(10)18/h1-4H

> <InChI Key_QSARr>
FZFUUSROAHKTTF-UHFFFAOYSA-N

> <Salt_Solvent>


> <Salt_Solvent_ID>
0

> <MPID>
99907

> <KocRef>
Nguyen-Add

> <LogKOC>
6.01

> <Tr_1_Tst_0>
1

$$$$
100653
  Mrv171c012251911022D          

 21 21  0  0  0  0            999 V2000
    3.4096   -3.6090    0.0000 C   0  0  0  0  0  0  0  0  0  0  0  0
    2.9971   -2.8945    0.0000 C   0  0  0  0  0  0  0  0  0  0  0  0
    2.1721   -2.8945    0.0000 N   0  0  0  0  0  0  0  0  0  0  0  0
    1.7596   -2.1801    0.0000 C   0  0  0  0  0  0  0  0  0  0  0  0
    2.1721   -1.4656    0.0000 C   0  0  0  0  0  0  0  0  0  0  0  0
    2.9971   -1.4656    0.0000 C   0  0  0  0  0  0  0  0  0  0  0  0
    3.4096   -2.1801    0.0000 C   0  0  0  0  0  0  0  0  0  0  0  0
    1.7596   -0.7511    0.0000 C   0  0  0  0  0  0  0  0  0  0  0  0
    0.9346   -0.7511    0.0000 C   0  0  0  0  0  0  0  0  0  0  0  0
    0.5221   -1.4656    0.0000 C   0  0  0  0  0  0  0  0  0  0  0  0
    0.9346   -2.1801    0.0000 C   0  0  0  0  0  0  0  0  0  0  0  0
    0.5221   -2.8945    0.0000 C   0  0  0  0  0  0  0  0  0  0  0  0
   -0.3029   -2.8945    0.0000 C   0  0  0  0  0  0  0  0  0  0  0  0
    1.7596   -3.6090    0.0000 C   0  0  0  0  0  0  0  0  0  0  0  0
    2.1721   -4.3235    0.0000 C   0  0  0  0  0  0  0  0  0  0  0  0
    1.7596   -5.0379    0.0000 Cl  0  0  0  0  0  0  0  0  0  0  0  0
    0.9346   -3.6090    0.0000 O   0  0  0  0  0  0  0  0  0  0  0  0
    4.2346   -3.6090    0.0000 O   0  0  0  0  0  0  0  0  0  0  0  0
    4.6471   -4.3235    0.0000 C   0  0  0  0  0  0  0  0  0  0  0  0
    5.4721   -4.3235    0.0000 C   0  0  0  0  0  0  0  0  0  0  0  0
    2.9971   -4.3235    0.0000 O   0  0  0  0  0  0  0  0  0  0  0  0
  1  2  1  0  0  0  0
  2  3  1  0  0  0  0
  3  4  1  0  0  0  0
  5  4  1  0  0  0  0
  5  6  1  0  0  0  0
  6  7  1  0  0  0  0
  8  5  2  0  0  0  0
  9  8  1  0  0  0  0
 10  9  2  0  0  0  0
 11 10  1  0  0  0  0
  4 11  2  0  0  0  0
 11 12  1  0  0  0  0
 12 13  1  0  0  0  0
  3 14  1  0  0  0  0
 14 15  1  0  0  0  0
 15 16  1  0  0  0  0
 14 17  2  0  0  0  0
  1 18  1  0  0  0  0
 18 19  1  0  0  0  0
 19 20  1  0  0  0  0
  1 21  2  0  0  0  0
M  END
> <ChemID>
100653

> <CAS>
38727-55-8

> <Original_SMILES>
CCOC(=O)CN(c1c(CC)cccc1CC)C(=O)CCl

> <preferred_name>
Diethatyl-ethyl

> <dsstox_substance_id>
DTXSID9032539

> <dsstox_compound_id>
DTXCID7012539

> <qc_level>
DSSTox_Low

> <Canonical_QSARr>
CCC1C=CC=C(CC)C=1N(CC(=O)OCC)C(=O)CCl

> <InChI_Code_QSARr>
InChI=1S/C16H22ClNO3/c1-4-12-8-7-9-13(5-2)16(12)18(14(19)10-17)11-15(20)21-6-3/h7-9H,4-6,10-11H2,1-3H3

> <InChI Key_QSARr>
WFKSADNZWSKCRZ-UHFFFAOYSA-N

> <Salt_Solvent>


> <Salt_Solvent_ID>
0

> <MPID>
99908

> <KocRef>
USDA Pest Prop DB

> <LogKOC>
2.0

> <Tr_1_Tst_0>
1

$$$$
100654
  Mrv171c012251911022D          

 16 16  0  0  0  0            999 V2000
    3.5255   -1.1839    0.0000 O   0  0  0  0  0  0  0  0  0  0  0  0
    2.8110   -0.7714    0.0000 C   0  0  0  0  0  0  0  0  0  0  0  0
    2.8110    0.0536    0.0000 C   0  0  0  0  0  0  0  0  0  0  0  0
    3.5255    0.4661    0.0000 C   0  0  0  0  0  0  0  0  0  0  0  0
    3.5255    1.2911    0.0000 C   0  0  0  0  0  0  0  0  0  0  0  0
    2.8110    1.7036    0.0000 C   0  0  0  0  0  0  0  0  0  0  0  0
    2.8110    2.5286    0.0000 O   0  0  0  0  0  0  0  0  0  0  0  0
    2.0965    2.9411    0.0000 C   0  0  0  0  0  0  0  0  0  0  0  0
    2.0965    1.2911    0.0000 C   0  0  0  0  0  0  0  0  0  0  0  0
    2.0965    0.4661    0.0000 C   0  0  0  0  0  0  0  0  0  0  0  0
    2.0965   -1.1839    0.0000 N   0  0  0  0  0  0  0  0  0  0  0  0
    2.0965   -2.0089    0.0000 C   0  0  0  0  0  0  0  0  0  0  0  0
    2.0965   -2.8339    0.0000 C   0  0  0  0  0  0  0  0  0  0  0  0
    2.0965   -3.6589    0.0000 C   0  0  0  0  0  0  0  0  0  0  0  0
    1.2715   -2.0089    0.0000 C   0  0  0  0  0  0  0  0  0  0  0  0
    2.9215   -2.0089    0.0000 C   0  0  0  0  0  0  0  0  0  0  0  0
  1  2  2  0  0  0  0
  2  3  1  0  0  0  0
  4  3  1  0  0  0  0
  5  4  2  0  0  0  0
  6  5  1  0  0  0  0
  6  7  1  0  0  0  0
  7  8  1  0  0  0  0
  9  6  2  0  0  0  0
 10  9  1  0  0  0  0
  3 10  2  0  0  0  0
  2 11  1  0  0  0  0
 11 12  1  0  0  0  0
 12 13  1  0  0  0  0
 13 14  3  0  0  0  0
 12 15  1  0  0  0  0
 12 16  1  0  0  0  0
M  END
> <ChemID>
100654

> <CAS>
39108-81-1

> <Original_SMILES>
COc1ccc(cc1)C(=O)NC(C)(C)C#C

> <preferred_name>
N-(1,1-dimethyl-2-propynyl)-4-methoxybenzamide

> <dsstox_substance_id>
DTXSID60192354

> <dsstox_compound_id>
DTXCID70114845

> <qc_level>
Public_Medium

> <Canonical_QSARr>
COC1C=CC(=CC=1)C(=O)NC(C)(C)C#C

> <InChI_Code_QSARr>
InChI=1S/C13H15NO2/c1-5-13(2,3)14-12(15)10-6-8-11(16-4)9-7-10/h1,6-9H,2-4H3,(H,14,15)

> <InChI Key_QSARr>
AMEGQBUWQVQJSA-UHFFFAOYSA-N

> <Salt_Solvent>


> <Salt_Solvent_ID>
0

> <MPID>
99909

> <KocRef>
Schuurmann-Main

> <LogKOC>
1.83

> <Tr_1_Tst_0>
0

$$$$
100655
  Mrv171c012251911022D          

 15 15  0  0  0  0            999 V2000
    3.5552   -0.9570    0.0000 O   0  0  0  0  0  0  0  0  0  0  0  0
    2.8408   -0.5445    0.0000 C   0  0  0  0  0  0  0  0  0  0  0  0
    2.8408    0.2805    0.0000 C   0  0  0  0  0  0  0  0  0  0  0  0
    3.5552    0.6930    0.0000 C   0  0  0  0  0  0  0  0  0  0  0  0
    3.5552    1.5180    0.0000 C   0  0  0  0  0  0  0  0  0  0  0  0
    2.8408    1.9305    0.0000 C   0  0  0  0  0  0  0  0  0  0  0  0
    2.8408    2.7555    0.0000 C   0  0  0  0  0  0  0  0  0  0  0  0
    2.1263    1.5180    0.0000 C   0  0  0  0  0  0  0  0  0  0  0  0
    2.1263    0.6930    0.0000 C   0  0  0  0  0  0  0  0  0  0  0  0
    2.1263   -0.9570    0.0000 N   0  0  0  0  0  0  0  0  0  0  0  0
    2.1263   -1.7820    0.0000 C   0  0  0  0  0  0  0  0  0  0  0  0
    2.1263   -2.6070    0.0000 C   0  0  0  0  0  0  0  0  0  0  0  0
    2.1263   -3.4320    0.0000 C   0  0  0  0  0  0  0  0  0  0  0  0
    1.3013   -1.7820    0.0000 C   0  0  0  0  0  0  0  0  0  0  0  0
    2.9513   -1.7820    0.0000 C   0  0  0  0  0  0  0  0  0  0  0  0
  1  2  2  0  0  0  0
  2  3  1  0  0  0  0
  4  3  1  0  0  0  0
  5  4  2  0  0  0  0
  6  5  1  0  0  0  0
  6  7  1  0  0  0  0
  8  6  2  0  0  0  0
  9  8  1  0  0  0  0
  3  9  2  0  0  0  0
  2 10  1  0  0  0  0
 10 11  1  0  0  0  0
 11 12  1  0  0  0  0
 12 13  3  0  0  0  0
 11 14  1  0  0  0  0
 11 15  1  0  0  0  0
M  END
> <ChemID>
100655

> <CAS>
39108-91-3

> <Original_SMILES>
Cc1ccc(cc1)C(=O)NC(C)(C)C#C

> <preferred_name>
Methylpropyzamide

> <dsstox_substance_id>
DTXSID20192355

> <dsstox_compound_id>
DTXCID30114846

> <qc_level>
Public_Medium

> <Canonical_QSARr>
CC1C=CC(=CC=1)C(=O)NC(C)(C)C#C

> <InChI_Code_QSARr>
InChI=1S/C13H15NO/c1-5-13(3,4)14-12(15)11-8-6-10(2)7-9-11/h1,6-9H,2-4H3,(H,14,15)

> <InChI Key_QSARr>
JSGFBSKLIXESOC-UHFFFAOYSA-N

> <Salt_Solvent>


> <Salt_Solvent_ID>
0

> <MPID>
99910

> <KocRef>
Schuurmann-Main

> <LogKOC>
1.76

> <Tr_1_Tst_0>
1

$$$$
100658
  Mrv171c012251911022D          

 20 20  0  0  0  0            999 V2000
    2.8456   -1.6226    0.0000 C   0  0  0  0  0  0  0  0  0  0  0  0
    2.8456   -0.7976    0.0000 C   0  0  0  0  0  0  0  0  0  0  0  0
    2.1311   -0.3851    0.0000 C   0  0  0  0  0  0  0  0  0  0  0  0
    2.1311    0.4399    0.0000 C   0  0  0  0  0  0  0  0  0  0  0  0
    1.4167   -0.7976    0.0000 C   0  0  0  0  0  0  0  0  0  0  0  0
    0.7022   -0.3851    0.0000 C   0  0  0  0  0  0  0  0  0  0  0  0
    1.4167   -1.6226    0.0000 C   0  0  0  0  0  0  0  0  0  0  0  0
    0.7022   -2.0351    0.0000 N   0  3  0  0  0  0  0  0  0  0  0  0
    0.7022   -2.8601    0.0000 O   0  0  0  0  0  0  0  0  0  0  0  0
   -0.0123   -1.6226    0.0000 O   0  5  0  0  0  0  0  0  0  0  0  0
    2.1311   -2.0351    0.0000 C   0  0  0  0  0  0  0  0  0  0  0  0
    2.1311   -2.8601    0.0000 N   0  0  0  0  0  0  0  0  0  0  0  0
    2.8456   -3.2726    0.0000 C   0  0  0  0  0  0  0  0  0  0  0  0
    2.8456   -4.0976    0.0000 C   0  0  0  0  0  0  0  0  0  0  0  0
    2.1311   -4.5101    0.0000 C   0  0  0  0  0  0  0  0  0  0  0  0
    3.5601   -2.8601    0.0000 C   0  0  0  0  0  0  0  0  0  0  0  0
    4.2745   -3.2726    0.0000 C   0  0  0  0  0  0  0  0  0  0  0  0
    3.5601   -2.0351    0.0000 N   0  3  0  0  0  0  0  0  0  0  0  0
    4.0450   -2.7025    0.0000 O   0  0  0  0  0  0  0  0  0  0  0  0
    4.2745   -1.6226    0.0000 O   0  5  0  0  0  0  0  0  0  0  0  0
  2  1  2  0  0  0  0
  3  2  1  0  0  0  0
  3  4  1  0  0  0  0
  5  3  2  0  0  0  0
  5  6  1  0  0  0  0
  7  5  1  0  0  0  0
  7  8  1  0  0  0  0
  8  9  2  0  0  0  0
  8 10  1  0  0  0  0
 11  7  2  0  0  0  0
  1 11  1  0  0  0  0
 11 12  1  0  0  0  0
 12 13  1  0  0  0  0
 13 14  1  0  0  0  0
 14 15  1  0  0  0  0
 13 16  1  0  0  0  0
 16 17  1  0  0  0  0
  1 18  1  0  0  0  0
 18 19  2  0  0  0  0
 18 20  1  0  0  0  0
M  CHG  4   8   1  10  -1  18   1  20  -1
M  END
> <ChemID>
100658

> <CAS>
40487-42-1

> <Original_SMILES>
Cc1c(c(NC(CC)CC)c(cc1C)[N+]([O-])=O)[N+]([O-])=O

> <preferred_name>
Pendimethalin

> <dsstox_substance_id>
DTXSID7024245

> <dsstox_compound_id>
DTXCID004245

> <qc_level>
DSSTox_Low

> <Canonical_QSARr>
CC1C(=C(NC(CC)CC)C(=CC=1C)[N+]([O-])=O)[N+]([O-])=O

> <InChI_Code_QSARr>
InChI=1S/C13H19N3O4/c1-5-10(6-2)14-12-11(15(17)18)7-8(3)9(4)13(12)16(19)20/h7,10,14H,5-6H2,1-4H3

> <InChI Key_QSARr>
CHIFOSRWCNZCFN-UHFFFAOYSA-N

> <Salt_Solvent>


> <Salt_Solvent_ID>
0

> <MPID>
99911

> <KocRef>
Schuurmann-Main

> <LogKOC>
3.7

> <Tr_1_Tst_0>
1

$$$$
100659
  Mrv171c012251911022D          

 18 18  0  0  0  0            999 V2000
    4.9436   -2.3766    0.0000 C   0  0  0  0  0  0  0  0  0  0  0  0
    4.9436   -1.5516    0.0000 C   0  0  0  0  0  0  0  0  0  0  0  0
    4.2291   -1.1391    0.0000 C   0  0  0  0  0  0  0  0  0  0  0  0
    4.2291   -0.3141    0.0000 Cl  0  0  0  0  0  0  0  0  0  0  0  0
    3.5147   -1.5516    0.0000 C   0  0  0  0  0  0  0  0  0  0  0  0
    2.8002   -1.1391    0.0000 O   0  0  0  0  0  0  0  0  0  0  0  0
    2.0857   -1.5516    0.0000 P   0  0  0  0  0  0  0  0  0  0  0  0
    2.4982   -2.2661    0.0000 O   0  0  0  0  0  0  0  0  0  0  0  0
    2.0857   -2.9806    0.0000 C   0  0  0  0  0  0  0  0  0  0  0  0
    1.2607   -2.9806    0.0000 C   0  0  0  0  0  0  0  0  0  0  0  0
    1.6732   -0.8371    0.0000 O   0  0  0  0  0  0  0  0  0  0  0  0
    1.3713   -1.9641    0.0000 S   0  0  0  0  0  0  0  0  0  0  0  0
    0.6568   -1.5516    0.0000 C   0  0  0  0  0  0  0  0  0  0  0  0
   -0.0577   -1.9641    0.0000 C   0  0  0  0  0  0  0  0  0  0  0  0
   -0.7722   -1.5516    0.0000 C   0  0  0  0  0  0  0  0  0  0  0  0
    3.5147   -2.3766    0.0000 C   0  0  0  0  0  0  0  0  0  0  0  0
    4.2291   -2.7891    0.0000 C   0  0  0  0  0  0  0  0  0  0  0  0
    5.6581   -2.7891    0.0000 Br  0  0  0  0  0  0  0  0  0  0  0  0
  2  1  2  0  0  0  0
  3  2  1  0  0  0  0
  3  4  1  0  0  0  0
  5  3  2  0  0  0  0
  5  6  1  0  0  0  0
  6  7  1  0  0  0  0
  7  8  1  0  0  0  0
  8  9  1  0  0  0  0
  9 10  1  0  0  0  0
  7 11  2  0  0  0  0
  7 12  1  0  0  0  0
 12 13  1  0  0  0  0
 13 14  1  0  0  0  0
 14 15  1  0  0  0  0
 16  5  1  0  0  0  0
 17 16  2  0  0  0  0
  1 17  1  0  0  0  0
  1 18  1  0  0  0  0
M  END
> <ChemID>
100659

> <CAS>
41198-08-7

> <Original_SMILES>
CCCSP(=O)(Oc1ccc(Br)cc1Cl)OCC

> <preferred_name>
Profenofos

> <dsstox_substance_id>
DTXSID3032464

> <dsstox_compound_id>
DTXCID1012464

> <qc_level>
DSSTox_Low

> <Canonical_QSARr>
CCCSP(=O)(OC1C=CC(Br)=CC=1Cl)OCC

> <InChI_Code_QSARr>
InChI=1S/C11H15BrClO3PS/c1-3-7-18-17(14,15-4-2)16-11-6-5-9(12)8-10(11)13/h5-6,8H,3-4,7H2,1-2H3

> <InChI Key_QSARr>
QYMMJNLHFKGANY-UHFFFAOYSA-N

> <Salt_Solvent>


> <Salt_Solvent_ID>
0

> <MPID>
99912

> <KocRef>
Schuurmann-Main

> <LogKOC>
3.03

> <Tr_1_Tst_0>
1

$$$$
100660
  Mrv171c012251911022D          

 15 16  0  0  0  0            999 V2000
    1.5121   -2.0879    0.0000 C   0  0  0  0  0  0  0  0  0  0  0  0
    1.5121   -2.9129    0.0000 C   0  0  0  0  0  0  0  0  0  0  0  0
    2.2266   -3.3254    0.0000 C   0  0  0  0  0  0  0  0  0  0  0  0
    2.9411   -2.9129    0.0000 C   0  0  0  0  0  0  0  0  0  0  0  0
    2.9411   -2.0879    0.0000 C   0  0  0  0  0  0  0  0  0  0  0  0
    2.2266   -1.6754    0.0000 C   0  0  0  0  0  0  0  0  0  0  0  0
    2.2266   -0.8504    0.0000 C   0  0  0  0  0  0  0  0  0  0  0  0
    2.9411   -0.4379    0.0000 C   0  0  0  0  0  0  0  0  0  0  0  0
    3.6555   -0.8504    0.0000 O   0  0  0  0  0  0  0  0  0  0  0  0
    2.9411    0.3871    0.0000 N   0  0  0  0  0  0  0  0  0  0  0  0
    3.6555    0.7996    0.0000 N   0  0  0  0  0  0  0  0  0  0  0  0
    2.2266    0.7996    0.0000 C   0  0  0  0  0  0  0  0  0  0  0  0
    2.2266    1.6246    0.0000 C   0  0  0  0  0  0  0  0  0  0  0  0
    1.5121    0.3871    0.0000 N   0  0  0  0  0  0  0  0  0  0  0  0
    1.5121   -0.4379    0.0000 N   0  0  0  0  0  0  0  0  0  0  0  0
  2  1  2  0  0  0  0
  3  2  1  0  0  0  0
  4  3  2  0  0  0  0
  5  4  1  0  0  0  0
  6  5  2  0  0  0  0
  1  6  1  0  0  0  0
  6  7  1  0  0  0  0
  8  7  1  0  0  0  0
  8  9  2  0  0  0  0
 10  8  1  0  0  0  0
 10 11  1  0  0  0  0
 12 10  1  0  0  0  0
 12 13  1  0  0  0  0
 14 12  2  0  0  0  0
 15 14  1  0  0  0  0
  7 15  2  0  0  0  0
M  END
> <ChemID>
100660

> <CAS>
41394-05-2

> <Original_SMILES>
CC1=NN=C(C(=O)N1N)c1ccccc1

> <preferred_name>
Metamitron

> <dsstox_substance_id>
DTXSID7047568

> <dsstox_compound_id>
DTXCID5027568

> <qc_level>
DSSTox_Low

> <Canonical_QSARr>
CC1=NN=C(C(=O)N1N)C1C=CC=CC=1

> <InChI_Code_QSARr>
InChI=1S/C10H10N4O/c1-7-12-13-9(10(15)14(7)11)8-5-3-2-4-6-8/h2-6H,11H2,1H3

> <InChI Key_QSARr>
VHCNQEUWZYOAEV-UHFFFAOYSA-N

> <Salt_Solvent>


> <Salt_Solvent_ID>
0

> <MPID>
99913

> <KocRef>
Schuurmann-Main

> <LogKOC>
2.17

> <Tr_1_Tst_0>
0

$$$$
100661
  Mrv171c012251911022D          

 17 18  0  0  0  0            999 V2000
    1.1347    1.6257    0.0000 C   0  0  0  0  0  0  0  0  0  0  0  0
    1.8492    1.2132    0.0000 C   0  0  0  0  0  0  0  0  0  0  0  0
    2.5637    1.6257    0.0000 C   0  0  0  0  0  0  0  0  0  0  0  0
    2.5637    2.4507    0.0000 C   0  0  0  0  0  0  0  0  0  0  0  0
    1.8492    2.8632    0.0000 C   0  0  0  0  0  0  0  0  0  0  0  0
    1.8492    3.6882    0.0000 Cl  0  0  0  0  0  0  0  0  0  0  0  0
    1.1347    2.4507    0.0000 C   0  0  0  0  0  0  0  0  0  0  0  0
    0.4203    2.8632    0.0000 Cl  0  0  0  0  0  0  0  0  0  0  0  0
    0.4203    1.2132    0.0000 C   0  0  0  0  0  0  0  0  0  0  0  0
   -0.2942    1.6257    0.0000 C   0  0  0  0  0  0  0  0  0  0  0  0
   -1.0087    1.2132    0.0000 C   0  0  0  0  0  0  0  0  0  0  0  0
   -1.7231    1.6257    0.0000 Cl  0  0  0  0  0  0  0  0  0  0  0  0
   -1.0087    0.3882    0.0000 C   0  0  0  0  0  0  0  0  0  0  0  0
   -1.7231   -0.0243    0.0000 Cl  0  0  0  0  0  0  0  0  0  0  0  0
   -0.2942   -0.0243    0.0000 C   0  0  0  0  0  0  0  0  0  0  0  0
    0.4203    0.3882    0.0000 C   0  0  0  0  0  0  0  0  0  0  0  0
    1.1347   -0.0243    0.0000 Cl  0  0  0  0  0  0  0  0  0  0  0  0
  2  1  1  0  0  0  0
  3  2  2  0  0  0  0
  4  3  1  0  0  0  0
  5  4  2  0  0  0  0
  5  6  1  0  0  0  0
  7  5  1  0  0  0  0
  1  7  2  0  0  0  0
  7  8  1  0  0  0  0
  1  9  1  0  0  0  0
 10  9  1  0  0  0  0
 11 10  2  0  0  0  0
 11 12  1  0  0  0  0
 13 11  1  0  0  0  0
 13 14  1  0  0  0  0
 15 13  2  0  0  0  0
 16 15  1  0  0  0  0
  9 16  2  0  0  0  0
 16 17  1  0  0  0  0
M  END
> <ChemID>
100661

> <CAS>
41464-51-1

> <Original_SMILES>
Clc1cc(Cl)c(Cl)cc1-c1cccc(Cl)c1Cl

> <preferred_name>
2,2',3,4',5'-Pentachlorobiphenyl

> <dsstox_substance_id>
DTXSID2073510

> <dsstox_compound_id>
DTXCID1039929

> <qc_level>
Public_High

> <Canonical_QSARr>
ClC1C=C(Cl)C(Cl)=CC=1C1C=CC=C(Cl)C=1Cl

> <InChI_Code_QSARr>
InChI=1S/C12H5Cl5/c13-8-3-1-2-6(12(8)17)7-4-10(15)11(16)5-9(7)14/h1-5H

> <InChI Key_QSARr>
JTUSORDQZVOEAZ-UHFFFAOYSA-N

> <Salt_Solvent>


> <Salt_Solvent_ID>
0

> <MPID>
99914

> <KocRef>
Baker-Data

> <LogKOC>
5.69

> <Tr_1_Tst_0>
1

$$$$
100662
  Mrv171c012251911022D          

 13 15  0  0  0  0            999 V2000
    2.3000   -0.9967    0.0000 N   0  0  0  0  0  0  0  0  0  0  0  0
    2.9578   -0.4987    0.0000 C   0  0  0  0  0  0  0  0  0  0  0  0
    3.6346   -0.9703    0.0000 N   0  0  0  0  0  0  0  0  0  0  0  0
    3.3952   -1.7598    0.0000 N   0  0  0  0  0  0  0  0  0  0  0  0
    2.5704   -1.7761    0.0000 C   0  0  0  0  0  0  0  0  0  0  0  0
    1.9126   -2.2741    0.0000 S   0  0  0  0  0  0  0  0  0  0  0  0
    1.2358   -1.8024    0.0000 C   0  0  0  0  0  0  0  0  0  0  0  0
    0.4323   -1.9898    0.0000 C   0  0  0  0  0  0  0  0  0  0  0  0
   -0.1317   -1.3877    0.0000 C   0  0  0  0  0  0  0  0  0  0  0  0
    0.1077   -0.5982    0.0000 C   0  0  0  0  0  0  0  0  0  0  0  0
    0.9112   -0.4108    0.0000 C   0  0  0  0  0  0  0  0  0  0  0  0
    1.1506    0.3787    0.0000 C   0  0  0  0  0  0  0  0  0  0  0  0
    1.4752   -1.0129    0.0000 C   0  0  0  0  0  0  0  0  0  0  0  0
  2  1  1  0  0  0  0
  3  2  2  0  0  0  0
  4  3  1  0  0  0  0
  5  4  2  0  0  0  0
  5  1  1  0  0  0  0
  6  5  1  0  0  0  0
  7  6  1  0  0  0  0
  7  8  2  0  0  0  0
  8  9  1  0  0  0  0
  9 10  2  0  0  0  0
 10 11  1  0  0  0  0
 11 12  1  0  0  0  0
 11 13  2  0  0  0  0
  1 13  1  0  0  0  0
 13  7  1  0  0  0  0
M  END
> <ChemID>
100662

> <CAS>
41814-78-2

> <Original_SMILES>
Cc1cccc2[s]c3[n][n]c[n]3c21

> <preferred_name>
2,7,8,9-Tricyclazole

> <dsstox_substance_id>
DTXSID7037478

> <dsstox_compound_id>
DTXCID5017478

> <qc_level>
DSSTox_High

> <Canonical_QSARr>
CC1C=CC=C2SC3=NN=CN3C2=1

> <InChI_Code_QSARr>
InChI=1S/C9H7N3S/c1-6-3-2-4-7-8(6)12-5-10-11-9(12)13-7/h2-5H,1H3

> <InChI Key_QSARr>
DQJCHOQLCLEDLL-UHFFFAOYSA-N

> <Salt_Solvent>


> <Salt_Solvent_ID>
0

> <MPID>
99915

> <KocRef>
Schuurmann-Main

> <LogKOC>
3.09

> <Tr_1_Tst_0>
1

$$$$
100663
  Mrv171c012251911022D          

 18 18  0  0  0  0            999 V2000
    3.3105   -1.7734    0.0000 C   0  0  0  0  0  0  0  0  0  0  0  0
    3.7954   -2.4409    0.0000 O   0  0  0  0  0  0  0  0  0  0  0  0
    3.4599   -3.1945    0.0000 P   0  0  0  0  0  0  0  0  0  0  0  0
    3.1243   -3.9482    0.0000 O   0  0  0  0  0  0  0  0  0  0  0  0
    3.6092   -4.6156    0.0000 C   0  0  0  0  0  0  0  0  0  0  0  0
    3.2737   -5.3693    0.0000 C   0  0  0  0  0  0  0  0  0  0  0  0
    4.2136   -3.5301    0.0000 O   0  0  0  0  0  0  0  0  0  0  0  0
    4.2998   -4.3506    0.0000 C   0  0  0  0  0  0  0  0  0  0  0  0
    5.0535   -4.6861    0.0000 C   0  0  0  0  0  0  0  0  0  0  0  0
    2.7062   -2.8590    0.0000 S   0  0  0  0  0  0  0  0  0  0  0  0
    3.5654   -0.9888    0.0000 N   0  0  0  0  0  0  0  0  0  0  0  0
    2.8980   -0.5039    0.0000 N   0  0  0  0  0  0  0  0  0  0  0  0
    2.8980    0.3211    0.0000 C   0  0  0  0  0  0  0  0  0  0  0  0
    2.1835    0.7336    0.0000 C   0  0  0  0  0  0  0  0  0  0  0  0
    3.6125    0.7336    0.0000 C   0  0  0  0  0  0  0  0  0  0  0  0
    2.2306   -0.9888    0.0000 C   0  0  0  0  0  0  0  0  0  0  0  0
    1.4460   -0.7339    0.0000 Cl  0  0  0  0  0  0  0  0  0  0  0  0
    2.4855   -1.7734    0.0000 N   0  0  0  0  0  0  0  0  0  0  0  0
  1  2  1  0  0  0  0
  2  3  1  0  0  0  0
  3  4  1  0  0  0  0
  4  5  1  0  0  0  0
  5  6  1  0  0  0  0
  3  7  1  0  0  0  0
  7  8  1  0  0  0  0
  8  9  1  0  0  0  0
  3 10  2  0  0  0  0
 11  1  2  0  0  0  0
 12 11  1  0  0  0  0
 12 13  1  0  0  0  0
 13 14  1  0  0  0  0
 13 15  1  0  0  0  0
 16 12  1  0  0  0  0
 16 17  1  0  0  0  0
 18 16  2  0  0  0  0
  1 18  1  0  0  0  0
M  END
> <ChemID>
100663

> <CAS>
42509-80-8

> <Original_SMILES>
CC(C)[n]1[n]c([n]c1Cl)OP(=S)(OCC)OCC

> <preferred_name>
Isazofos

> <dsstox_substance_id>
DTXSID7034676

> <dsstox_compound_id>
DTXCID5014676

> <qc_level>
DSSTox_Low

> <Canonical_QSARr>
CC(C)N1N=C(N=C1Cl)OP(=S)(OCC)OCC

> <InChI_Code_QSARr>
InChI=1S/C9H17ClN3O3PS/c1-5-14-17(18,15-6-2)16-9-11-8(10)13(12-9)7(3)4/h7H,5-6H2,1-4H3

> <InChI Key_QSARr>
XRHGWAGWAHHFLF-UHFFFAOYSA-N

> <Salt_Solvent>


> <Salt_Solvent_ID>
0

> <MPID>
99916

> <KocRef>
Schuurmann-Main

> <LogKOC>
2.01

> <Tr_1_Tst_0>
1

$$$$
100664
  Mrv171c012251911022D          

 22 23  0  0  0  0            999 V2000
    4.2285   -2.9624    0.0000 C   0  0  0  0  0  0  0  0  0  0  0  0
    4.2285   -2.1374    0.0000 C   0  0  0  0  0  0  0  0  0  0  0  0
    3.5140   -1.7249    0.0000 C   0  0  0  0  0  0  0  0  0  0  0  0
    3.5140   -0.8999    0.0000 O   0  0  0  0  0  0  0  0  0  0  0  0
    2.7995   -0.4874    0.0000 C   0  0  0  0  0  0  0  0  0  0  0  0
    2.7995    0.3376    0.0000 C   0  0  0  0  0  0  0  0  0  0  0  0
    2.0851    0.7501    0.0000 C   0  0  0  0  0  0  0  0  0  0  0  0
    1.3706    0.3376    0.0000 C   0  0  0  0  0  0  0  0  0  0  0  0
    0.6561    0.7501    0.0000 Cl  0  0  0  0  0  0  0  0  0  0  0  0
    1.3706   -0.4874    0.0000 C   0  0  0  0  0  0  0  0  0  0  0  0
    2.0851   -0.8999    0.0000 C   0  0  0  0  0  0  0  0  0  0  0  0
    2.0851   -1.7249    0.0000 Cl  0  0  0  0  0  0  0  0  0  0  0  0
    2.7995   -2.1374    0.0000 C   0  0  0  0  0  0  0  0  0  0  0  0
    2.7995   -2.9624    0.0000 C   0  0  0  0  0  0  0  0  0  0  0  0
    3.5140   -3.3749    0.0000 C   0  0  0  0  0  0  0  0  0  0  0  0
    3.5140   -4.1999    0.0000 N   0  3  0  0  0  0  0  0  0  0  0  0
    4.2285   -4.6124    0.0000 O   0  0  0  0  0  0  0  0  0  0  0  0
    2.7995   -4.6124    0.0000 O   0  5  0  0  0  0  0  0  0  0  0  0
    4.9430   -3.3749    0.0000 C   0  0  0  0  0  0  0  0  0  0  0  0
    5.6574   -2.9624    0.0000 O   0  0  0  0  0  0  0  0  0  0  0  0
    6.3719   -3.3749    0.0000 C   0  0  0  0  0  0  0  0  0  0  0  0
    4.9430   -4.1999    0.0000 O   0  0  0  0  0  0  0  0  0  0  0  0
  2  1  1  0  0  0  0
  3  2  2  0  0  0  0
  3  4  1  0  0  0  0
  4  5  1  0  0  0  0
  6  5  2  0  0  0  0
  7  6  1  0  0  0  0
  8  7  2  0  0  0  0
  8  9  1  0  0  0  0
 10  8  1  0  0  0  0
 11 10  2  0  0  0  0
  5 11  1  0  0  0  0
 11 12  1  0  0  0  0
 13  3  1  0  0  0  0
 14 13  2  0  0  0  0
 15 14  1  0  0  0  0
  1 15  2  0  0  0  0
 15 16  1  0  0  0  0
 16 17  2  0  0  0  0
 16 18  1  0  0  0  0
  1 19  1  0  0  0  0
 19 20  1  0  0  0  0
 20 21  1  0  0  0  0
 19 22  2  0  0  0  0
M  CHG  2  16   1  18  -1
M  END
> <ChemID>
100664

> <CAS>
42576-02-3

> <Original_SMILES>
COC(=O)c1cc(ccc1[N+]([O-])=O)Oc1ccc(Cl)cc1Cl

> <preferred_name>
Bifenox

> <dsstox_substance_id>
DTXSID1040320

> <dsstox_compound_id>
DTXCID9020320

> <qc_level>
DSSTox_Low

> <Canonical_QSARr>
COC(=O)C1C=C(C=CC=1[N+]([O-])=O)OC1=CC=C(Cl)C=C1Cl

> <InChI_Code_QSARr>
InChI=1S/C14H9Cl2NO5/c1-21-14(18)10-7-9(3-4-12(10)17(19)20)22-13-5-2-8(15)6-11(13)16/h2-7H,1H3

> <InChI Key_QSARr>
SUSRORUBZHMPCO-UHFFFAOYSA-N

> <Salt_Solvent>


> <Salt_Solvent_ID>
0

> <MPID>
99917

> <KocRef>
Schuurmann-Main

> <LogKOC>
4.0

> <Tr_1_Tst_0>
0

$$$$
100665
  Mrv171c012251911022D          

 24 25  0  0  0  0            999 V2000
    4.9877   -4.2498    0.0000 N   0  3  0  0  0  0  0  0  0  0  0  0
    4.2732   -4.6623    0.0000 O   0  0  0  0  0  0  0  0  0  0  0  0
    5.7021   -4.6623    0.0000 O   0  5  0  0  0  0  0  0  0  0  0  0
    4.9877   -3.4248    0.0000 C   0  0  0  0  0  0  0  0  0  0  0  0
    5.7021   -3.0123    0.0000 C   0  0  0  0  0  0  0  0  0  0  0  0
    5.7021   -2.1873    0.0000 C   0  0  0  0  0  0  0  0  0  0  0  0
    4.9877   -1.7748    0.0000 C   0  0  0  0  0  0  0  0  0  0  0  0
    4.9877   -0.9498    0.0000 O   0  0  0  0  0  0  0  0  0  0  0  0
    4.2732   -0.5373    0.0000 C   0  0  0  0  0  0  0  0  0  0  0  0
    4.2732    0.2877    0.0000 C   0  0  0  0  0  0  0  0  0  0  0  0
    3.5587    0.7002    0.0000 C   0  0  0  0  0  0  0  0  0  0  0  0
    2.8442    0.2877    0.0000 C   0  0  0  0  0  0  0  0  0  0  0  0
    2.1298    0.7002    0.0000 C   0  0  0  0  0  0  0  0  0  0  0  0
    1.4153    1.1127    0.0000 F   0  0  0  0  0  0  0  0  0  0  0  0
    2.5423    1.4147    0.0000 F   0  0  0  0  0  0  0  0  0  0  0  0
    1.7173   -0.0143    0.0000 F   0  0  0  0  0  0  0  0  0  0  0  0
    2.8442   -0.5373    0.0000 C   0  0  0  0  0  0  0  0  0  0  0  0
    3.5587   -0.9498    0.0000 C   0  0  0  0  0  0  0  0  0  0  0  0
    3.5587   -1.7748    0.0000 Cl  0  0  0  0  0  0  0  0  0  0  0  0
    4.2732   -2.1873    0.0000 C   0  0  0  0  0  0  0  0  0  0  0  0
    4.2732   -3.0123    0.0000 C   0  0  0  0  0  0  0  0  0  0  0  0
    3.5587   -3.4248    0.0000 O   0  0  0  0  0  0  0  0  0  0  0  0
    3.5587   -4.2498    0.0000 C   0  0  0  0  0  0  0  0  0  0  0  0
    2.8442   -4.6623    0.0000 C   0  0  0  0  0  0  0  0  0  0  0  0
  1  2  2  0  0  0  0
  1  3  1  0  0  0  0
  1  4  1  0  0  0  0
  5  4  2  0  0  0  0
  6  5  1  0  0  0  0
  7  6  2  0  0  0  0
  7  8  1  0  0  0  0
  8  9  1  0  0  0  0
 10  9  2  0  0  0  0
 11 10  1  0  0  0  0
 12 11  2  0  0  0  0
 12 13  1  0  0  0  0
 13 14  1  0  0  0  0
 13 15  1  0  0  0  0
 13 16  1  0  0  0  0
 17 12  1  0  0  0  0
 18 17  2  0  0  0  0
  9 18  1  0  0  0  0
 18 19  1  0  0  0  0
 20  7  1  0  0  0  0
 21 20  2  0  0  0  0
  4 21  1  0  0  0  0
 21 22  1  0  0  0  0
 22 23  1  0  0  0  0
 23 24  1  0  0  0  0
M  CHG  2   1   1   3  -1
M  END
> <ChemID>
100665

> <CAS>
42874-03-3

> <Original_SMILES>
CCOc1cc(ccc1[N+]([O-])=O)Oc1ccc(cc1Cl)C(F)(F)F

> <preferred_name>
Oxyfluorfen

> <dsstox_substance_id>
DTXSID7024241

> <dsstox_compound_id>
DTXCID404241

> <qc_level>
DSSTox_Low

> <Canonical_QSARr>
CCOC1=CC(=CC=C1[N+]([O-])=O)OC1=CC=C(C=C1Cl)C(F)(F)F

> <InChI_Code_QSARr>
InChI=1S/C15H11ClF3NO4/c1-2-23-14-8-10(4-5-12(14)20(21)22)24-13-6-3-9(7-11(13)16)15(17,18)19/h3-8H,2H2,1H3

> <InChI Key_QSARr>
OQMBBFQZGJFLBU-UHFFFAOYSA-N

> <Salt_Solvent>


> <Salt_Solvent_ID>
0

> <MPID>
99918

> <KocRef>
Schuurmann-Main

> <LogKOC>
5.0

> <Tr_1_Tst_0>
1

$$$$
100666
  Mrv171c012251911022D          

 20 21  0  0  0  0            999 V2000
    2.1472   -1.2559    0.0000 C   0  0  0  0  0  0  0  0  0  0  0  0
    2.8617   -0.8434    0.0000 O   0  0  0  0  0  0  0  0  0  0  0  0
    3.5761   -1.2559    0.0000 C   0  0  0  0  0  0  0  0  0  0  0  0
    3.5761   -2.0809    0.0000 C   0  0  0  0  0  0  0  0  0  0  0  0
    4.2906   -2.4934    0.0000 C   0  0  0  0  0  0  0  0  0  0  0  0
    5.0051   -2.0809    0.0000 C   0  0  0  0  0  0  0  0  0  0  0  0
    5.7195   -2.4934    0.0000 Cl  0  0  0  0  0  0  0  0  0  0  0  0
    5.0051   -1.2559    0.0000 C   0  0  0  0  0  0  0  0  0  0  0  0
    4.2906   -0.8434    0.0000 C   0  0  0  0  0  0  0  0  0  0  0  0
    1.4327   -0.8434    0.0000 C   0  0  0  0  0  0  0  0  0  0  0  0
    1.4327   -0.0184    0.0000 O   0  0  0  0  0  0  0  0  0  0  0  0
    0.7183   -1.2559    0.0000 C   0  0  0  0  0  0  0  0  0  0  0  0
    0.0038   -1.6684    0.0000 C   0  0  0  0  0  0  0  0  0  0  0  0
    0.3058   -0.5414    0.0000 C   0  0  0  0  0  0  0  0  0  0  0  0
    1.1308   -1.9703    0.0000 C   0  0  0  0  0  0  0  0  0  0  0  0
    2.1472   -2.0809    0.0000 N   0  0  0  0  0  0  0  0  0  0  0  0
    1.4798   -2.5658    0.0000 C   0  0  0  0  0  0  0  0  0  0  0  0
    1.7347   -3.3504    0.0000 N   0  0  0  0  0  0  0  0  0  0  0  0
    2.5597   -3.3504    0.0000 C   0  0  0  0  0  0  0  0  0  0  0  0
    2.8146   -2.5658    0.0000 N   0  0  0  0  0  0  0  0  0  0  0  0
  1  2  1  0  0  0  0
  2  3  1  0  0  0  0
  4  3  2  0  0  0  0
  5  4  1  0  0  0  0
  6  5  2  0  0  0  0
  6  7  1  0  0  0  0
  8  6  1  0  0  0  0
  9  8  2  0  0  0  0
  3  9  1  0  0  0  0
  1 10  1  0  0  0  0
 10 11  2  0  0  0  0
 10 12  1  0  0  0  0
 12 13  1  0  0  0  0
 12 14  1  0  0  0  0
 12 15  1  0  0  0  0
  1 16  1  0  0  0  0
 17 16  1  0  0  0  0
 18 17  2  0  0  0  0
 19 18  1  0  0  0  0
 20 19  2  0  0  0  0
 16 20  1  0  0  0  0
M  END
> <ChemID>
100666

> <CAS>
43121-43-3

> <Original_SMILES>
CC(C)(C)C(=O)C(Oc1ccc(Cl)cc1)[n]1c[n]c[n]1

> <preferred_name>
Triadimefon

> <dsstox_substance_id>
DTXSID3023897

> <dsstox_compound_id>
DTXCID403897

> <qc_level>
DSSTox_Low

> <Canonical_QSARr>
CC(C)(C)C(=O)C(OC1C=CC(Cl)=CC=1)N1C=NC=N1

> <InChI_Code_QSARr>
InChI=1S/C14H16ClN3O2/c1-14(2,3)12(19)13(18-9-16-8-17-18)20-11-6-4-10(15)5-7-11/h4-9,13H,1-3H3

> <InChI Key_QSARr>
WURBVZBTWMNKQT-UHFFFAOYSA-N

> <Salt_Solvent>


> <Salt_Solvent_ID>
0

> <MPID>
99919

> <KocRef>
Schuurmann-Main

> <LogKOC>
2.71

> <Tr_1_Tst_0>
1

$$$$
100668
  Mrv171c012251911022D          

 18 19  0  0  0  0            999 V2000
    2.0025   -1.4098    0.0000 N   0  0  0  0  0  0  0  0  0  0  0  0
    2.4875   -2.0772    0.0000 C   0  0  0  0  0  0  0  0  0  0  0  0
    2.1519   -2.8309    0.0000 C   0  0  0  0  0  0  0  0  0  0  0  0
    2.6368   -3.4983    0.0000 C   0  0  0  0  0  0  0  0  0  0  0  0
    2.3013   -4.2520    0.0000 Cl  0  0  0  0  0  0  0  0  0  0  0  0
    3.4573   -3.4121    0.0000 C   0  0  0  0  0  0  0  0  0  0  0  0
    3.7929   -2.6584    0.0000 C   0  0  0  0  0  0  0  0  0  0  0  0
    4.6134   -2.5722    0.0000 Cl  0  0  0  0  0  0  0  0  0  0  0  0
    3.3080   -1.9910    0.0000 C   0  0  0  0  0  0  0  0  0  0  0  0
    2.2575   -0.6252    0.0000 C   0  0  0  0  0  0  0  0  0  0  0  0
    3.0421   -0.3702    0.0000 O   0  0  0  0  0  0  0  0  0  0  0  0
    1.5900   -0.1402    0.0000 C   0  0  0  0  0  0  0  0  0  0  0  0
    2.1421    0.4729    0.0000 C   0  0  0  0  0  0  0  0  0  0  0  0
    1.0380    0.4729    0.0000 C   0  0  0  0  0  0  0  0  0  0  0  0
    0.2310    0.3013    0.0000 C   0  0  0  0  0  0  0  0  0  0  0  0
    0.9226   -0.6252    0.0000 O   0  0  0  0  0  0  0  0  0  0  0  0
    1.1775   -1.4098    0.0000 C   0  0  0  0  0  0  0  0  0  0  0  0
    0.6926   -2.0772    0.0000 O   0  0  0  0  0  0  0  0  0  0  0  0
  1  2  1  0  0  0  0
  3  2  1  0  0  0  0
  4  3  2  0  0  0  0
  4  5  1  0  0  0  0
  6  4  1  0  0  0  0
  7  6  2  0  0  0  0
  7  8  1  0  0  0  0
  9  7  1  0  0  0  0
  2  9  2  0  0  0  0
 10  1  1  0  0  0  0
 10 11  2  0  0  0  0
 12 10  1  0  0  0  0
 12 13  1  0  0  0  0
 12 14  1  0  0  0  0
 14 15  2  0  0  0  0
 16 12  1  0  0  0  0
 17 16  1  0  0  0  0
  1 17  1  0  0  0  0
 17 18  2  0  0  0  0
M  END
> <ChemID>
100668

> <CAS>
50471-44-8

> <Original_SMILES>
CC1(C=C)OC(=O)N(c2cc(Cl)cc(Cl)c2)C1=O

> <preferred_name>
Vinclozolin

> <dsstox_substance_id>
DTXSID4022361

> <dsstox_compound_id>
DTXCID002361

> <qc_level>
DSSTox_Low

> <Canonical_QSARr>
CC1(C=C)OC(=O)N(C2C=C(Cl)C=C(Cl)C=2)C1=O

> <InChI_Code_QSARr>
InChI=1S/C12H9Cl2NO3/c1-3-12(2)10(16)15(11(17)18-12)9-5-7(13)4-8(14)6-9/h3-6H,1H2,2H3

> <InChI Key_QSARr>
FSCWZHGZWWDELK-UHFFFAOYSA-N

> <Salt_Solvent>


> <Salt_Solvent_ID>
0

> <MPID>
99920

> <KocRef>
USDA Pest Prop DB

> <LogKOC>
2.7

> <Tr_1_Tst_0>
1

$$$$
100669
  Mrv171c012251911022D          

 16 17  0  0  0  0            999 V2000
    0.7145    1.2375    0.0000 N   0  0  0  0  0  0  0  0  0  0  0  0
   -0.0000    0.8250    0.0000 S   0  0  0  0  0  0  0  0  0  0  0  0
   -0.2822    1.6002    0.0000 O   0  0  0  0  0  0  0  0  0  0  0  0
   -0.8125    0.6817    0.0000 O   0  0  0  0  0  0  0  0  0  0  0  0
   -0.0000    0.0000    0.0000 N   0  0  0  0  0  0  0  0  0  0  0  0
   -0.7145   -0.4125    0.0000 C   0  0  0  0  0  0  0  0  0  0  0  0
   -0.7145   -1.2375    0.0000 C   0  0  0  0  0  0  0  0  0  0  0  0
   -1.4289    0.0000    0.0000 C   0  0  0  0  0  0  0  0  0  0  0  0
    0.7145   -0.4125    0.0000 C   0  0  0  0  0  0  0  0  0  0  0  0
    0.7145   -1.2375    0.0000 O   0  0  0  0  0  0  0  0  0  0  0  0
    1.4289    0.0000    0.0000 C   0  0  0  0  0  0  0  0  0  0  0  0
    1.4289    0.8250    0.0000 C   0  0  0  0  0  0  0  0  0  0  0  0
    2.1434    1.2375    0.0000 C   0  0  0  0  0  0  0  0  0  0  0  0
    2.8579    0.8250    0.0000 C   0  0  0  0  0  0  0  0  0  0  0  0
    2.8579    0.0000    0.0000 C   0  0  0  0  0  0  0  0  0  0  0  0
    2.1434   -0.4125    0.0000 C   0  0  0  0  0  0  0  0  0  0  0  0
  2  1  1  0  0  0  0
  2  3  2  0  0  0  0
  2  4  2  0  0  0  0
  5  2  1  0  0  0  0
  5  6  1  0  0  0  0
  6  7  1  0  0  0  0
  6  8  1  0  0  0  0
  9  5  1  0  0  0  0
  9 10  2  0  0  0  0
 11  9  1  0  0  0  0
 11 12  1  0  0  0  0
  1 12  1  0  0  0  0
 12 13  2  0  0  0  0
 13 14  1  0  0  0  0
 14 15  2  0  0  0  0
 15 16  1  0  0  0  0
 16 11  2  0  0  0  0
M  END
> <ChemID>
100669

> <CAS>
50723-80-3

> <Original_SMILES>
[Na+].CC(C)N1C(=O)c2ccccc2[N-]S1(=O)=O

> <preferred_name>
Bentazone-sodium

> <dsstox_substance_id>
DTXSID0032522

> <dsstox_compound_id>
DTXCID8012522

> <qc_level>
DSSTox_Low

> <Canonical_QSARr>
CC(C)N1C(=O)C2=CC=CC=C2NS1(=O)=O

> <InChI_Code_QSARr>
InChI=1S/C10H12N2O3S/c1-7(2)12-10(13)8-5-3-4-6-9(8)11-16(12,14)15/h3-7,11H,1-2H3

> <InChI Key_QSARr>
ZOMSMJKLGFBRBS-UHFFFAOYSA-N

> <Salt_Solvent>
[Na+]

> <Salt_Solvent_ID>
110

> <MPID>
99921

> <KocRef>
USDA Pest Prop DB

> <LogKOC>
1.54

> <Tr_1_Tst_0>
1

$$$$
100670
  Mrv171c012251911022D          

 19 19  0  0  0  0            999 V2000
    1.8871   -2.6677    0.0000 N   0  0  0  0  0  0  0  0  0  0  0  0
    1.0621   -2.6677    0.0000 C   0  0  0  0  0  0  0  0  0  0  0  0
    0.6496   -1.9532    0.0000 C   0  0  0  0  0  0  0  0  0  0  0  0
    0.6496   -3.3821    0.0000 C   0  0  0  0  0  0  0  0  0  0  0  0
   -0.1754   -3.3821    0.0000 O   0  0  0  0  0  0  0  0  0  0  0  0
   -0.5879   -4.0966    0.0000 C   0  0  0  0  0  0  0  0  0  0  0  0
    2.2996   -3.3821    0.0000 C   0  0  0  0  0  0  0  0  0  0  0  0
    3.1246   -3.3821    0.0000 C   0  0  0  0  0  0  0  0  0  0  0  0
    3.5371   -4.0966    0.0000 Cl  0  0  0  0  0  0  0  0  0  0  0  0
    1.8871   -4.0966    0.0000 O   0  0  0  0  0  0  0  0  0  0  0  0
    2.2996   -1.9532    0.0000 C   0  0  0  0  0  0  0  0  0  0  0  0
    3.1246   -1.9532    0.0000 C   0  0  0  0  0  0  0  0  0  0  0  0
    3.5371   -2.6677    0.0000 C   0  0  0  0  0  0  0  0  0  0  0  0
    4.3621   -2.6677    0.0000 C   0  0  0  0  0  0  0  0  0  0  0  0
    3.5371   -1.2387    0.0000 C   0  0  0  0  0  0  0  0  0  0  0  0
    3.1246   -0.5242    0.0000 C   0  0  0  0  0  0  0  0  0  0  0  0
    2.2996   -0.5242    0.0000 C   0  0  0  0  0  0  0  0  0  0  0  0
    1.8871   -1.2387    0.0000 C   0  0  0  0  0  0  0  0  0  0  0  0
    1.0621   -1.2387    0.0000 C   0  0  0  0  0  0  0  0  0  0  0  0
  1  2  1  0  0  0  0
  2  3  1  0  0  0  0
  2  4  1  0  0  0  0
  4  5  1  0  0  0  0
  5  6  1  0  0  0  0
  1  7  1  0  0  0  0
  7  8  1  0  0  0  0
  8  9  1  0  0  0  0
  7 10  2  0  0  0  0
  1 11  1  0  0  0  0
 12 11  2  0  0  0  0
 12 13  1  0  0  0  0
 13 14  1  0  0  0  0
 15 12  1  0  0  0  0
 16 15  2  0  0  0  0
 17 16  1  0  0  0  0
 18 17  2  0  0  0  0
 11 18  1  0  0  0  0
 18 19  1  0  0  0  0
M  END
> <ChemID>
100670

> <CAS>
51218-45-2

> <Original_SMILES>
Cc1cccc(CC)c1N(C(C)COC)C(=O)CCl

> <preferred_name>
Metolachlor

> <dsstox_substance_id>
DTXSID4022448

> <dsstox_compound_id>
DTXCID402448

> <qc_level>
DSSTox_High

> <Canonical_QSARr>
CC1=CC=CC(CC)=C1N(C(C)COC)C(=O)CCl

> <InChI_Code_QSARr>
InChI=1S/C15H22ClNO2/c1-5-13-8-6-7-11(2)15(13)17(14(18)9-16)12(3)10-19-4/h6-8,12H,5,9-10H2,1-4H3

> <InChI Key_QSARr>
WVQBLGZPHOPPFO-UHFFFAOYSA-N

> <Salt_Solvent>


> <Salt_Solvent_ID>
0

> <MPID>
99922

> <KocRef>
Schuurmann-Main

> <LogKOC>
2.46

> <Tr_1_Tst_0>
0

$$$$
100671
  Mrv171c012251911022D          

 18 19  0  0  0  0            999 V2000
    3.9042   -1.6404    0.0000 N   0  0  0  0  0  0  0  0  0  0  0  0
    3.1898   -1.2279    0.0000 C   0  0  0  0  0  0  0  0  0  0  0  0
    3.1898   -0.4029    0.0000 O   0  0  0  0  0  0  0  0  0  0  0  0
    2.4753   -1.6404    0.0000 N   0  0  0  0  0  0  0  0  0  0  0  0
    1.7608   -1.2279    0.0000 C   0  0  0  0  0  0  0  0  0  0  0  0
    1.7608   -0.4029    0.0000 C   0  0  0  0  0  0  0  0  0  0  0  0
    1.0464    0.0096    0.0000 C   0  0  0  0  0  0  0  0  0  0  0  0
    0.3319   -0.4029    0.0000 C   0  0  0  0  0  0  0  0  0  0  0  0
    0.3319   -1.2279    0.0000 C   0  0  0  0  0  0  0  0  0  0  0  0
    1.0464   -1.6404    0.0000 C   0  0  0  0  0  0  0  0  0  0  0  0
    2.4753   -2.4654    0.0000 C   0  0  0  0  0  0  0  0  0  0  0  0
    1.7608   -2.8779    0.0000 O   0  0  0  0  0  0  0  0  0  0  0  0
    3.1898   -2.8779    0.0000 N   0  0  0  0  0  0  0  0  0  0  0  0
    3.1898   -3.7029    0.0000 C   0  0  0  0  0  0  0  0  0  0  0  0
    3.9042   -2.4654    0.0000 C   0  0  0  0  0  0  0  0  0  0  0  0
    4.6187   -2.8779    0.0000 N   0  0  0  0  0  0  0  0  0  0  0  0
    5.3332   -2.4654    0.0000 C   0  0  0  0  0  0  0  0  0  0  0  0
    4.6187   -3.7029    0.0000 C   0  0  0  0  0  0  0  0  0  0  0  0
  2  1  1  0  0  0  0
  2  3  2  0  0  0  0
  4  2  1  0  0  0  0
  4  5  1  0  0  0  0
  6  5  1  0  0  0  0
  7  6  1  0  0  0  0
  8  7  1  0  0  0  0
  9  8  1  0  0  0  0
 10  9  1  0  0  0  0
  5 10  1  0  0  0  0
 11  4  1  0  0  0  0
 11 12  2  0  0  0  0
 13 11  1  0  0  0  0
 13 14  1  0  0  0  0
 15 13  1  0  0  0  0
  1 15  2  0  0  0  0
 15 16  1  0  0  0  0
 16 17  1  0  0  0  0
 16 18  1  0  0  0  0
M  END
> <ChemID>
100671

> <CAS>
51235-04-2

> <Original_SMILES>
CN(C)C1=NC(=O)N(C2CCCCC2)C(=O)N1C

> <preferred_name>
Hexazinone

> <dsstox_substance_id>
DTXSID4024145

> <dsstox_compound_id>
DTXCID804145

> <qc_level>
DSSTox_Low

> <Canonical_QSARr>
CN(C)C1=NC(=O)N(C2CCCCC2)C(=O)N1C

> <InChI_Code_QSARr>
InChI=1S/C12H20N4O2/c1-14(2)10-13-11(17)16(12(18)15(10)3)9-7-5-4-6-8-9/h9H,4-8H2,1-3H3

> <InChI Key_QSARr>
CAWXEEYDBZRFPE-UHFFFAOYSA-N

> <Salt_Solvent>


> <Salt_Solvent_ID>
0

> <MPID>
99923

> <KocRef>
Schuurmann-Main

> <LogKOC>
1.73

> <Tr_1_Tst_0>
1

$$$$
100672
  Mrv171c012251911022D          

 22 23  0  0  0  0            999 V2000
    2.6636   -0.9731    0.0000 Cl  0  0  0  0  0  0  0  0  0  0  0  0
    1.9491   -1.3856    0.0000 C   0  0  0  0  0  0  0  0  0  0  0  0
    1.2346   -0.9731    0.0000 C   0  0  0  0  0  0  0  0  0  0  0  0
    0.5201   -1.3856    0.0000 C   0  0  0  0  0  0  0  0  0  0  0  0
   -0.1943   -0.9731    0.0000 Cl  0  0  0  0  0  0  0  0  0  0  0  0
    0.5201   -2.2106    0.0000 C   0  0  0  0  0  0  0  0  0  0  0  0
    1.2346   -2.6231    0.0000 C   0  0  0  0  0  0  0  0  0  0  0  0
    1.9491   -2.2106    0.0000 C   0  0  0  0  0  0  0  0  0  0  0  0
    2.6636   -2.6231    0.0000 O   0  0  0  0  0  0  0  0  0  0  0  0
    3.3780   -2.2106    0.0000 C   0  0  0  0  0  0  0  0  0  0  0  0
    4.0925   -2.6231    0.0000 C   0  0  0  0  0  0  0  0  0  0  0  0
    4.8070   -2.2106    0.0000 C   0  0  0  0  0  0  0  0  0  0  0  0
    4.8070   -1.3856    0.0000 C   0  0  0  0  0  0  0  0  0  0  0  0
    5.5214   -0.9731    0.0000 O   0  0  0  0  0  0  0  0  0  0  0  0
    6.2359   -1.3856    0.0000 C   0  0  0  0  0  0  0  0  0  0  0  0
    6.2359   -2.2106    0.0000 C   0  0  0  0  0  0  0  0  0  0  0  0
    6.9504   -0.9731    0.0000 C   0  0  0  0  0  0  0  0  0  0  0  0
    7.6648   -1.3856    0.0000 O   0  0  0  0  0  0  0  0  0  0  0  0
    8.3793   -0.9731    0.0000 C   0  0  0  0  0  0  0  0  0  0  0  0
    6.9504   -0.1481    0.0000 O   0  0  0  0  0  0  0  0  0  0  0  0
    4.0925   -0.9731    0.0000 C   0  0  0  0  0  0  0  0  0  0  0  0
    3.3780   -1.3856    0.0000 C   0  0  0  0  0  0  0  0  0  0  0  0
  1  2  1  0  0  0  0
  3  2  2  0  0  0  0
  4  3  1  0  0  0  0
  4  5  1  0  0  0  0
  6  4  2  0  0  0  0
  7  6  1  0  0  0  0
  8  7  2  0  0  0  0
  2  8  1  0  0  0  0
  8  9  1  0  0  0  0
  9 10  1  0  0  0  0
 11 10  2  0  0  0  0
 12 11  1  0  0  0  0
 13 12  2  0  0  0  0
 13 14  1  0  0  0  0
 14 15  1  0  0  0  0
 15 16  1  0  0  0  0
 15 17  1  0  0  0  0
 17 18  1  0  0  0  0
 18 19  1  0  0  0  0
 17 20  2  0  0  0  0
 21 13  1  0  0  0  0
 22 21  2  0  0  0  0
 10 22  1  0  0  0  0
M  END
> <ChemID>
100672

> <CAS>
51338-27-3

> <Original_SMILES>
COC(=O)C(C)Oc1ccc(cc1)Oc1ccc(Cl)cc1Cl

> <preferred_name>
Diclofop-methyl

> <dsstox_substance_id>
DTXSID0032605

> <dsstox_compound_id>
DTXCID8012605

> <qc_level>
DSSTox_Low

> <Canonical_QSARr>
COC(=O)C(C)OC1C=CC(=CC=1)OC1=CC=C(Cl)C=C1Cl

> <InChI_Code_QSARr>
InChI=1S/C16H14Cl2O4/c1-10(16(19)20-2)21-12-4-6-13(7-5-12)22-15-8-3-11(17)9-14(15)18/h3-10H,1-2H3

> <InChI Key_QSARr>
BACHBFVBHLGWSL-UHFFFAOYSA-N

> <Salt_Solvent>


> <Salt_Solvent_ID>
0

> <MPID>
99924

> <KocRef>
Schuurmann-Main

> <LogKOC>
4.2

> <Tr_1_Tst_0>
1

$$$$
100674
  Mrv171c012251911022D          

 30 32  0  0  0  0            999 V2000
    4.1197   -1.3492    0.0000 O   0  0  0  0  0  0  0  0  0  0  0  0
    4.5322   -2.0636    0.0000 C   0  0  0  0  0  0  0  0  0  0  0  0
    4.1197   -2.7781    0.0000 O   0  0  0  0  0  0  0  0  0  0  0  0
    3.2947   -2.7781    0.0000 C   0  0  0  0  0  0  0  0  0  0  0  0
    2.8822   -2.0636    0.0000 C   0  0  0  0  0  0  0  0  0  0  0  0
    2.4697   -1.3492    0.0000 N   0  0  0  0  0  0  0  0  0  0  0  0
    2.8822   -3.4926    0.0000 C   0  0  0  0  0  0  0  0  0  0  0  0
    2.0572   -3.4926    0.0000 C   0  0  0  0  0  0  0  0  0  0  0  0
    1.6447   -4.2070    0.0000 C   0  0  0  0  0  0  0  0  0  0  0  0
    0.8197   -4.2070    0.0000 O   0  0  0  0  0  0  0  0  0  0  0  0
    0.4072   -4.9215    0.0000 C   0  0  0  0  0  0  0  0  0  0  0  0
   -0.4178   -4.9215    0.0000 C   0  0  0  0  0  0  0  0  0  0  0  0
   -0.8303   -5.6360    0.0000 C   0  0  0  0  0  0  0  0  0  0  0  0
   -0.4178   -6.3505    0.0000 C   0  0  0  0  0  0  0  0  0  0  0  0
    0.4072   -6.3505    0.0000 C   0  0  0  0  0  0  0  0  0  0  0  0
    0.8197   -5.6360    0.0000 C   0  0  0  0  0  0  0  0  0  0  0  0
    2.0572   -4.9215    0.0000 C   0  0  0  0  0  0  0  0  0  0  0  0
    2.8822   -4.9215    0.0000 C   0  0  0  0  0  0  0  0  0  0  0  0
    3.2947   -4.2070    0.0000 C   0  0  0  0  0  0  0  0  0  0  0  0
    5.3572   -2.0636    0.0000 C   0  0  0  0  0  0  0  0  0  0  0  0
    5.7697   -2.7781    0.0000 C   0  0  0  0  0  0  0  0  0  0  0  0
    6.5947   -2.7781    0.0000 C   0  0  0  0  0  0  0  0  0  0  0  0
    5.3572   -3.4926    0.0000 C   0  0  0  0  0  0  0  0  0  0  0  0
    5.7697   -1.3492    0.0000 C   0  0  0  0  0  0  0  0  0  0  0  0
    6.5947   -1.3492    0.0000 C   0  0  0  0  0  0  0  0  0  0  0  0
    7.0072   -0.6347    0.0000 C   0  0  0  0  0  0  0  0  0  0  0  0
    6.5947    0.0798    0.0000 C   0  0  0  0  0  0  0  0  0  0  0  0
    7.0072    0.7943    0.0000 Cl  0  0  0  0  0  0  0  0  0  0  0  0
    5.7697    0.0798    0.0000 C   0  0  0  0  0  0  0  0  0  0  0  0
    5.3572   -0.6347    0.0000 C   0  0  0  0  0  0  0  0  0  0  0  0
  1  2  2  0  0  0  0
  2  3  1  0  0  0  0
  3  4  1  0  0  0  0
  4  5  1  0  0  0  0
  5  6  3  0  0  0  0
  4  7  1  0  0  0  0
  8  7  1  0  0  0  0
  9  8  2  0  0  0  0
  9 10  1  0  0  0  0
 10 11  1  0  0  0  0
 12 11  1  0  0  0  0
 13 12  2  0  0  0  0
 14 13  1  0  0  0  0
 15 14  2  0  0  0  0
 16 15  1  0  0  0  0
 11 16  2  0  0  0  0
 17  9  1  0  0  0  0
 18 17  2  0  0  0  0
 19 18  1  0  0  0  0
  7 19  2  0  0  0  0
  2 20  1  0  0  0  0
 20 21  1  0  0  0  0
 21 22  1  0  0  0  0
 21 23  1  0  0  0  0
 20 24  1  0  0  0  0
 25 24  1  0  0  0  0
 26 25  2  0  0  0  0
 27 26  1  0  0  0  0
 27 28  1  0  0  0  0
 29 27  2  0  0  0  0
 30 29  1  0  0  0  0
 24 30  2  0  0  0  0
M  END
> <ChemID>
100674

> <CAS>
51630-58-1|66230-04-4

> <Original_SMILES>
CC(C)C(C(=O)OC(C#N)c1cc(ccc1)Oc1ccccc1)c1ccc(Cl)cc1

> <preferred_name>
Fenvalerate|Esfenvalerate

> <dsstox_substance_id>
DTXSID3020621|DTXSID4032667

> <dsstox_compound_id>
DTXCID30621|DTXCID2012667

> <qc_level>
DSSTox_Low

> <Canonical_QSARr>
CC(C)C(C1=CC=C(Cl)C=C1)C(=O)OC(C#N)C1C=C(C=CC=1)OC1C=CC=CC=1

> <InChI_Code_QSARr>
InChI=1S/C25H22ClNO3/c1-17(2)24(18-11-13-20(26)14-12-18)25(28)30-23(16-27)19-7-6-10-22(15-19)29-21-8-4-3-5-9-21/h3-15,17,23-24H,1-2H3

> <InChI Key_QSARr>
NYPJDWWKZLNGGM-UHFFFAOYSA-N

> <Salt_Solvent>


> <Salt_Solvent_ID>
0

> <MPID>
99925|99955

> <KocRef>
Schuurmann-Main

> <LogKOC>
3.73

> <Tr_1_Tst_0>
1

$$$$
100675
  Mrv171c012251911022D          

 15 16  0  0  0  0            999 V2000
    2.0776   -3.2627    0.0000 S   0  0  0  0  0  0  0  0  0  0  0  0
    1.4102   -2.7778    0.0000 C   0  0  0  0  0  0  0  0  0  0  0  0
    1.4102   -1.9528    0.0000 N   0  0  0  0  0  0  0  0  0  0  0  0
    2.1246   -1.5403    0.0000 C   0  0  0  0  0  0  0  0  0  0  0  0
    2.1246   -0.7153    0.0000 N   0  0  0  0  0  0  0  0  0  0  0  0
    2.8391   -0.3028    0.0000 C   0  0  0  0  0  0  0  0  0  0  0  0
    3.5536   -0.7153    0.0000 C   0  0  0  0  0  0  0  0  0  0  0  0
    4.2680   -0.3028    0.0000 C   0  0  0  0  0  0  0  0  0  0  0  0
    4.2680    0.5222    0.0000 C   0  0  0  0  0  0  0  0  0  0  0  0
    3.5536    0.9347    0.0000 C   0  0  0  0  0  0  0  0  0  0  0  0
    2.8391    0.5222    0.0000 C   0  0  0  0  0  0  0  0  0  0  0  0
    2.8391   -1.9528    0.0000 O   0  0  0  0  0  0  0  0  0  0  0  0
    0.7427   -3.2627    0.0000 C   0  0  0  0  0  0  0  0  0  0  0  0
    0.9977   -4.0474    0.0000 N   0  0  0  0  0  0  0  0  0  0  0  0
    1.8227   -4.0474    0.0000 N   0  0  0  0  0  0  0  0  0  0  0  0
  2  1  1  0  0  0  0
  2  3  1  0  0  0  0
  3  4  1  0  0  0  0
  4  5  1  0  0  0  0
  5  6  1  0  0  0  0
  7  6  1  0  0  0  0
  8  7  2  0  0  0  0
  9  8  1  0  0  0  0
 10  9  2  0  0  0  0
 11 10  1  0  0  0  0
  6 11  2  0  0  0  0
  4 12  2  0  0  0  0
 13  2  2  0  0  0  0
 14 13  1  0  0  0  0
 15 14  2  0  0  0  0
  1 15  1  0  0  0  0
M  END
> <ChemID>
100675

> <CAS>
51707-55-2

> <Original_SMILES>
O=C(Nc1ccccc1)Nc1c[n][n][s]1

> <preferred_name>
Thidiazuron

> <dsstox_substance_id>
DTXSID0032651

> <dsstox_compound_id>
DTXCID8012651

> <qc_level>
DSSTox_Low

> <Canonical_QSARr>
O=C(NC1=CN=NS1)NC1C=CC=CC=1

> <InChI_Code_QSARr>
InChI=1S/C9H8N4OS/c14-9(12-8-6-10-13-15-8)11-7-4-2-1-3-5-7/h1-6H,(H2,11,12,14)

> <InChI Key_QSARr>
HFCYZXMHUIHAQI-UHFFFAOYSA-N

> <Salt_Solvent>


> <Salt_Solvent_ID>
0

> <MPID>
99926

> <KocRef>
Schuurmann-Main

> <LogKOC>
2.04

> <Tr_1_Tst_0>
0

$$$$
100676
  Mrv171c012251911022D          

 28 30  0  0  0  0            999 V2000
    6.6101   -0.3511    0.0000 C   0  0  0  0  0  0  0  0  0  0  0  0
    6.4669   -1.1636    0.0000 C   0  0  0  0  0  0  0  0  0  0  0  0
    5.8349   -0.0690    0.0000 C   0  0  0  0  0  0  0  0  0  0  0  0
    7.4351   -0.3511    0.0000 C   0  0  0  0  0  0  0  0  0  0  0  0
    8.1496   -0.7636    0.0000 C   0  0  0  0  0  0  0  0  0  0  0  0
    8.8641   -0.3511    0.0000 O   0  0  0  0  0  0  0  0  0  0  0  0
    8.1496   -1.5886    0.0000 O   0  0  0  0  0  0  0  0  0  0  0  0
    8.8641   -2.0011    0.0000 C   0  0  0  0  0  0  0  0  0  0  0  0
    8.8641   -2.8261    0.0000 C   0  0  0  0  0  0  0  0  0  0  0  0
    8.1496   -3.2386    0.0000 C   0  0  0  0  0  0  0  0  0  0  0  0
    8.1496   -4.0636    0.0000 C   0  0  0  0  0  0  0  0  0  0  0  0
    8.8641   -4.4761    0.0000 C   0  0  0  0  0  0  0  0  0  0  0  0
    9.5785   -4.0636    0.0000 C   0  0  0  0  0  0  0  0  0  0  0  0
   10.2930   -4.4761    0.0000 O   0  0  0  0  0  0  0  0  0  0  0  0
   10.2930   -5.3011    0.0000 C   0  0  0  0  0  0  0  0  0  0  0  0
    9.5785   -5.7136    0.0000 C   0  0  0  0  0  0  0  0  0  0  0  0
    9.5785   -6.5386    0.0000 C   0  0  0  0  0  0  0  0  0  0  0  0
   10.2930   -6.9511    0.0000 C   0  0  0  0  0  0  0  0  0  0  0  0
   11.0075   -6.5386    0.0000 C   0  0  0  0  0  0  0  0  0  0  0  0
   11.0075   -5.7136    0.0000 C   0  0  0  0  0  0  0  0  0  0  0  0
    9.5785   -3.2386    0.0000 C   0  0  0  0  0  0  0  0  0  0  0  0
    9.5785   -1.5886    0.0000 C   0  0  0  0  0  0  0  0  0  0  0  0
   10.2930   -1.1761    0.0000 N   0  0  0  0  0  0  0  0  0  0  0  0
    7.0226    0.3633    0.0000 C   0  0  0  0  0  0  0  0  0  0  0  0
    7.0226    1.1883    0.0000 C   0  0  0  0  0  0  0  0  0  0  0  0
    6.3082    1.6008    0.0000 C   0  0  0  0  0  0  0  0  0  0  0  0
    5.5937    1.1883    0.0000 Cl  0  0  0  0  0  0  0  0  0  0  0  0
    6.3082    2.4258    0.0000 Cl  0  0  0  0  0  0  0  0  0  0  0  0
  1  2  1  0  0  0  0
  1  3  1  0  0  0  0
  4  1  1  0  0  0  0
  4  5  1  0  0  0  0
  5  6  2  0  0  0  0
  5  7  1  0  0  0  0
  7  8  1  0  0  0  0
  8  9  1  0  0  0  0
 10  9  2  0  0  0  0
 11 10  1  0  0  0  0
 12 11  2  0  0  0  0
 13 12  1  0  0  0  0
 13 14  1  0  0  0  0
 14 15  1  0  0  0  0
 16 15  1  0  0  0  0
 17 16  2  0  0  0  0
 18 17  1  0  0  0  0
 19 18  2  0  0  0  0
 20 19  1  0  0  0  0
 15 20  2  0  0  0  0
 21 13  2  0  0  0  0
  9 21  1  0  0  0  0
  8 22  1  0  0  0  0
 22 23  3  0  0  0  0
 24  4  1  0  0  0  0
  1 24  1  0  0  0  0
 24 25  1  0  0  0  0
 25 26  2  0  0  0  0
 26 27  1  0  0  0  0
 26 28  1  0  0  0  0
M  END
> <ChemID>
100676

> <CAS>
52315-07-8

> <Original_SMILES>
CC1(C)C(C1C=C(Cl)Cl)C(=O)OC(C#N)c1cccc(c1)Oc1ccccc1

> <preferred_name>
Cypermethrin

> <dsstox_substance_id>
DTXSID1023998

> <dsstox_compound_id>
DTXCID003998

> <qc_level>
DSSTox_High

> <Canonical_QSARr>
CC1(C)C(C1C=C(Cl)Cl)C(=O)OC(C#N)C1C=C(C=CC=1)OC1C=CC=CC=1

> <InChI_Code_QSARr>
InChI=1S/C22H19Cl2NO3/c1-22(2)17(12-19(23)24)20(22)21(26)28-18(13-25)14-7-6-10-16(11-14)27-15-8-4-3-5-9-15/h3-12,17-18,20H,1-2H3

> <InChI Key_QSARr>
KAATUXNTWXVJKI-UHFFFAOYSA-N

> <Salt_Solvent>


> <Salt_Solvent_ID>
0

> <MPID>
99927

> <KocRef>
Schuurmann-Main

> <LogKOC>
5.0

> <Tr_1_Tst_0>
1

$$$$
100677
  Mrv171c012251911022D          

 26 28  0  0  0  0            999 V2000
    4.9043   -2.2704    0.0000 C   0  0  0  0  0  0  0  0  0  0  0  0
    4.1899   -1.8579    0.0000 C   0  0  0  0  0  0  0  0  0  0  0  0
    4.1899   -1.0329    0.0000 C   0  0  0  0  0  0  0  0  0  0  0  0
    4.9043   -0.6204    0.0000 O   0  0  0  0  0  0  0  0  0  0  0  0
    4.9043    0.2046    0.0000 C   0  0  0  0  0  0  0  0  0  0  0  0
    5.6188    0.6171    0.0000 C   0  0  0  0  0  0  0  0  0  0  0  0
    6.4438    0.6171    0.0000 C   0  0  0  0  0  0  0  0  0  0  0  0
    7.1583    0.2046    0.0000 C   0  0  0  0  0  0  0  0  0  0  0  0
    7.8728    0.6171    0.0000 C   0  0  0  0  0  0  0  0  0  0  0  0
    7.8728    1.4421    0.0000 Cl  0  0  0  0  0  0  0  0  0  0  0  0
    8.5872    0.2046    0.0000 Cl  0  0  0  0  0  0  0  0  0  0  0  0
    6.0313    1.3316    0.0000 C   0  0  0  0  0  0  0  0  0  0  0  0
    6.5045    2.0074    0.0000 C   0  0  0  0  0  0  0  0  0  0  0  0
    5.5581    2.0074    0.0000 C   0  0  0  0  0  0  0  0  0  0  0  0
    4.1899    0.6171    0.0000 O   0  0  0  0  0  0  0  0  0  0  0  0
    3.4754   -2.2704    0.0000 C   0  0  0  0  0  0  0  0  0  0  0  0
    3.4754   -3.0954    0.0000 C   0  0  0  0  0  0  0  0  0  0  0  0
    2.7609   -3.5079    0.0000 O   0  0  0  0  0  0  0  0  0  0  0  0
    2.7609   -4.3329    0.0000 C   0  0  0  0  0  0  0  0  0  0  0  0
    2.0465   -4.7454    0.0000 C   0  0  0  0  0  0  0  0  0  0  0  0
    2.0465   -5.5704    0.0000 C   0  0  0  0  0  0  0  0  0  0  0  0
    2.7609   -5.9829    0.0000 C   0  0  0  0  0  0  0  0  0  0  0  0
    3.4754   -5.5704    0.0000 C   0  0  0  0  0  0  0  0  0  0  0  0
    3.4754   -4.7454    0.0000 C   0  0  0  0  0  0  0  0  0  0  0  0
    4.1899   -3.5079    0.0000 C   0  0  0  0  0  0  0  0  0  0  0  0
    4.9043   -3.0954    0.0000 C   0  0  0  0  0  0  0  0  0  0  0  0
  2  1  1  0  0  0  0
  2  3  1  0  0  0  0
  3  4  1  0  0  0  0
  4  5  1  0  0  0  0
  5  6  1  0  0  0  0
  7  6  1  0  0  0  0
  7  8  1  0  0  0  0
  8  9  2  0  0  0  0
  9 10  1  0  0  0  0
  9 11  1  0  0  0  0
 12  7  1  0  0  0  0
  6 12  1  0  0  0  0
 12 13  1  0  0  0  0
 12 14  1  0  0  0  0
  5 15  2  0  0  0  0
 16  2  2  0  0  0  0
 17 16  1  0  0  0  0
 17 18  1  0  0  0  0
 18 19  1  0  0  0  0
 20 19  1  0  0  0  0
 21 20  2  0  0  0  0
 22 21  1  0  0  0  0
 23 22  2  0  0  0  0
 24 23  1  0  0  0  0
 19 24  2  0  0  0  0
 25 17  2  0  0  0  0
 26 25  1  0  0  0  0
  1 26  2  0  0  0  0
M  END
> <ChemID>
100677

> <CAS>
52645-53-1

> <Original_SMILES>
CC1(C)C(C1C=C(Cl)Cl)C(=O)OCc1cccc(c1)Oc1ccccc1

> <preferred_name>
Permethrin

> <dsstox_substance_id>
DTXSID8022292

> <dsstox_compound_id>
DTXCID102292

> <qc_level>
DSSTox_High

> <Canonical_QSARr>
CC1(C)C(C1C=C(Cl)Cl)C(=O)OCC1C=CC=C(C=1)OC1C=CC=CC=1

> <InChI_Code_QSARr>
InChI=1S/C21H20Cl2O3/c1-21(2)17(12-18(22)23)19(21)20(24)25-13-14-7-6-10-16(11-14)26-15-8-4-3-5-9-15/h3-12,17,19H,13H2,1-2H3

> <InChI Key_QSARr>
RLLPVAHGXHCWKJ-UHFFFAOYSA-N

> <Salt_Solvent>


> <Salt_Solvent_ID>
0

> <MPID>
99928

> <KocRef>
Schuurmann-Main

> <LogKOC>
4.8

> <Tr_1_Tst_0>
1

$$$$
100678
  Mrv171c012251911022D          

 19 20  0  0  0  0            999 V2000
    0.6017    1.8671    0.0000 C   0  0  0  0  0  0  0  0  0  0  0  0
   -0.1128    2.2796    0.0000 C   0  0  0  0  0  0  0  0  0  0  0  0
   -0.1128    3.1046    0.0000 Cl  0  0  0  0  0  0  0  0  0  0  0  0
   -0.8273    1.8671    0.0000 C   0  0  0  0  0  0  0  0  0  0  0  0
   -1.5418    2.2796    0.0000 Cl  0  0  0  0  0  0  0  0  0  0  0  0
   -0.8273    1.0421    0.0000 C   0  0  0  0  0  0  0  0  0  0  0  0
   -1.5418    0.6296    0.0000 Cl  0  0  0  0  0  0  0  0  0  0  0  0
   -0.1128    0.6296    0.0000 C   0  0  0  0  0  0  0  0  0  0  0  0
   -0.1128   -0.1954    0.0000 Cl  0  0  0  0  0  0  0  0  0  0  0  0
    0.6017    1.0421    0.0000 C   0  0  0  0  0  0  0  0  0  0  0  0
    1.3161    0.6296    0.0000 Cl  0  0  0  0  0  0  0  0  0  0  0  0
    1.3161    2.2796    0.0000 C   0  0  0  0  0  0  0  0  0  0  0  0
    2.0306    1.8671    0.0000 C   0  0  0  0  0  0  0  0  0  0  0  0
    2.7451    2.2796    0.0000 C   0  0  0  0  0  0  0  0  0  0  0  0
    3.4595    1.8671    0.0000 Cl  0  0  0  0  0  0  0  0  0  0  0  0
    2.7451    3.1046    0.0000 C   0  0  0  0  0  0  0  0  0  0  0  0
    2.0306    3.5171    0.0000 C   0  0  0  0  0  0  0  0  0  0  0  0
    1.3161    3.1046    0.0000 C   0  0  0  0  0  0  0  0  0  0  0  0
    0.6017    3.5171    0.0000 Cl  0  0  0  0  0  0  0  0  0  0  0  0
  2  1  1  0  0  0  0
  2  3  1  0  0  0  0
  4  2  2  0  0  0  0
  4  5  1  0  0  0  0
  6  4  1  0  0  0  0
  6  7  1  0  0  0  0
  8  6  2  0  0  0  0
  8  9  1  0  0  0  0
 10  8  1  0  0  0  0
  1 10  2  0  0  0  0
 10 11  1  0  0  0  0
  1 12  1  0  0  0  0
 13 12  1  0  0  0  0
 14 13  2  0  0  0  0
 14 15  1  0  0  0  0
 16 14  1  0  0  0  0
 17 16  2  0  0  0  0
 18 17  1  0  0  0  0
 12 18  2  0  0  0  0
 18 19  1  0  0  0  0
M  END
> <ChemID>
100678

> <CAS>
52712-05-7

> <Original_SMILES>
Clc1cc(-c2c(Cl)c(Cl)c(Cl)c(Cl)c2Cl)c(Cl)cc1

> <preferred_name>
2,2',3,4,5,5',6-Heptachlorobiphenyl

> <dsstox_substance_id>
DTXSID1074175

> <dsstox_compound_id>
DTXCID0041272

> <qc_level>
Public_High

> <Canonical_QSARr>
ClC1=CC(C2C(Cl)=C(Cl)C(Cl)=C(Cl)C=2Cl)=C(Cl)C=C1

> <InChI_Code_QSARr>
InChI=1S/C12H3Cl7/c13-4-1-2-6(14)5(3-4)7-8(15)10(17)12(19)11(18)9(7)16/h1-3H

> <InChI Key_QSARr>
PYZHTHZEHQHHEN-UHFFFAOYSA-N

> <Salt_Solvent>


> <Salt_Solvent_ID>
0

> <MPID>
99929

> <KocRef>
Schuurmann-Main

> <LogKOC>
5.95

> <Tr_1_Tst_0>
1

$$$$
100679
  Mrv171c012251911022D          

 21 21  0  0  0  0            999 V2000
    1.4296   -0.0094    0.0000 Cl  0  0  0  0  0  0  0  0  0  0  0  0
    1.4296   -0.8344    0.0000 C   0  0  0  0  0  0  0  0  0  0  0  0
    0.7151   -1.2469    0.0000 C   0  0  0  0  0  0  0  0  0  0  0  0
    0.7151   -2.0719    0.0000 C   0  0  0  0  0  0  0  0  0  0  0  0
    0.0006   -2.4844    0.0000 Cl  0  0  0  0  0  0  0  0  0  0  0  0
    1.4296   -2.4844    0.0000 C   0  0  0  0  0  0  0  0  0  0  0  0
    2.1440   -2.0719    0.0000 C   0  0  0  0  0  0  0  0  0  0  0  0
    2.1440   -1.2469    0.0000 C   0  0  0  0  0  0  0  0  0  0  0  0
    2.8585   -0.8344    0.0000 O   0  0  0  0  0  0  0  0  0  0  0  0
    3.5730   -1.2469    0.0000 C   0  0  0  0  0  0  0  0  0  0  0  0
    3.5730   -2.0719    0.0000 C   0  0  0  0  0  0  0  0  0  0  0  0
    4.2874   -0.8344    0.0000 C   0  0  0  0  0  0  0  0  0  0  0  0
    5.0019   -1.2469    0.0000 O   0  0  0  0  0  0  0  0  0  0  0  0
    5.7164   -0.8344    0.0000 C   0  0  0  0  0  0  0  0  0  0  0  0
    6.4308   -1.2469    0.0000 C   0  0  0  0  0  0  0  0  0  0  0  0
    7.1453   -0.8344    0.0000 O   0  0  0  0  0  0  0  0  0  0  0  0
    7.8598   -1.2469    0.0000 C   0  0  0  0  0  0  0  0  0  0  0  0
    8.5743   -0.8344    0.0000 C   0  0  0  0  0  0  0  0  0  0  0  0
    9.2887   -1.2469    0.0000 C   0  0  0  0  0  0  0  0  0  0  0  0
   10.0032   -0.8344    0.0000 C   0  0  0  0  0  0  0  0  0  0  0  0
    4.2874   -0.0094    0.0000 O   0  0  0  0  0  0  0  0  0  0  0  0
  1  2  1  0  0  0  0
  3  2  1  0  0  0  0
  4  3  2  0  0  0  0
  4  5  1  0  0  0  0
  6  4  1  0  0  0  0
  7  6  2  0  0  0  0
  8  7  1  0  0  0  0
  2  8  2  0  0  0  0
  8  9  1  0  0  0  0
  9 10  1  0  0  0  0
 10 11  1  0  0  0  0
 10 12  1  0  0  0  0
 12 13  1  0  0  0  0
 13 14  1  0  0  0  0
 14 15  1  0  0  0  0
 15 16  1  0  0  0  0
 16 17  1  0  0  0  0
 17 18  1  0  0  0  0
 18 19  1  0  0  0  0
 19 20  1  0  0  0  0
 12 21  2  0  0  0  0
M  END
> <ChemID>
100679

> <CAS>
53404-31-2

> <Original_SMILES>
CCCCOCCOC(=O)C(C)Oc1ccc(Cl)cc1Cl

> <preferred_name>
Dichlorprop butoxyethyl ester

> <dsstox_substance_id>
DTXSID0041858

> <dsstox_compound_id>
DTXCID8021858

> <qc_level>
DSSTox_Low

> <Canonical_QSARr>
CCCCOCCOC(=O)C(C)OC1C=CC(Cl)=CC=1Cl

> <InChI_Code_QSARr>
InChI=1S/C15H20Cl2O4/c1-3-4-7-19-8-9-20-15(18)11(2)21-14-6-5-12(16)10-13(14)17/h5-6,10-11H,3-4,7-9H2,1-2H3

> <InChI Key_QSARr>
NCMJQZVNCFTQPG-UHFFFAOYSA-N

> <Salt_Solvent>


> <Salt_Solvent_ID>
0

> <MPID>
99930

> <KocRef>
Schuurmann-Main

> <LogKOC>
3.0

> <Tr_1_Tst_0>
0

$$$$
100680
  Mrv171c012251911022D          

 20 20  0  0  0  0            999 V2000
    3.5000   -0.6990    0.0000 S   0  0  0  0  0  0  0  0  0  0  0  0
    4.3250   -0.6990    0.0000 O   0  0  0  0  0  0  0  0  0  0  0  0
    2.6750   -0.6990    0.0000 O   0  0  0  0  0  0  0  0  0  0  0  0
    3.5000   -1.5240    0.0000 N   0  0  0  0  0  0  0  0  0  0  0  0
    2.7856   -1.9365    0.0000 C   0  0  0  0  0  0  0  0  0  0  0  0
    2.0711   -1.5240    0.0000 C   0  0  0  0  0  0  0  0  0  0  0  0
    2.0711   -0.6990    0.0000 C   0  0  0  0  0  0  0  0  0  0  0  0
    1.3566   -1.9365    0.0000 C   0  0  0  0  0  0  0  0  0  0  0  0
    1.3566   -2.7615    0.0000 C   0  0  0  0  0  0  0  0  0  0  0  0
    0.6422   -3.1740    0.0000 C   0  0  0  0  0  0  0  0  0  0  0  0
    2.0711   -3.1740    0.0000 C   0  0  0  0  0  0  0  0  0  0  0  0
    2.0711   -3.9990    0.0000 N   0  0  0  0  0  0  0  0  0  0  0  0
    1.3566   -4.4115    0.0000 C   0  0  0  0  0  0  0  0  0  0  0  0
    1.3566   -5.2365    0.0000 C   0  0  0  0  0  0  0  0  0  0  0  0
    0.6422   -3.9990    0.0000 O   0  0  0  0  0  0  0  0  0  0  0  0
    2.7856   -2.7615    0.0000 C   0  0  0  0  0  0  0  0  0  0  0  0
    3.5000    0.1260    0.0000 C   0  0  0  0  0  0  0  0  0  0  0  0
    3.5000    0.9510    0.0000 F   0  0  0  0  0  0  0  0  0  0  0  0
    4.3250    0.1260    0.0000 F   0  0  0  0  0  0  0  0  0  0  0  0
    2.6750    0.1260    0.0000 F   0  0  0  0  0  0  0  0  0  0  0  0
  1  2  2  0  0  0  0
  1  3  2  0  0  0  0
  1  4  1  0  0  0  0
  4  5  1  0  0  0  0
  6  5  2  0  0  0  0
  6  7  1  0  0  0  0
  8  6  1  0  0  0  0
  9  8  2  0  0  0  0
  9 10  1  0  0  0  0
 11  9  1  0  0  0  0
 11 12  1  0  0  0  0
 12 13  1  0  0  0  0
 13 14  1  0  0  0  0
 13 15  2  0  0  0  0
 16 11  2  0  0  0  0
  5 16  1  0  0  0  0
  1 17  1  0  0  0  0
 17 18  1  0  0  0  0
 17 19  1  0  0  0  0
 17 20  1  0  0  0  0
M  END
> <ChemID>
100680

> <CAS>
53780-34-0

> <Original_SMILES>
CC(=O)Nc1cc(NS(=O)(=O)C(F)(F)F)c(C)cc1C

> <preferred_name>
Mefluidide

> <dsstox_substance_id>
DTXSID7034709

> <dsstox_compound_id>
DTXCID5014709

> <qc_level>
DSSTox_Low

> <Canonical_QSARr>
CC(=O)NC1=CC(NS(=O)(=O)C(F)(F)F)=C(C)C=C1C

> <InChI_Code_QSARr>
InChI=1S/C11H13F3N2O3S/c1-6-4-7(2)10(5-9(6)15-8(3)17)16-20(18,19)11(12,13)14/h4-5,16H,1-3H3,(H,15,17)

> <InChI Key_QSARr>
OKIBNKKYNPBDRS-UHFFFAOYSA-N

> <Salt_Solvent>


> <Salt_Solvent_ID>
0

> <MPID>
99931

> <KocRef>
USDA Pest Prop DB

> <LogKOC>
2.3

> <Tr_1_Tst_0>
1

$$$$
100681
  Mrv171c012251911022D          

 15 14  0  0  0  0            999 V2000
    1.7399   -1.1025    0.0000 S   0  0  0  0  0  0  0  0  0  0  0  0
    2.1524   -1.8170    0.0000 P   0  0  0  0  0  0  0  0  0  0  0  0
    1.4379   -2.2295    0.0000 O   0  0  0  0  0  0  0  0  0  0  0  0
    0.7234   -1.8170    0.0000 C   0  0  0  0  0  0  0  0  0  0  0  0
    0.7234   -0.9920    0.0000 Cl  0  0  0  0  0  0  0  0  0  0  0  0
    0.0089   -2.2295    0.0000 C   0  0  0  0  0  0  0  0  0  0  0  0
   -0.7055   -2.6420    0.0000 Cl  0  0  0  0  0  0  0  0  0  0  0  0
    0.4214   -2.9440    0.0000 Cl  0  0  0  0  0  0  0  0  0  0  0  0
   -0.4036   -1.5150    0.0000 Cl  0  0  0  0  0  0  0  0  0  0  0  0
    2.8668   -1.4045    0.0000 O   0  0  0  0  0  0  0  0  0  0  0  0
    3.5813   -1.8170    0.0000 C   0  0  0  0  0  0  0  0  0  0  0  0
    4.2958   -1.4045    0.0000 C   0  0  0  0  0  0  0  0  0  0  0  0
    2.5649   -2.5315    0.0000 O   0  0  0  0  0  0  0  0  0  0  0  0
    2.1524   -3.2459    0.0000 C   0  0  0  0  0  0  0  0  0  0  0  0
    1.3274   -3.2459    0.0000 C   0  0  0  0  0  0  0  0  0  0  0  0
  1  2  2  0  0  0  0
  2  3  1  0  0  0  0
  3  4  1  0  0  0  0
  4  5  1  0  0  0  0
  4  6  1  0  0  0  0
  6  7  1  0  0  0  0
  6  8  1  0  0  0  0
  6  9  1  0  0  0  0
  2 10  1  0  0  0  0
 10 11  1  0  0  0  0
 11 12  1  0  0  0  0
  2 13  1  0  0  0  0
 13 14  1  0  0  0  0
 14 15  1  0  0  0  0
M  END
> <ChemID>
100681

> <CAS>
54593-83-8

> <Original_SMILES>
CCOP(=S)(OC(Cl)C(Cl)(Cl)Cl)OCC

> <preferred_name>
Chlorethoxyfos

> <dsstox_substance_id>
DTXSID2032344

> <dsstox_compound_id>
DTXCID0012344

> <qc_level>
DSSTox_Low

> <Canonical_QSARr>
CCOP(=S)(OC(Cl)C(Cl)(Cl)Cl)OCC

> <InChI_Code_QSARr>
InChI=1S/C6H11Cl4O3PS/c1-3-11-14(15,12-4-2)13-5(7)6(8,9)10/h5H,3-4H2,1-2H3

> <InChI Key_QSARr>
XFDJMIHUAHSGKG-UHFFFAOYSA-N

> <Salt_Solvent>


> <Salt_Solvent_ID>
0

> <MPID>
99932

> <KocRef>
USDA Pest Prop DB

> <LogKOC>
3.6

> <Tr_1_Tst_0>
1

$$$$
100682
  Mrv171c012251911022D          

 20 21  0  0  0  0            999 V2000
    3.0624   -2.8021    0.0000 C   0  0  0  0  0  0  0  0  0  0  0  0
    3.0624   -3.6271    0.0000 N   0  0  0  0  0  0  0  0  0  0  0  0
    3.7298   -4.1120    0.0000 C   0  0  0  0  0  0  0  0  0  0  0  0
    3.4749   -4.8966    0.0000 N   0  0  0  0  0  0  0  0  0  0  0  0
    2.6499   -4.8966    0.0000 C   0  0  0  0  0  0  0  0  0  0  0  0
    2.3949   -4.1120    0.0000 N   0  0  0  0  0  0  0  0  0  0  0  0
    3.7768   -2.3896    0.0000 O   0  0  0  0  0  0  0  0  0  0  0  0
    3.7768   -1.5646    0.0000 C   0  0  0  0  0  0  0  0  0  0  0  0
    4.4913   -1.1521    0.0000 C   0  0  0  0  0  0  0  0  0  0  0  0
    4.4913   -0.3271    0.0000 C   0  0  0  0  0  0  0  0  0  0  0  0
    3.7768    0.0854    0.0000 C   0  0  0  0  0  0  0  0  0  0  0  0
    3.7768    0.9104    0.0000 Cl  0  0  0  0  0  0  0  0  0  0  0  0
    3.0624   -0.3271    0.0000 C   0  0  0  0  0  0  0  0  0  0  0  0
    3.0624   -1.1521    0.0000 C   0  0  0  0  0  0  0  0  0  0  0  0
    2.3479   -2.3896    0.0000 C   0  0  0  0  0  0  0  0  0  0  0  0
    2.3479   -1.5646    0.0000 O   0  0  0  0  0  0  0  0  0  0  0  0
    1.6334   -2.8021    0.0000 C   0  0  0  0  0  0  0  0  0  0  0  0
    1.2209   -2.0876    0.0000 C   0  0  0  0  0  0  0  0  0  0  0  0
    2.0459   -3.5166    0.0000 C   0  0  0  0  0  0  0  0  0  0  0  0
    0.9190   -3.2146    0.0000 C   0  0  0  0  0  0  0  0  0  0  0  0
  1  2  1  0  0  0  0
  3  2  1  0  0  0  0
  4  3  2  0  0  0  0
  5  4  1  0  0  0  0
  6  5  2  0  0  0  0
  2  6  1  0  0  0  0
  1  7  1  0  0  0  0
  7  8  1  0  0  0  0
  9  8  1  0  0  0  0
 10  9  2  0  0  0  0
 11 10  1  0  0  0  0
 11 12  1  0  0  0  0
 13 11  2  0  0  0  0
 14 13  1  0  0  0  0
  8 14  2  0  0  0  0
  1 15  1  0  0  0  0
 15 16  1  0  0  0  0
 15 17  1  0  0  0  0
 17 18  1  0  0  0  0
 17 19  1  0  0  0  0
 17 20  1  0  0  0  0
M  END
> <ChemID>
100682

> <CAS>
55219-65-3

> <Original_SMILES>
CC(C)(C)C(O)C(Oc1ccc(Cl)cc1)[n]1c[n]c[n]1

> <preferred_name>
Triadimenol

> <dsstox_substance_id>
DTXSID0032493

> <dsstox_compound_id>
DTXCID8012493

> <qc_level>
DSSTox_Low

> <Canonical_QSARr>
CC(C)(C)C(O)C(OC1=CC=C(Cl)C=C1)N1C=NC=N1

> <InChI_Code_QSARr>
InChI=1S/C14H18ClN3O2/c1-14(2,3)12(19)13(18-9-16-8-17-18)20-11-6-4-10(15)5-7-11/h4-9,12-13,19H,1-3H3

> <InChI Key_QSARr>
BAZVSMNPJJMILC-UHFFFAOYSA-N

> <Salt_Solvent>


> <Salt_Solvent_ID>
0

> <MPID>
99933

> <KocRef>
USDA Pest Prop DB

> <LogKOC>
2.7

> <Tr_1_Tst_0>
1

$$$$
100683
  Mrv171c012251911022D          

 23 23  0  0  0  0            999 V2000
    2.8630   -1.1754    0.0000 C   0  0  0  0  0  0  0  0  0  0  0  0
    2.1485   -0.7629    0.0000 C   0  0  0  0  0  0  0  0  0  0  0  0
    1.4341   -1.1754    0.0000 C   0  0  0  0  0  0  0  0  0  0  0  0
    0.7196   -0.7629    0.0000 C   0  0  0  0  0  0  0  0  0  0  0  0
    0.0051   -0.3504    0.0000 F   0  0  0  0  0  0  0  0  0  0  0  0
    0.3071   -1.4774    0.0000 F   0  0  0  0  0  0  0  0  0  0  0  0
    1.1321   -0.0484    0.0000 F   0  0  0  0  0  0  0  0  0  0  0  0
    1.4341   -2.0004    0.0000 C   0  0  0  0  0  0  0  0  0  0  0  0
    2.1485   -2.4129    0.0000 C   0  0  0  0  0  0  0  0  0  0  0  0
    2.1485   -3.2379    0.0000 N   0  3  0  0  0  0  0  0  0  0  0  0
    2.8630   -3.6504    0.0000 O   0  0  0  0  0  0  0  0  0  0  0  0
    1.4341   -3.6504    0.0000 O   0  5  0  0  0  0  0  0  0  0  0  0
    2.8630   -2.0004    0.0000 C   0  0  0  0  0  0  0  0  0  0  0  0
    3.5775   -2.4129    0.0000 N   0  0  0  0  0  0  0  0  0  0  0  0
    3.5775   -3.2379    0.0000 C   0  0  0  0  0  0  0  0  0  0  0  0
    4.2919   -3.6504    0.0000 C   0  0  0  0  0  0  0  0  0  0  0  0
    4.2919   -2.0004    0.0000 C   0  0  0  0  0  0  0  0  0  0  0  0
    5.0064   -2.4129    0.0000 C   0  0  0  0  0  0  0  0  0  0  0  0
    5.7209   -2.0004    0.0000 C   0  0  0  0  0  0  0  0  0  0  0  0
    5.0064   -3.2379    0.0000 C   0  0  0  0  0  0  0  0  0  0  0  0
    3.5775   -0.7629    0.0000 N   0  3  0  0  0  0  0  0  0  0  0  0
    4.2919   -1.1754    0.0000 O   0  0  0  0  0  0  0  0  0  0  0  0
    3.5775    0.0621    0.0000 O   0  5  0  0  0  0  0  0  0  0  0  0
  2  1  1  0  0  0  0
  3  2  2  0  0  0  0
  3  4  1  0  0  0  0
  4  5  1  0  0  0  0
  4  6  1  0  0  0  0
  4  7  1  0  0  0  0
  8  3  1  0  0  0  0
  9  8  2  0  0  0  0
  9 10  1  0  0  0  0
 10 11  2  0  0  0  0
 10 12  1  0  0  0  0
 13  9  1  0  0  0  0
  1 13  2  0  0  0  0
 13 14  1  0  0  0  0
 14 15  1  0  0  0  0
 15 16  1  0  0  0  0
 14 17  1  0  0  0  0
 17 18  1  0  0  0  0
 18 19  1  0  0  0  0
 18 20  2  0  0  0  0
  1 21  1  0  0  0  0
 21 22  2  0  0  0  0
 21 23  1  0  0  0  0
M  CHG  4  10   1  12  -1  21   1  23  -1
M  END
> <ChemID>
100683

> <CAS>
55283-68-6

> <Original_SMILES>
CC(=C)CN(CC)c1c(cc(cc1[N+]([O-])=O)C(F)(F)F)[N+]([O-])=O

> <preferred_name>
Ethalfluralin

> <dsstox_substance_id>
DTXSID8032386

> <dsstox_compound_id>
DTXCID6012386

> <qc_level>
DSSTox_Low

> <Canonical_QSARr>
CC(=C)CN(CC)C1C(=CC(=CC=1[N+]([O-])=O)C(F)(F)F)[N+]([O-])=O

> <InChI_Code_QSARr>
InChI=1S/C13H14F3N3O4/c1-4-17(7-8(2)3)12-10(18(20)21)5-9(13(14,15)16)6-11(12)19(22)23/h5-6H,2,4,7H2,1,3H3

> <InChI Key_QSARr>
PTFJIKYUEPWBMS-UHFFFAOYSA-N

> <Salt_Solvent>


> <Salt_Solvent_ID>
0

> <MPID>
99934

> <KocRef>
Schuurmann-Main

> <LogKOC>
3.6

> <Tr_1_Tst_0>
0

$$$$
100684
  Mrv171c012251911022D          

 12 12  0  0  0  0            999 V2000
    1.2032   -2.3368    0.0000 S   0  0  0  0  0  0  0  0  0  0  0  0
    1.7335   -2.9688    0.0000 O   0  0  0  0  0  0  0  0  0  0  0  0
    0.6729   -2.9688    0.0000 O   0  0  0  0  0  0  0  0  0  0  0  0
    1.9177   -1.9243    0.0000 C   0  0  0  0  0  0  0  0  0  0  0  0
    1.9177   -1.0993    0.0000 C   0  0  0  0  0  0  0  0  0  0  0  0
    1.2032   -0.6868    0.0000 S   0  0  0  0  0  0  0  0  0  0  0  0
    1.7335   -0.0548    0.0000 O   0  0  0  0  0  0  0  0  0  0  0  0
    0.6729   -0.0548    0.0000 O   0  0  0  0  0  0  0  0  0  0  0  0
    0.4887   -1.0993    0.0000 C   0  0  0  0  0  0  0  0  0  0  0  0
   -0.2257   -0.6868    0.0000 C   0  0  0  0  0  0  0  0  0  0  0  0
    0.4887   -1.9243    0.0000 C   0  0  0  0  0  0  0  0  0  0  0  0
   -0.2257   -2.3368    0.0000 C   0  0  0  0  0  0  0  0  0  0  0  0
  1  2  2  0  0  0  0
  1  3  2  0  0  0  0
  4  1  1  0  0  0  0
  5  4  1  0  0  0  0
  6  5  1  0  0  0  0
  6  7  2  0  0  0  0
  6  8  2  0  0  0  0
  9  6  1  0  0  0  0
  9 10  1  0  0  0  0
 11  9  2  0  0  0  0
  1 11  1  0  0  0  0
 11 12  1  0  0  0  0
M  END
> <ChemID>
100684

> <CAS>
55290-64-7

> <Original_SMILES>
CC1=C(C)S(=O)(=O)CCS1(=O)=O

> <preferred_name>
Dimethipin

> <dsstox_substance_id>
DTXSID0024052

> <dsstox_compound_id>
DTXCID704052

> <qc_level>
DSSTox_Low

> <Canonical_QSARr>
CC1=C(C)S(=O)(=O)CCS1(=O)=O

> <InChI_Code_QSARr>
InChI=1S/C6H10O4S2/c1-5-6(2)12(9,10)4-3-11(5,7)8/h3-4H2,1-2H3

> <InChI Key_QSARr>
PHVNLLCAQHGNKU-UHFFFAOYSA-N

> <Salt_Solvent>


> <Salt_Solvent_ID>
0

> <MPID>
99935

> <KocRef>
Schuurmann-Main

> <LogKOC>
0.48

> <Tr_1_Tst_0>
1

$$$$
100685
  Mrv171c012251911022D          

 14 14  0  0  0  0            999 V2000
    2.1382   -0.7967    0.0000 N   0  0  0  0  0  0  0  0  0  0  0  0
    1.4237   -0.3842    0.0000 C   0  0  0  0  0  0  0  0  0  0  0  0
    1.4237    0.4408    0.0000 Cl  0  0  0  0  0  0  0  0  0  0  0  0
    0.7093   -0.7967    0.0000 C   0  0  0  0  0  0  0  0  0  0  0  0
   -0.0052   -0.3842    0.0000 Cl  0  0  0  0  0  0  0  0  0  0  0  0
    0.7093   -1.6217    0.0000 C   0  0  0  0  0  0  0  0  0  0  0  0
    1.4237   -2.0342    0.0000 C   0  0  0  0  0  0  0  0  0  0  0  0
    1.4237   -2.8592    0.0000 Cl  0  0  0  0  0  0  0  0  0  0  0  0
    2.1382   -1.6217    0.0000 C   0  0  0  0  0  0  0  0  0  0  0  0
    2.8527   -2.0342    0.0000 O   0  0  0  0  0  0  0  0  0  0  0  0
    3.5672   -1.6217    0.0000 C   0  0  0  0  0  0  0  0  0  0  0  0
    4.2816   -2.0342    0.0000 C   0  0  0  0  0  0  0  0  0  0  0  0
    4.9961   -1.6217    0.0000 O   0  0  0  0  0  0  0  0  0  0  0  0
    4.2816   -2.8592    0.0000 O   0  0  0  0  0  0  0  0  0  0  0  0
  2  1  2  0  0  0  0
  2  3  1  0  0  0  0
  4  2  1  0  0  0  0
  4  5  1  0  0  0  0
  6  4  2  0  0  0  0
  7  6  1  0  0  0  0
  7  8  1  0  0  0  0
  9  7  2  0  0  0  0
  1  9  1  0  0  0  0
  9 10  1  0  0  0  0
 10 11  1  0  0  0  0
 11 12  1  0  0  0  0
 12 13  1  0  0  0  0
 12 14  2  0  0  0  0
M  END
> <ChemID>
100685

> <CAS>
55335-06-3

> <Original_SMILES>
OC(=O)COc1[n]c(Cl)c(Cl)cc1Cl

> <preferred_name>
Triclopyr

> <dsstox_substance_id>
DTXSID0032497

> <dsstox_compound_id>
DTXCID8012497

> <qc_level>
DSSTox_Low

> <Canonical_QSARr>
OC(=O)COC1N=C(Cl)C(Cl)=CC=1Cl

> <InChI_Code_QSARr>
InChI=1S/C7H4Cl3NO3/c8-3-1-4(9)7(11-6(3)10)14-2-5(12)13/h1H,2H2,(H,12,13)

> <InChI Key_QSARr>
REEQLXCGVXDJSQ-UHFFFAOYSA-N

> <Salt_Solvent>


> <Salt_Solvent_ID>
0

> <MPID>
99936

> <KocRef>
Schuurmann-Main

> <LogKOC>
1.67

> <Tr_1_Tst_0>
1

$$$$
100686
  Mrv171c012251911022D          

 15 15  0  0  0  0            999 V2000
    3.4041   -2.0169    0.0000 C   0  0  0  0  0  0  0  0  0  0  0  0
    2.5836   -2.1032    0.0000 N   0  0  0  0  0  0  0  0  0  0  0  0
    2.0987   -1.4357    0.0000 C   0  0  0  0  0  0  0  0  0  0  0  0
    2.3536   -0.6511    0.0000 C   0  0  0  0  0  0  0  0  0  0  0  0
    1.6862   -0.1662    0.0000 C   0  0  0  0  0  0  0  0  0  0  0  0
    1.6862    0.6588    0.0000 C   0  0  0  0  0  0  0  0  0  0  0  0
    1.6862    1.4838    0.0000 C   0  0  0  0  0  0  0  0  0  0  0  0
    0.8612    0.6588    0.0000 C   0  0  0  0  0  0  0  0  0  0  0  0
    2.5112    0.6588    0.0000 C   0  0  0  0  0  0  0  0  0  0  0  0
    1.0187   -0.6511    0.0000 O   0  0  0  0  0  0  0  0  0  0  0  0
    1.2737   -1.4357    0.0000 N   0  0  0  0  0  0  0  0  0  0  0  0
    3.8890   -2.6844    0.0000 N   0  0  0  0  0  0  0  0  0  0  0  0
    4.7095   -2.5981    0.0000 C   0  0  0  0  0  0  0  0  0  0  0  0
    3.5534   -3.4381    0.0000 C   0  0  0  0  0  0  0  0  0  0  0  0
    3.7396   -1.2633    0.0000 O   0  0  0  0  0  0  0  0  0  0  0  0
  1  2  1  0  0  0  0
  2  3  1  0  0  0  0
  4  3  1  0  0  0  0
  5  4  2  0  0  0  0
  5  6  1  0  0  0  0
  6  7  1  0  0  0  0
  6  8  1  0  0  0  0
  6  9  1  0  0  0  0
 10  5  1  0  0  0  0
 11 10  1  0  0  0  0
  3 11  2  0  0  0  0
  1 12  1  0  0  0  0
 12 13  1  0  0  0  0
 12 14  1  0  0  0  0
  1 15  2  0  0  0  0
M  END
> <ChemID>
100686

> <CAS>
55861-78-4

> <Original_SMILES>
CN(C)C(=O)Nc1cc(o[n]1)C(C)(C)C

> <preferred_name>
Isouron

> <dsstox_substance_id>
DTXSID1042079

> <dsstox_compound_id>
DTXCID9022079

> <qc_level>
DSSTox_Low

> <Canonical_QSARr>
CN(C)C(=O)NC1C=C(ON=1)C(C)(C)C

> <InChI_Code_QSARr>
InChI=1S/C10H17N3O2/c1-10(2,3)7-6-8(12-15-7)11-9(14)13(4)5/h6H,1-5H3,(H,11,12,14)

> <InChI Key_QSARr>
JLLJHQLUZAKJFH-UHFFFAOYSA-N

> <Salt_Solvent>


> <Salt_Solvent_ID>
0

> <MPID>
99937

> <KocRef>
Schuurmann-Main

> <LogKOC>
2.47

> <Tr_1_Tst_0>
1

$$$$
100687
  Mrv171c012251911022D          

 17 16  0  0  0  0            999 V2000
    1.1421   -5.3332    0.0000 C   0  0  0  0  0  0  0  0  0  0  0  0
    1.1421   -4.5082    0.0000 C   0  0  0  0  0  0  0  0  0  0  0  0
    1.8566   -4.0957    0.0000 O   0  0  0  0  0  0  0  0  0  0  0  0
    1.8566   -3.2707    0.0000 P   0  0  0  0  0  0  0  0  0  0  0  0
    1.8566   -2.4457    0.0000 S   0  0  0  0  0  0  0  0  0  0  0  0
    2.5711   -2.0332    0.0000 C   0  0  0  0  0  0  0  0  0  0  0  0
    2.5711   -1.2082    0.0000 S   0  0  0  0  0  0  0  0  0  0  0  0
    3.3961   -1.2082    0.0000 O   0  0  0  0  0  0  0  0  0  0  0  0
    1.7461   -1.2082    0.0000 O   0  0  0  0  0  0  0  0  0  0  0  0
    2.5711   -0.3832    0.0000 C   0  0  0  0  0  0  0  0  0  0  0  0
    2.5711    0.4418    0.0000 C   0  0  0  0  0  0  0  0  0  0  0  0
    3.3961   -0.3832    0.0000 C   0  0  0  0  0  0  0  0  0  0  0  0
    1.7461   -0.3832    0.0000 C   0  0  0  0  0  0  0  0  0  0  0  0
    2.6816   -3.2707    0.0000 O   0  0  0  0  0  0  0  0  0  0  0  0
    3.0941   -2.5562    0.0000 C   0  0  0  0  0  0  0  0  0  0  0  0
    3.9191   -2.5562    0.0000 C   0  0  0  0  0  0  0  0  0  0  0  0
    1.0316   -3.2707    0.0000 S   0  0  0  0  0  0  0  0  0  0  0  0
  1  2  1  0  0  0  0
  2  3  1  0  0  0  0
  3  4  1  0  0  0  0
  4  5  1  0  0  0  0
  5  6  1  0  0  0  0
  6  7  1  0  0  0  0
  7  8  2  0  0  0  0
  7  9  2  0  0  0  0
  7 10  1  0  0  0  0
 10 11  1  0  0  0  0
 10 12  1  0  0  0  0
 10 13  1  0  0  0  0
  4 14  1  0  0  0  0
 14 15  1  0  0  0  0
 15 16  1  0  0  0  0
  4 17  2  0  0  0  0
M  END
> <ChemID>
100687

> <CAS>
56070-16-7

> <Original_SMILES>
CC(C)(C)S(=O)(=O)CSP(=S)(OCC)OCC

> <preferred_name>
Terbufos sulfone

> <dsstox_substance_id>
DTXSID1042443

> <dsstox_compound_id>
DTXCID9022443

> <qc_level>
DSSTox_Low

> <Canonical_QSARr>
CC(C)(C)S(=O)(=O)CSP(=S)(OCC)OCC

> <InChI_Code_QSARr>
InChI=1S/C9H21O4PS3/c1-6-12-14(15,13-7-2)16-8-17(10,11)9(3,4)5/h6-8H2,1-5H3

> <InChI Key_QSARr>
DWZSTEUTHNUVQD-UHFFFAOYSA-N

> <Salt_Solvent>


> <Salt_Solvent_ID>
0

> <MPID>
99938

> <KocRef>
Schuurmann-Main

> <LogKOC>
2.18

> <Tr_1_Tst_0>
0

$$$$
100688
  Mrv171c012251911022D          

 16 16  0  0  0  0            999 V2000
    2.9424   -2.3512    0.0000 P   0  0  0  0  0  0  0  0  0  0  0  0
    3.6568   -2.7637    0.0000 O   0  0  0  0  0  0  0  0  0  0  0  0
    4.3713   -2.3512    0.0000 C   0  0  0  0  0  0  0  0  0  0  0  0
    3.3549   -1.6368    0.0000 O   0  0  0  0  0  0  0  0  0  0  0  0
    2.9424   -0.9223    0.0000 C   0  0  0  0  0  0  0  0  0  0  0  0
    2.2279   -1.9387    0.0000 O   0  0  0  0  0  0  0  0  0  0  0  0
    1.5134   -2.3512    0.0000 C   0  0  0  0  0  0  0  0  0  0  0  0
    0.7990   -1.9387    0.0000 C   0  0  0  0  0  0  0  0  0  0  0  0
    0.7990   -1.1137    0.0000 Cl  0  0  0  0  0  0  0  0  0  0  0  0
    0.0845   -2.3512    0.0000 C   0  0  0  0  0  0  0  0  0  0  0  0
    0.0845   -3.1762    0.0000 C   0  0  0  0  0  0  0  0  0  0  0  0
   -0.6300   -3.5887    0.0000 C   0  0  0  0  0  0  0  0  0  0  0  0
    0.7990   -3.5887    0.0000 C   0  0  0  0  0  0  0  0  0  0  0  0
    1.5134   -3.1762    0.0000 C   0  0  0  0  0  0  0  0  0  0  0  0
    2.2279   -3.5887    0.0000 Cl  0  0  0  0  0  0  0  0  0  0  0  0
    2.5299   -3.0657    0.0000 S   0  0  0  0  0  0  0  0  0  0  0  0
  1  2  1  0  0  0  0
  2  3  1  0  0  0  0
  1  4  1  0  0  0  0
  4  5  1  0  0  0  0
  1  6  1  0  0  0  0
  6  7  1  0  0  0  0
  8  7  1  0  0  0  0
  8  9  1  0  0  0  0
 10  8  2  0  0  0  0
 11 10  1  0  0  0  0
 11 12  1  0  0  0  0
 13 11  2  0  0  0  0
 14 13  1  0  0  0  0
  7 14  2  0  0  0  0
 14 15  1  0  0  0  0
  1 16  2  0  0  0  0
M  END
> <ChemID>
100688

> <CAS>
57018-04-9

> <Original_SMILES>
Cc1cc(Cl)c(OP(=S)(OC)OC)c(Cl)c1

> <preferred_name>
Tolclofos-methyl

> <dsstox_substance_id>
DTXSID0034776

> <dsstox_compound_id>
DTXCID8014776

> <qc_level>
DSSTox_Low

> <Canonical_QSARr>
CC1C=C(Cl)C(OP(=S)(OC)OC)=C(Cl)C=1

> <InChI_Code_QSARr>
InChI=1S/C9H11Cl2O3PS/c1-6-4-7(10)9(8(11)5-6)14-15(16,12-2)13-3/h4-5H,1-3H3

> <InChI Key_QSARr>
OBZIQQJJIKNWNO-UHFFFAOYSA-N

> <Salt_Solvent>


> <Salt_Solvent_ID>
0

> <MPID>
99939

> <KocRef>
USDA Pest Prop DB

> <LogKOC>
3.7

> <Tr_1_Tst_0>
1

$$$$
100689
  Mrv171c012251911022D          

 12 12  0  0  0  0            999 V2000
    2.5029   -1.8651    0.0000 C   0  0  0  0  0  0  0  0  0  0  0  0
    2.5029   -1.0401    0.0000 C   0  0  0  0  0  0  0  0  0  0  0  0
    1.7884   -0.6276    0.0000 C   0  0  0  0  0  0  0  0  0  0  0  0
    1.7884    0.1974    0.0000 Cl  0  0  0  0  0  0  0  0  0  0  0  0
    1.0739   -1.0401    0.0000 C   0  0  0  0  0  0  0  0  0  0  0  0
    0.3595   -0.6276    0.0000 Cl  0  0  0  0  0  0  0  0  0  0  0  0
    1.0739   -1.8651    0.0000 C   0  0  0  0  0  0  0  0  0  0  0  0
    0.3595   -2.2776    0.0000 Cl  0  0  0  0  0  0  0  0  0  0  0  0
    1.7884   -2.2776    0.0000 C   0  0  0  0  0  0  0  0  0  0  0  0
    1.7884   -3.1026    0.0000 O   0  0  0  0  0  0  0  0  0  0  0  0
    2.5029   -3.5151    0.0000 C   0  0  0  0  0  0  0  0  0  0  0  0
    3.2174   -2.2776    0.0000 O   0  0  0  0  0  0  0  0  0  0  0  0
  2  1  2  0  0  0  0
  3  2  1  0  0  0  0
  3  4  1  0  0  0  0
  5  3  2  0  0  0  0
  5  6  1  0  0  0  0
  7  5  1  0  0  0  0
  7  8  1  0  0  0  0
  9  7  2  0  0  0  0
  1  9  1  0  0  0  0
  9 10  1  0  0  0  0
 10 11  1  0  0  0  0
  1 12  1  0  0  0  0
M  END
> <ChemID>
100689

> <CAS>
57057-83-7

> <Original_SMILES>
COc1c(O)cc(Cl)c(Cl)c1Cl

> <preferred_name>
3,4,5-Trichloro-2-methoxyphenol

> <dsstox_substance_id>
DTXSID7052232

> <dsstox_compound_id>
DTXCID2030803

> <qc_level>
DSSTox_High

> <Canonical_QSARr>
COC1C(O)=CC(Cl)=C(Cl)C=1Cl

> <InChI_Code_QSARr>
InChI=1S/C7H5Cl3O2/c1-12-7-4(11)2-3(8)5(9)6(7)10/h2,11H,1H3

> <InChI Key_QSARr>
RKEHLKXRUVUBJN-UHFFFAOYSA-N

> <Salt_Solvent>


> <Salt_Solvent_ID>
0

> <MPID>
99940

> <KocRef>
Schuurmann-Main

> <LogKOC>
2.8

> <Tr_1_Tst_0>
1

$$$$
100690
  Mrv171c012251911022D          

 20 20  0  0  0  0            999 V2000
    2.1808   -2.1587    0.0000 N   0  0  0  0  0  0  0  0  0  0  0  0
    1.4663   -1.7462    0.0000 C   0  0  0  0  0  0  0  0  0  0  0  0
    0.7518   -2.1587    0.0000 C   0  0  0  0  0  0  0  0  0  0  0  0
    1.4663   -0.9212    0.0000 C   0  0  0  0  0  0  0  0  0  0  0  0
    0.7518   -0.5087    0.0000 O   0  0  0  0  0  0  0  0  0  0  0  0
    0.7518    0.3163    0.0000 C   0  0  0  0  0  0  0  0  0  0  0  0
    2.1808   -0.5087    0.0000 O   0  0  0  0  0  0  0  0  0  0  0  0
    2.8952   -1.7462    0.0000 C   0  0  0  0  0  0  0  0  0  0  0  0
    2.8952   -0.9212    0.0000 C   0  0  0  0  0  0  0  0  0  0  0  0
    3.6097   -0.5087    0.0000 O   0  0  0  0  0  0  0  0  0  0  0  0
    4.3242   -0.9212    0.0000 C   0  0  0  0  0  0  0  0  0  0  0  0
    3.6097   -2.1587    0.0000 O   0  0  0  0  0  0  0  0  0  0  0  0
    2.1808   -2.9837    0.0000 C   0  0  0  0  0  0  0  0  0  0  0  0
    1.4663   -3.3962    0.0000 C   0  0  0  0  0  0  0  0  0  0  0  0
    0.7518   -2.9837    0.0000 C   0  0  0  0  0  0  0  0  0  0  0  0
    1.4663   -4.2212    0.0000 C   0  0  0  0  0  0  0  0  0  0  0  0
    2.1808   -4.6337    0.0000 C   0  0  0  0  0  0  0  0  0  0  0  0
    2.8952   -4.2212    0.0000 C   0  0  0  0  0  0  0  0  0  0  0  0
    2.8952   -3.3962    0.0000 C   0  0  0  0  0  0  0  0  0  0  0  0
    3.6097   -2.9837    0.0000 C   0  0  0  0  0  0  0  0  0  0  0  0
  1  2  1  0  0  0  0
  2  3  1  0  0  0  0
  2  4  1  0  0  0  0
  4  5  1  0  0  0  0
  5  6  1  0  0  0  0
  4  7  2  0  0  0  0
  1  8  1  0  0  0  0
  8  9  1  0  0  0  0
  9 10  1  0  0  0  0
 10 11  1  0  0  0  0
  8 12  2  0  0  0  0
  1 13  1  0  0  0  0
 14 13  1  0  0  0  0
 14 15  1  0  0  0  0
 16 14  2  0  0  0  0
 17 16  1  0  0  0  0
 18 17  2  0  0  0  0
 19 18  1  0  0  0  0
 13 19  2  0  0  0  0
 19 20  1  0  0  0  0
M  END
> <ChemID>
100690

> <CAS>
57837-19-1

> <Original_SMILES>
COCC(=O)N(C(C)C(=O)OC)c1c(C)cccc1C

> <preferred_name>
Metalaxyl

> <dsstox_substance_id>
DTXSID6024175

> <dsstox_compound_id>
DTXCID704175

> <qc_level>
DSSTox_Low

> <Canonical_QSARr>
CC1C=CC=C(C)C=1N(C(C)C(=O)OC)C(=O)COC

> <InChI_Code_QSARr>
InChI=1S/C15H21NO4/c1-10-7-6-8-11(2)14(10)16(13(17)9-19-4)12(3)15(18)20-5/h6-8,12H,9H2,1-5H3

> <InChI Key_QSARr>
ZQEIXNIJLIKNTD-UHFFFAOYSA-N

> <Salt_Solvent>


> <Salt_Solvent_ID>
0

> <MPID>
99941

> <KocRef>
Schuurmann-Main

> <LogKOC>
1.57

> <Tr_1_Tst_0>
1

$$$$
100691
  Mrv171c012251911022D          

 14 13  0  0  0  0            999 V2000
    1.7605    1.8414    0.0000 C   0  0  0  0  0  0  0  0  0  0  0  0
    2.4750    1.4289    0.0000 C   0  0  0  0  0  0  0  0  0  0  0  0
    3.1895    1.8414    0.0000 N   0  0  0  0  0  0  0  0  0  0  0  0
    3.9039    1.4289    0.0000 C   0  0  0  0  0  0  0  0  0  0  0  0
    3.9039    0.6039    0.0000 O   0  0  0  0  0  0  0  0  0  0  0  0
    4.6184    1.8414    0.0000 N   0  0  0  0  0  0  0  0  0  0  0  0
    5.3329    1.4289    0.0000 C   0  0  0  0  0  0  0  0  0  0  0  0
    5.3329    0.6039    0.0000 O   0  0  0  0  0  0  0  0  0  0  0  0
    6.0474    1.8414    0.0000 C   0  0  0  0  0  0  0  0  0  0  0  0
    6.0474    2.6664    0.0000 C   0  0  0  0  0  0  0  0  0  0  0  0
    6.0474    3.4914    0.0000 N   0  0  0  0  0  0  0  0  0  0  0  0
    6.7618    1.4289    0.0000 N   0  0  0  0  0  0  0  0  0  0  0  0
    7.4763    1.8414    0.0000 O   0  0  0  0  0  0  0  0  0  0  0  0
    7.4763    2.6664    0.0000 C   0  0  0  0  0  0  0  0  0  0  0  0
  1  2  1  0  0  0  0
  2  3  1  0  0  0  0
  3  4  1  0  0  0  0
  4  5  2  0  0  0  0
  4  6  1  0  0  0  0
  6  7  1  0  0  0  0
  7  8  2  0  0  0  0
  7  9  1  0  0  0  0
  9 10  1  0  0  0  0
 10 11  3  0  0  0  0
  9 12  2  0  0  0  0
 12 13  1  4  0  0  0
 13 14  1  0  0  0  0
M  END
> <ChemID>
100691

> <CAS>
57966-95-7

> <Original_SMILES>
CCNC(=O)NC(=O)/C(/C#N)=N/OC

> <preferred_name>
Cymoxanil

> <dsstox_substance_id>
DTXSID6032358

> <dsstox_compound_id>
DTXCID4012358

> <qc_level>
DSSTox_Low

> <Canonical_QSARr>
CCNC(=O)NC(=O)C(C#N)=NOC

> <InChI_Code_QSARr>
InChI=1S/C7H10N4O3/c1-3-9-7(13)10-6(12)5(4-8)11-14-2/h3H2,1-2H3,(H2,9,10,12,13)

> <InChI Key_QSARr>
XERJKGMBORTKEO-UHFFFAOYSA-N

> <Salt_Solvent>


> <Salt_Solvent_ID>
0

> <MPID>
99942

> <KocRef>
USDA Pest Prop DB

> <LogKOC>
2.09

> <Tr_1_Tst_0>
0

$$$$
100692
  Mrv171c012251911022D          

 16 17  0  0  0  0            999 V2000
    1.7905   -2.2655    0.0000 C   0  0  0  0  0  0  0  0  0  0  0  0
    2.4225   -1.7352    0.0000 C   0  0  0  0  0  0  0  0  0  0  0  0
    3.1977   -2.0174    0.0000 C   0  0  0  0  0  0  0  0  0  0  0  0
    3.8297   -1.4871    0.0000 C   0  0  0  0  0  0  0  0  0  0  0  0
    4.6050   -1.7693    0.0000 Cl  0  0  0  0  0  0  0  0  0  0  0  0
    3.6865   -0.6746    0.0000 C   0  0  0  0  0  0  0  0  0  0  0  0
    2.9112   -0.3925    0.0000 C   0  0  0  0  0  0  0  0  0  0  0  0
    2.7680    0.4200    0.0000 Cl  0  0  0  0  0  0  0  0  0  0  0  0
    2.2792   -0.9228    0.0000 C   0  0  0  0  0  0  0  0  0  0  0  0
    1.3780   -2.9800    0.0000 C   0  0  0  0  0  0  0  0  0  0  0  0
    2.2030   -2.9800    0.0000 O   0  0  0  0  0  0  0  0  0  0  0  0
    1.1585   -1.7352    0.0000 C   0  0  0  0  0  0  0  0  0  0  0  0
    0.3833   -2.0174    0.0000 C   0  0  0  0  0  0  0  0  0  0  0  0
   -0.3920   -2.2996    0.0000 Cl  0  0  0  0  0  0  0  0  0  0  0  0
    0.1011   -1.2421    0.0000 Cl  0  0  0  0  0  0  0  0  0  0  0  0
    0.6654   -2.7926    0.0000 Cl  0  0  0  0  0  0  0  0  0  0  0  0
  1  2  1  0  0  0  0
  3  2  2  0  0  0  0
  4  3  1  0  0  0  0
  4  5  1  0  0  0  0
  6  4  2  0  0  0  0
  7  6  1  0  0  0  0
  7  8  1  0  0  0  0
  9  7  2  0  0  0  0
  2  9  1  0  0  0  0
 10  1  1  0  0  0  0
 11 10  1  0  0  0  0
  1 11  1  0  0  0  0
  1 12  1  0  0  0  0
 12 13  1  0  0  0  0
 13 14  1  0  0  0  0
 13 15  1  0  0  0  0
 13 16  1  0  0  0  0
M  END
> <ChemID>
100692

> <CAS>
58138-08-2

> <Original_SMILES>
ClC(Cl)(Cl)CC1(CO1)c1cc(Cl)cc(Cl)c1

> <preferred_name>
Tridiphane

> <dsstox_substance_id>
DTXSID8024365

> <dsstox_compound_id>
DTXCID804365

> <qc_level>
DSSTox_Low

> <Canonical_QSARr>
ClC(Cl)(Cl)CC1(CO1)C1C=C(Cl)C=C(Cl)C=1

> <InChI_Code_QSARr>
InChI=1S/C10H7Cl5O/c11-7-1-6(2-8(12)3-7)9(5-16-9)4-10(13,14)15/h1-3H,4-5H2

> <InChI Key_QSARr>
IBZHOAONZVJLOB-UHFFFAOYSA-N

> <Salt_Solvent>


> <Salt_Solvent_ID>
0

> <MPID>
99943

> <KocRef>
Schuurmann-Main

> <LogKOC>
3.75

> <Tr_1_Tst_0>
1

$$$$
100693
  Mrv171c012251911022D          

 18 19  0  0  0  0            999 V2000
    0.3573    1.4438    0.0000 C   0  0  0  0  0  0  0  0  0  0  0  0
   -0.3572    1.8563    0.0000 C   0  0  0  0  0  0  0  0  0  0  0  0
   -0.3572    2.6813    0.0000 Br  0  0  0  0  0  0  0  0  0  0  0  0
   -1.0717    1.4438    0.0000 C   0  0  0  0  0  0  0  0  0  0  0  0
   -1.0717    0.6188    0.0000 C   0  0  0  0  0  0  0  0  0  0  0  0
   -1.7862    0.2063    0.0000 Br  0  0  0  0  0  0  0  0  0  0  0  0
   -0.3572    0.2063    0.0000 C   0  0  0  0  0  0  0  0  0  0  0  0
    0.3573    0.6188    0.0000 C   0  0  0  0  0  0  0  0  0  0  0  0
    1.0717    0.2063    0.0000 Br  0  0  0  0  0  0  0  0  0  0  0  0
    1.0717    1.8563    0.0000 C   0  0  0  0  0  0  0  0  0  0  0  0
    1.7862    1.4438    0.0000 C   0  0  0  0  0  0  0  0  0  0  0  0
    1.7862    0.6188    0.0000 Br  0  0  0  0  0  0  0  0  0  0  0  0
    2.5007    1.8563    0.0000 C   0  0  0  0  0  0  0  0  0  0  0  0
    2.5007    2.6813    0.0000 C   0  0  0  0  0  0  0  0  0  0  0  0
    3.2151    3.0938    0.0000 Br  0  0  0  0  0  0  0  0  0  0  0  0
    1.7862    3.0938    0.0000 C   0  0  0  0  0  0  0  0  0  0  0  0
    1.0717    2.6813    0.0000 C   0  0  0  0  0  0  0  0  0  0  0  0
    0.3573    3.0938    0.0000 Br  0  0  0  0  0  0  0  0  0  0  0  0
  2  1  1  0  0  0  0
  2  3  1  0  0  0  0
  4  2  2  0  0  0  0
  5  4  1  0  0  0  0
  5  6  1  0  0  0  0
  7  5  2  0  0  0  0
  8  7  1  0  0  0  0
  1  8  2  0  0  0  0
  8  9  1  0  0  0  0
  1 10  1  0  0  0  0
 11 10  1  0  0  0  0
 11 12  1  0  0  0  0
 13 11  2  0  0  0  0
 14 13  1  0  0  0  0
 14 15  1  0  0  0  0
 16 14  2  0  0  0  0
 17 16  1  0  0  0  0
 10 17  2  0  0  0  0
 17 18  1  0  0  0  0
M  END
> <ChemID>
100693

> <CAS>
59261-08-4

> <Original_SMILES>
Brc1cc(Br)c(-c2c(Br)cc(Br)cc2Br)c(Br)c1

> <preferred_name>
PBB 155

> <dsstox_substance_id>
DTXSID4074772

> <dsstox_compound_id>
DTXCID5042586

> <qc_level>
Public_High

> <Canonical_QSARr>
BrC1=CC(Br)=C(C2C(Br)=CC(Br)=CC=2Br)C(Br)=C1

> <InChI_Code_QSARr>
InChI=1S/C12H4Br6/c13-5-1-7(15)11(8(16)2-5)12-9(17)3-6(14)4-10(12)18/h1-4H

> <InChI Key_QSARr>
LNFYSRMCCKKDEH-UHFFFAOYSA-N

> <Salt_Solvent>


> <Salt_Solvent_ID>
0

> <MPID>
99944

> <KocRef>
Schuurmann-Main

> <LogKOC>
4.87

> <Tr_1_Tst_0>
1

$$$$
100694
  Mrv171c012251911022D          

 21 20  0  0  0  0            999 V2000
    6.5704    1.3184    0.0000 C   0  0  0  0  0  0  0  0  0  0  0  0
    6.5704    2.1434    0.0000 N   0  0  0  0  0  0  0  0  0  0  0  0
    5.8559    2.5559    0.0000 S   0  0  0  0  0  0  0  0  0  0  0  0
    5.1414    2.1434    0.0000 N   0  0  0  0  0  0  0  0  0  0  0  0
    5.1414    1.3184    0.0000 C   0  0  0  0  0  0  0  0  0  0  0  0
    4.4270    2.5559    0.0000 C   0  0  0  0  0  0  0  0  0  0  0  0
    4.4270    3.3809    0.0000 O   0  0  0  0  0  0  0  0  0  0  0  0
    3.7125    2.1434    0.0000 O   0  0  0  0  0  0  0  0  0  0  0  0
    2.9980    2.5559    0.0000 N   0  0  0  0  0  0  0  0  0  0  0  0
    2.9980    3.3809    0.0000 C   0  0  0  0  0  0  0  0  0  0  0  0
    3.7125    3.7934    0.0000 C   0  0  0  0  0  0  0  0  0  0  0  0
    2.2836    3.7934    0.0000 S   0  0  0  0  0  0  0  0  0  0  0  0
    2.2836    4.6184    0.0000 C   0  0  0  0  0  0  0  0  0  0  0  0
    7.2849    2.5559    0.0000 C   0  0  0  0  0  0  0  0  0  0  0  0
    7.2849    3.3809    0.0000 O   0  0  0  0  0  0  0  0  0  0  0  0
    7.9993    2.1434    0.0000 O   0  0  0  0  0  0  0  0  0  0  0  0
    8.7138    2.5559    0.0000 N   0  0  0  0  0  0  0  0  0  0  0  0
    9.4283    2.1434    0.0000 C   0  0  0  0  0  0  0  0  0  0  0  0
    9.4283    1.3184    0.0000 C   0  0  0  0  0  0  0  0  0  0  0  0
   10.1427    2.5559    0.0000 S   0  0  0  0  0  0  0  0  0  0  0  0
   10.8572    2.1434    0.0000 C   0  0  0  0  0  0  0  0  0  0  0  0
  1  2  1  0  0  0  0
  2  3  1  0  0  0  0
  3  4  1  0  0  0  0
  4  5  1  0  0  0  0
  4  6  1  0  0  0  0
  6  7  2  0  0  0  0
  6  8  1  0  0  0  0
  9  8  1  4  0  0  0
  9 10  2  0  0  0  0
 10 11  1  0  0  0  0
 10 12  1  0  0  0  0
 12 13  1  0  0  0  0
  2 14  1  0  0  0  0
 14 15  2  0  0  0  0
 14 16  1  0  0  0  0
 17 16  1  4  0  0  0
 17 18  2  0  0  0  0
 18 19  1  0  0  0  0
 18 20  1  0  0  0  0
 20 21  1  0  0  0  0
M  END
> <ChemID>
100694

> <CAS>
59669-26-0

> <Original_SMILES>
CN(SN(C)C(=O)O/N=C(\C)/SC)C(=O)O/N=C(\C)/SC

> <preferred_name>
Thiodicarb

> <dsstox_substance_id>
DTXSID0032578

> <dsstox_compound_id>
DTXCID8012578

> <qc_level>
DSSTox_Low

> <Canonical_QSARr>
CN(SN(C)C(=O)ON=C(C)SC)C(=O)ON=C(C)SC

> <InChI_Code_QSARr>
InChI=1S/C10H18N4O4S3/c1-7(19-5)11-17-9(15)13(3)21-14(4)10(16)18-12-8(2)20-6/h1-6H3

> <InChI Key_QSARr>
XDOTVMNBCQVZKG-UHFFFAOYSA-N

> <Salt_Solvent>


> <Salt_Solvent_ID>
0

> <MPID>
99945

> <KocRef>
Schuurmann-Main

> <LogKOC>
2.54

> <Tr_1_Tst_0>
1

$$$$
100695
  Mrv171c012251911022D          

 24 26  0  0  0  0            999 V2000
    4.7355   -2.7890    0.0000 N   0  0  0  0  0  0  0  0  0  0  0  0
    5.4500   -3.2015    0.0000 C   0  0  0  0  0  0  0  0  0  0  0  0
    4.7355   -1.9640    0.0000 C   0  0  0  0  0  0  0  0  0  0  0  0
    4.0211   -1.5515    0.0000 C   0  0  0  0  0  0  0  0  0  0  0  0
    4.0211   -0.7265    0.0000 C   0  0  0  0  0  0  0  0  0  0  0  0
    4.7355   -0.3140    0.0000 C   0  0  0  0  0  0  0  0  0  0  0  0
    4.7355    0.5110    0.0000 C   0  0  0  0  0  0  0  0  0  0  0  0
    4.0211    0.9235    0.0000 C   0  0  0  0  0  0  0  0  0  0  0  0
    3.3066    0.5110    0.0000 C   0  0  0  0  0  0  0  0  0  0  0  0
    3.3066   -0.3140    0.0000 C   0  0  0  0  0  0  0  0  0  0  0  0
    3.3066   -1.9640    0.0000 C   0  0  0  0  0  0  0  0  0  0  0  0
    2.5921   -1.5515    0.0000 O   0  0  0  0  0  0  0  0  0  0  0  0
    3.3066   -2.7890    0.0000 C   0  0  0  0  0  0  0  0  0  0  0  0
    2.5921   -3.2015    0.0000 C   0  0  0  0  0  0  0  0  0  0  0  0
    1.8777   -2.7890    0.0000 C   0  0  0  0  0  0  0  0  0  0  0  0
    1.1632   -3.2015    0.0000 C   0  0  0  0  0  0  0  0  0  0  0  0
    1.1632   -4.0265    0.0000 C   0  0  0  0  0  0  0  0  0  0  0  0
    1.8777   -4.4390    0.0000 C   0  0  0  0  0  0  0  0  0  0  0  0
    1.8777   -5.2640    0.0000 C   0  0  0  0  0  0  0  0  0  0  0  0
    1.8777   -6.0890    0.0000 F   0  0  0  0  0  0  0  0  0  0  0  0
    1.0527   -5.2640    0.0000 F   0  0  0  0  0  0  0  0  0  0  0  0
    2.7027   -5.2640    0.0000 F   0  0  0  0  0  0  0  0  0  0  0  0
    2.5921   -4.0265    0.0000 C   0  0  0  0  0  0  0  0  0  0  0  0
    4.0211   -3.2015    0.0000 C   0  0  0  0  0  0  0  0  0  0  0  0
  1  2  1  0  0  0  0
  3  1  1  0  0  0  0
  4  3  2  0  0  0  0
  4  5  1  0  0  0  0
  6  5  1  0  0  0  0
  7  6  2  0  0  0  0
  8  7  1  0  0  0  0
  9  8  2  0  0  0  0
 10  9  1  0  0  0  0
  5 10  2  0  0  0  0
 11  4  1  0  0  0  0
 11 12  2  0  0  0  0
 13 11  1  0  0  0  0
 13 14  1  0  0  0  0
 15 14  1  0  0  0  0
 16 15  2  0  0  0  0
 17 16  1  0  0  0  0
 18 17  2  0  0  0  0
 18 19  1  0  0  0  0
 19 20  1  0  0  0  0
 19 21  1  0  0  0  0
 19 22  1  0  0  0  0
 23 18  1  0  0  0  0
 14 23  2  0  0  0  0
 24 13  2  0  0  0  0
  1 24  1  0  0  0  0
M  END
> <ChemID>
100695

> <CAS>
59756-60-4

> <Original_SMILES>
CN1C=C(C(=O)C(=C1)c1ccccc1)c1cc(ccc1)C(F)(F)F

> <preferred_name>
Fluridone

> <dsstox_substance_id>
DTXSID8024107

> <dsstox_compound_id>
DTXCID404107

> <qc_level>
DSSTox_Low

> <Canonical_QSARr>
CN1C=C(C(=O)C(=C1)C1C=CC=CC=1)C1=CC(=CC=C1)C(F)(F)F

> <InChI_Code_QSARr>
InChI=1S/C19H14F3NO/c1-23-11-16(13-6-3-2-4-7-13)18(24)17(12-23)14-8-5-9-15(10-14)19(20,21)22/h2-12H,1H3

> <InChI Key_QSARr>
YWBVHLJPRPCRSD-UHFFFAOYSA-N

> <Salt_Solvent>


> <Salt_Solvent_ID>
0

> <MPID>
99946

> <KocRef>
Schuurmann-Main

> <LogKOC>
2.85

> <Tr_1_Tst_0>
0

$$$$
100696
  Mrv171c012251911022D          

 22 24  0  0  0  0            999 V2000
    2.9398   -1.8952    0.0000 C   0  0  0  0  0  0  0  0  0  0  0  0
    3.7648   -1.8952    0.0000 O   0  0  0  0  0  0  0  0  0  0  0  0
    2.9398   -1.0702    0.0000 C   0  0  0  0  0  0  0  0  0  0  0  0
    3.6543   -0.6577    0.0000 C   0  0  0  0  0  0  0  0  0  0  0  0
    3.6543    0.1673    0.0000 C   0  0  0  0  0  0  0  0  0  0  0  0
    2.9398    0.5798    0.0000 C   0  0  0  0  0  0  0  0  0  0  0  0
    2.9398    1.4048    0.0000 Cl  0  0  0  0  0  0  0  0  0  0  0  0
    2.2254    0.1673    0.0000 C   0  0  0  0  0  0  0  0  0  0  0  0
    2.2254   -0.6577    0.0000 C   0  0  0  0  0  0  0  0  0  0  0  0
    2.1148   -1.8952    0.0000 C   0  0  0  0  0  0  0  0  0  0  0  0
    1.7023   -1.1807    0.0000 C   0  0  0  0  0  0  0  0  0  0  0  0
    0.8773   -1.1807    0.0000 N   0  0  0  0  0  0  0  0  0  0  0  0
    0.4648   -1.8952    0.0000 C   0  0  0  0  0  0  0  0  0  0  0  0
    0.8773   -2.6097    0.0000 N   0  0  0  0  0  0  0  0  0  0  0  0
    1.7023   -2.6097    0.0000 C   0  0  0  0  0  0  0  0  0  0  0  0
    2.9398   -2.7202    0.0000 C   0  0  0  0  0  0  0  0  0  0  0  0
    2.2254   -3.1327    0.0000 C   0  0  0  0  0  0  0  0  0  0  0  0
    2.2254   -3.9577    0.0000 C   0  0  0  0  0  0  0  0  0  0  0  0
    2.9398   -4.3702    0.0000 C   0  0  0  0  0  0  0  0  0  0  0  0
    3.6543   -3.9577    0.0000 C   0  0  0  0  0  0  0  0  0  0  0  0
    3.6543   -3.1327    0.0000 C   0  0  0  0  0  0  0  0  0  0  0  0
    4.3688   -2.7202    0.0000 Cl  0  0  0  0  0  0  0  0  0  0  0  0
  1  2  1  0  0  0  0
  1  3  1  0  0  0  0
  4  3  1  0  0  0  0
  5  4  2  0  0  0  0
  6  5  1  0  0  0  0
  6  7  1  0  0  0  0
  8  6  2  0  0  0  0
  9  8  1  0  0  0  0
  3  9  2  0  0  0  0
  1 10  1  0  0  0  0
 11 10  1  0  0  0  0
 12 11  2  0  0  0  0
 13 12  1  0  0  0  0
 14 13  2  0  0  0  0
 15 14  1  0  0  0  0
 10 15  2  0  0  0  0
  1 16  1  0  0  0  0
 17 16  2  0  0  0  0
 18 17  1  0  0  0  0
 19 18  2  0  0  0  0
 20 19  1  0  0  0  0
 21 20  2  0  0  0  0
 16 21  1  0  0  0  0
 21 22  1  0  0  0  0
M  END
> <ChemID>
100696

> <CAS>
60168-88-9

> <Original_SMILES>
OC(c1ccccc1Cl)(c1ccc(Cl)cc1)c1c[n]c[n]c1

> <preferred_name>
Fenarimol

> <dsstox_substance_id>
DTXSID2032390

> <dsstox_compound_id>
DTXCID0012390

> <qc_level>
DSSTox_Low

> <Canonical_QSARr>
OC(C1=CC=CC=C1Cl)(C1C=CC(Cl)=CC=1)C1C=NC=NC=1

> <InChI_Code_QSARr>
InChI=1S/C17H12Cl2N2O/c18-14-7-5-12(6-8-14)17(22,13-9-20-11-21-10-13)15-3-1-2-4-16(15)19/h1-11,22H

> <InChI Key_QSARr>
NHOWDZOIZKMVAI-UHFFFAOYSA-N

> <Salt_Solvent>


> <Salt_Solvent_ID>
0

> <MPID>
99947

> <KocRef>
Schuurmann-Main

> <LogKOC>
2.78

> <Tr_1_Tst_0>
1

$$$$
100697
  Mrv171c012251911022D          

 22 24  0  0  0  0            999 V2000
    3.2343   -2.9170    0.0000 C   0  0  0  0  0  0  0  0  0  0  0  0
    2.5668   -3.4019    0.0000 O   0  0  0  0  0  0  0  0  0  0  0  0
    2.8218   -4.1865    0.0000 C   0  0  0  0  0  0  0  0  0  0  0  0
    3.6468   -4.1865    0.0000 C   0  0  0  0  0  0  0  0  0  0  0  0
    4.1317   -4.8539    0.0000 C   0  0  0  0  0  0  0  0  0  0  0  0
    3.7961   -5.6076    0.0000 C   0  0  0  0  0  0  0  0  0  0  0  0
    4.2811   -6.2751    0.0000 C   0  0  0  0  0  0  0  0  0  0  0  0
    3.9017   -3.4019    0.0000 O   0  0  0  0  0  0  0  0  0  0  0  0
    2.8293   -2.1982    0.0000 C   0  0  0  0  0  0  0  0  0  0  0  0
    2.0043   -2.1896    0.0000 N   0  0  0  0  0  0  0  0  0  0  0  0
    1.5264   -1.5171    0.0000 N   0  0  0  0  0  0  0  0  0  0  0  0
    0.7392   -1.7638    0.0000 C   0  0  0  0  0  0  0  0  0  0  0  0
    0.7305   -2.5888    0.0000 N   0  0  0  0  0  0  0  0  0  0  0  0
    1.5124   -2.8519    0.0000 C   0  0  0  0  0  0  0  0  0  0  0  0
    3.6393   -2.1982    0.0000 C   0  0  0  0  0  0  0  0  0  0  0  0
    4.4642   -2.1896    0.0000 C   0  0  0  0  0  0  0  0  0  0  0  0
    4.8692   -1.4708    0.0000 C   0  0  0  0  0  0  0  0  0  0  0  0
    4.4493   -0.7607    0.0000 C   0  0  0  0  0  0  0  0  0  0  0  0
    4.8543   -0.0420    0.0000 Cl  0  0  0  0  0  0  0  0  0  0  0  0
    3.6243   -0.7693    0.0000 C   0  0  0  0  0  0  0  0  0  0  0  0
    3.2193   -1.4881    0.0000 C   0  0  0  0  0  0  0  0  0  0  0  0
    2.3944   -1.4967    0.0000 Cl  0  0  0  0  0  0  0  0  0  0  0  0
  2  1  1  0  0  0  0
  3  2  1  0  0  0  0
  4  3  1  0  0  0  0
  4  5  1  0  0  0  0
  5  6  1  0  0  0  0
  6  7  1  0  0  0  0
  8  4  1  0  0  0  0
  1  8  1  0  0  0  0
  1  9  1  0  0  0  0
  9 10  1  0  0  0  0
 11 10  1  0  0  0  0
 12 11  2  0  0  0  0
 13 12  1  0  0  0  0
 14 13  2  0  0  0  0
 10 14  1  0  0  0  0
  1 15  1  0  0  0  0
 16 15  1  0  0  0  0
 17 16  2  0  0  0  0
 18 17  1  0  0  0  0
 18 19  1  0  0  0  0
 20 18  2  0  0  0  0
 21 20  1  0  0  0  0
 15 21  2  0  0  0  0
 21 22  1  0  0  0  0
M  END
> <ChemID>
100697

> <CAS>
60207-90-1

> <Original_SMILES>
CCCC1COC(C[n]2c[n]c[n]2)(O1)c1ccc(Cl)cc1Cl

> <preferred_name>
Propiconazole

> <dsstox_substance_id>
DTXSID8024280

> <dsstox_compound_id>
DTXCID204280

> <qc_level>
DSSTox_Low

> <Canonical_QSARr>
CCCC1COC(CN2C=NC=N2)(O1)C1C=CC(Cl)=CC=1Cl

> <InChI_Code_QSARr>
InChI=1S/C15H17Cl2N3O2/c1-2-3-12-7-21-15(22-12,8-20-10-18-9-19-20)13-5-4-11(16)6-14(13)17/h4-6,9-10,12H,2-3,7-8H2,1H3

> <InChI Key_QSARr>
STJLVHWMYQXCPB-UHFFFAOYSA-N

> <Salt_Solvent>


> <Salt_Solvent_ID>
0

> <MPID>
99948

> <KocRef>
Schuurmann-Main

> <LogKOC>
3.39

> <Tr_1_Tst_0>
1

$$$$
100698
  Mrv171c012251911022D          

 24 25  0  0  0  0            999 V2000
    4.6738    1.9766    0.0000 O   0  5  0  0  0  0  0  0  0  0  0  0
    3.9594    2.3891    0.0000 N   0  3  0  0  0  0  0  0  0  0  0  0
    3.2449    1.9766    0.0000 C   0  0  0  0  0  0  0  0  0  0  0  0
    2.5304    2.3891    0.0000 C   0  0  0  0  0  0  0  0  0  0  0  0
    2.5304    3.2141    0.0000 C   0  0  0  0  0  0  0  0  0  0  0  0
    1.8159    3.6266    0.0000 O   0  0  0  0  0  0  0  0  0  0  0  0
    3.2449    3.6266    0.0000 O   0  0  0  0  0  0  0  0  0  0  0  0
    1.8159    1.9766    0.0000 C   0  0  0  0  0  0  0  0  0  0  0  0
    1.8159    1.1516    0.0000 C   0  0  0  0  0  0  0  0  0  0  0  0
    1.1015    0.7391    0.0000 O   0  0  0  0  0  0  0  0  0  0  0  0
    1.1015   -0.0859    0.0000 C   0  0  0  0  0  0  0  0  0  0  0  0
    0.3870   -0.4984    0.0000 C   0  0  0  0  0  0  0  0  0  0  0  0
   -0.3275   -0.0859    0.0000 Cl  0  0  0  0  0  0  0  0  0  0  0  0
    0.3870   -1.3234    0.0000 C   0  0  0  0  0  0  0  0  0  0  0  0
    1.1015   -1.7359    0.0000 C   0  0  0  0  0  0  0  0  0  0  0  0
    1.1015   -2.5609    0.0000 C   0  0  0  0  0  0  0  0  0  0  0  0
    1.1015   -3.3859    0.0000 F   0  0  0  0  0  0  0  0  0  0  0  0
    0.2765   -2.5609    0.0000 F   0  0  0  0  0  0  0  0  0  0  0  0
    1.9265   -2.5609    0.0000 F   0  0  0  0  0  0  0  0  0  0  0  0
    1.8159   -1.3234    0.0000 C   0  0  0  0  0  0  0  0  0  0  0  0
    1.8159   -0.4984    0.0000 C   0  0  0  0  0  0  0  0  0  0  0  0
    2.5304    0.7391    0.0000 C   0  0  0  0  0  0  0  0  0  0  0  0
    3.2449    1.1516    0.0000 C   0  0  0  0  0  0  0  0  0  0  0  0
    3.9594    3.2141    0.0000 O   0  0  0  0  0  0  0  0  0  0  0  0
  1  2  1  0  0  0  0
  2  3  1  0  0  0  0
  4  3  1  0  0  0  0
  4  5  1  0  0  0  0
  5  6  2  0  0  0  0
  5  7  1  0  0  0  0
  8  4  2  0  0  0  0
  9  8  1  0  0  0  0
  9 10  1  0  0  0  0
 10 11  1  0  0  0  0
 12 11  1  0  0  0  0
 12 13  1  0  0  0  0
 14 12  2  0  0  0  0
 15 14  1  0  0  0  0
 15 16  1  0  0  0  0
 16 17  1  0  0  0  0
 16 18  1  0  0  0  0
 16 19  1  0  0  0  0
 20 15  2  0  0  0  0
 21 20  1  0  0  0  0
 11 21  2  0  0  0  0
 22  9  2  0  0  0  0
 23 22  1  0  0  0  0
  3 23  2  0  0  0  0
  2 24  2  0  0  0  0
M  CHG  2   1  -1   2   1
M  END
> <ChemID>
100698

> <CAS>
62476-59-9

> <Original_SMILES>
[Na+].[O-]C(=O)c1cc(ccc1[N+]([O-])=O)Oc1ccc(cc1Cl)C(F)(F)F

> <preferred_name>
Acifluorfen-sodium

> <dsstox_substance_id>
DTXSID7023853

> <dsstox_compound_id>
DTXCID603853

> <qc_level>
DSSTox_Low

> <Canonical_QSARr>
[O-][N+](=O)C1=CC=C(C=C1C(O)=O)OC1=CC=C(C=C1Cl)C(F)(F)F

> <InChI_Code_QSARr>
InChI=1S/C14H7ClF3NO5/c15-10-5-7(14(16,17)18)1-4-12(10)24-8-2-3-11(19(22)23)9(6-8)13(20)21/h1-6H,(H,20,21)

> <InChI Key_QSARr>
NUFNQYOELLVIPL-UHFFFAOYSA-N

> <Salt_Solvent>
[Na+]

> <Salt_Solvent_ID>
110

> <MPID>
99949

> <KocRef>
USDA Pest Prop DB

> <LogKOC>
2.05

> <Tr_1_Tst_0>
0

$$$$
100699
  Mrv171c012251911022D          

 28 29  0  0  0  0            999 V2000
    4.4211   -1.0214    0.0000 C   0  0  0  0  0  0  0  0  0  0  0  0
    3.7066   -1.4339    0.0000 C   0  0  0  0  0  0  0  0  0  0  0  0
    3.7066   -2.2589    0.0000 N   0  0  0  0  0  0  0  0  0  0  0  0
    4.4211   -2.6714    0.0000 C   0  0  0  0  0  0  0  0  0  0  0  0
    5.1356   -2.2589    0.0000 C   0  0  0  0  0  0  0  0  0  0  0  0
    2.9922   -2.6714    0.0000 C   0  0  0  0  0  0  0  0  0  0  0  0
    2.2777   -2.2589    0.0000 C   0  0  0  0  0  0  0  0  0  0  0  0
    2.2777   -1.4339    0.0000 N   0  3  0  0  0  0  0  0  0  0  0  0
    1.5632   -1.0214    0.0000 O   0  0  0  0  0  0  0  0  0  0  0  0
    2.9922   -1.0214    0.0000 O   0  5  0  0  0  0  0  0  0  0  0  0
    1.5632   -2.6714    0.0000 C   0  0  0  0  0  0  0  0  0  0  0  0
    1.5632   -3.4964    0.0000 C   0  0  0  0  0  0  0  0  0  0  0  0
    0.8488   -3.9089    0.0000 C   0  0  0  0  0  0  0  0  0  0  0  0
    0.1343   -4.3214    0.0000 F   0  0  0  0  0  0  0  0  0  0  0  0
    1.2613   -4.6234    0.0000 F   0  0  0  0  0  0  0  0  0  0  0  0
    0.4363   -3.1945    0.0000 F   0  0  0  0  0  0  0  0  0  0  0  0
    2.2777   -3.9089    0.0000 C   0  0  0  0  0  0  0  0  0  0  0  0
    2.9922   -3.4964    0.0000 C   0  0  0  0  0  0  0  0  0  0  0  0
    3.7066   -3.9089    0.0000 N   0  3  0  0  0  0  0  0  0  0  0  0
    4.4211   -3.4964    0.0000 O   0  0  0  0  0  0  0  0  0  0  0  0
    3.7066   -4.7339    0.0000 O   0  5  0  0  0  0  0  0  0  0  0  0
    4.4211   -0.1964    0.0000 C   0  0  0  0  0  0  0  0  0  0  0  0
    3.7066    0.2161    0.0000 Cl  0  0  0  0  0  0  0  0  0  0  0  0
    5.1356    0.2161    0.0000 C   0  0  0  0  0  0  0  0  0  0  0  0
    5.8501   -0.1964    0.0000 C   0  0  0  0  0  0  0  0  0  0  0  0
    5.8501   -1.0214    0.0000 C   0  0  0  0  0  0  0  0  0  0  0  0
    5.1356   -1.4339    0.0000 C   0  0  0  0  0  0  0  0  0  0  0  0
    5.6205   -2.1014    0.0000 F   0  0  0  0  0  0  0  0  0  0  0  0
  1  2  1  0  0  0  0
  2  3  1  0  0  0  0
  3  4  1  0  0  0  0
  4  5  1  0  0  0  0
  3  6  1  0  0  0  0
  7  6  1  0  0  0  0
  7  8  1  0  0  0  0
  8  9  2  0  0  0  0
  8 10  1  0  0  0  0
 11  7  2  0  0  0  0
 12 11  1  0  0  0  0
 12 13  1  0  0  0  0
 13 14  1  0  0  0  0
 13 15  1  0  0  0  0
 13 16  1  0  0  0  0
 17 12  2  0  0  0  0
 18 17  1  0  0  0  0
  6 18  2  0  0  0  0
 18 19  1  0  0  0  0
 19 20  2  0  0  0  0
 19 21  1  0  0  0  0
 22  1  2  0  0  0  0
 22 23  1  0  0  0  0
 24 22  1  0  0  0  0
 25 24  2  0  0  0  0
 26 25  1  0  0  0  0
 27 26  2  0  0  0  0
  1 27  1  0  0  0  0
 27 28  1  0  0  0  0
M  CHG  4   8   1  10  -1  19   1  21  -1
M  END
> <ChemID>
100699

> <CAS>
62924-70-3

> <Original_SMILES>
CCN(Cc1c(F)cccc1Cl)c1c(cc(cc1[N+]([O-])=O)C(F)(F)F)[N+]([O-])=O

> <preferred_name>
Flumetralin

> <dsstox_substance_id>
DTXSID7032553

> <dsstox_compound_id>
DTXCID5012553

> <qc_level>
DSSTox_Low

> <Canonical_QSARr>
CCN(CC1C(F)=CC=CC=1Cl)C1C(=CC(=CC=1[N+]([O-])=O)C(F)(F)F)[N+]([O-])=O

> <InChI_Code_QSARr>
InChI=1S/C16H12ClF4N3O4/c1-2-22(8-10-11(17)4-3-5-12(10)18)15-13(23(25)26)6-9(16(19,20)21)7-14(15)24(27)28/h3-7H,2,8H2,1H3

> <InChI Key_QSARr>
PWNAWOCHVWERAR-UHFFFAOYSA-N

> <Salt_Solvent>


> <Salt_Solvent_ID>
0

> <MPID>
99950

> <KocRef>
Schuurmann-Main

> <LogKOC>
4.0

> <Tr_1_Tst_0>
1

$$$$
100700
  Mrv171c012251911022D          

 15 15  0  0  0  0            999 V2000
    3.8409   -0.9075    0.0000 O   0  0  0  0  0  0  0  0  0  0  0  0
    3.1264   -0.4950    0.0000 C   0  0  0  0  0  0  0  0  0  0  0  0
    2.4119   -0.9075    0.0000 N   0  0  0  0  0  0  0  0  0  0  0  0
    1.6975   -0.4950    0.0000 C   0  0  0  0  0  0  0  0  0  0  0  0
    1.6975    0.3300    0.0000 C   0  0  0  0  0  0  0  0  0  0  0  0
    0.9830    0.7425    0.0000 C   0  0  0  0  0  0  0  0  0  0  0  0
    0.2685    0.3300    0.0000 C   0  0  0  0  0  0  0  0  0  0  0  0
    0.2685   -0.4950    0.0000 C   0  0  0  0  0  0  0  0  0  0  0  0
    0.9830   -0.9075    0.0000 C   0  0  0  0  0  0  0  0  0  0  0  0
    3.1264    0.3300    0.0000 O   0  0  0  0  0  0  0  0  0  0  0  0
    4.5554   -0.4950    0.0000 C   0  0  0  0  0  0  0  0  0  0  0  0
    5.2698   -0.9075    0.0000 C   0  0  0  0  0  0  0  0  0  0  0  0
    5.9843   -0.4950    0.0000 C   0  0  0  0  0  0  0  0  0  0  0  0
    6.6988   -0.9075    0.0000 C   0  0  0  0  0  0  0  0  0  0  0  0
    7.4132   -0.4950    0.0000 C   0  0  0  0  0  0  0  0  0  0  0  0
  1  2  1  0  0  0  0
  2  3  1  0  0  0  0
  3  4  1  0  0  0  0
  5  4  1  0  0  0  0
  6  5  2  0  0  0  0
  7  6  1  0  0  0  0
  8  7  2  0  0  0  0
  9  8  1  0  0  0  0
  4  9  2  0  0  0  0
  2 10  2  0  0  0  0
  1 11  1  0  0  0  0
 11 12  1  0  0  0  0
 12 13  1  0  0  0  0
 13 14  1  0  0  0  0
 14 15  1  0  0  0  0
M  END
> <ChemID>
100700

> <CAS>
63075-06-9

> <Original_SMILES>
CCCCCOC(=O)Nc1ccccc1

> <preferred_name>
N-Pentyl N-phenylcarbamate

> <dsstox_substance_id>
DTXSID40212403

> <dsstox_compound_id>
DTXCID00134894

> <qc_level>
Public_Medium

> <Canonical_QSARr>
CCCCCOC(=O)NC1C=CC=CC=1

> <InChI_Code_QSARr>
InChI=1S/C12H17NO2/c1-2-3-7-10-15-12(14)13-11-8-5-4-6-9-11/h4-6,8-9H,2-3,7,10H2,1H3,(H,13,14)

> <InChI Key_QSARr>
BIYXGLPPMRDUNY-UHFFFAOYSA-N

> <Salt_Solvent>


> <Salt_Solvent_ID>
0

> <MPID>
99951

> <KocRef>
Schuurmann-Main

> <LogKOC>
2.61

> <Tr_1_Tst_0>
0

$$$$
100702
  Mrv171c012251911022D          

 32 34  0  0  0  0            999 V2000
    8.4794   -0.0524    0.0000 C   0  0  0  0  0  0  0  0  0  0  0  0
    7.7649   -0.4649    0.0000 C   0  0  0  0  0  0  0  0  0  0  0  0
    7.0504   -0.0524    0.0000 C   0  0  0  0  0  0  0  0  0  0  0  0
    6.3359   -0.4649    0.0000 C   0  0  0  0  0  0  0  0  0  0  0  0
    6.3359   -1.2899    0.0000 C   0  0  0  0  0  0  0  0  0  0  0  0
    5.6215   -1.7024    0.0000 O   0  0  0  0  0  0  0  0  0  0  0  0
    5.6215   -2.5274    0.0000 P   0  0  0  0  0  0  0  0  0  0  0  0
    5.6215   -3.3524    0.0000 O   0  0  0  0  0  0  0  0  0  0  0  0
    4.9070   -3.7649    0.0000 C   0  0  0  0  0  0  0  0  0  0  0  0
    4.1925   -3.3524    0.0000 C   0  0  0  0  0  0  0  0  0  0  0  0
    3.4781   -3.7649    0.0000 C   0  0  0  0  0  0  0  0  0  0  0  0
    3.4781   -4.5899    0.0000 C   0  0  0  0  0  0  0  0  0  0  0  0
    4.1925   -5.0024    0.0000 C   0  0  0  0  0  0  0  0  0  0  0  0
    4.9070   -4.5899    0.0000 C   0  0  0  0  0  0  0  0  0  0  0  0
    6.4465   -2.5274    0.0000 O   0  0  0  0  0  0  0  0  0  0  0  0
    6.8590   -3.2419    0.0000 C   0  0  0  0  0  0  0  0  0  0  0  0
    6.4465   -3.9563    0.0000 C   0  0  0  0  0  0  0  0  0  0  0  0
    6.8590   -4.6708    0.0000 C   0  0  0  0  0  0  0  0  0  0  0  0
    7.6840   -4.6708    0.0000 C   0  0  0  0  0  0  0  0  0  0  0  0
    8.0965   -3.9563    0.0000 C   0  0  0  0  0  0  0  0  0  0  0  0
    7.6840   -3.2419    0.0000 C   0  0  0  0  0  0  0  0  0  0  0  0
    4.7965   -2.5274    0.0000 O   0  0  0  0  0  0  0  0  0  0  0  0
    7.0504   -1.7024    0.0000 C   0  0  0  0  0  0  0  0  0  0  0  0
    7.7649   -1.2899    0.0000 C   0  0  0  0  0  0  0  0  0  0  0  0
    9.1938   -0.4649    0.0000 C   0  0  0  0  0  0  0  0  0  0  0  0
    9.9083   -0.0524    0.0000 C   0  0  0  0  0  0  0  0  0  0  0  0
   10.6228   -0.4649    0.0000 C   0  0  0  0  0  0  0  0  0  0  0  0
   11.3372   -0.0524    0.0000 C   0  0  0  0  0  0  0  0  0  0  0  0
   12.0517   -0.4649    0.0000 C   0  0  0  0  0  0  0  0  0  0  0  0
   12.7662   -0.0524    0.0000 C   0  0  0  0  0  0  0  0  0  0  0  0
   13.4807   -0.4649    0.0000 C   0  0  0  0  0  0  0  0  0  0  0  0
   14.1951   -0.0524    0.0000 C   0  0  0  0  0  0  0  0  0  0  0  0
  1  2  1  0  0  0  0
  3  2  2  0  0  0  0
  4  3  1  0  0  0  0
  5  4  2  0  0  0  0
  5  6  1  0  0  0  0
  6  7  1  0  0  0  0
  7  8  1  0  0  0  0
  8  9  1  0  0  0  0
 10  9  2  0  0  0  0
 11 10  1  0  0  0  0
 12 11  2  0  0  0  0
 13 12  1  0  0  0  0
 14 13  2  0  0  0  0
  9 14  1  0  0  0  0
  7 15  1  0  0  0  0
 15 16  1  0  0  0  0
 17 16  2  0  0  0  0
 18 17  1  0  0  0  0
 19 18  2  0  0  0  0
 20 19  1  0  0  0  0
 21 20  2  0  0  0  0
 16 21  1  0  0  0  0
  7 22  2  0  0  0  0
 23  5  1  0  0  0  0
 24 23  2  0  0  0  0
  2 24  1  0  0  0  0
  1 25  1  0  0  0  0
 25 26  1  0  0  0  0
 26 27  1  0  0  0  0
 27 28  1  0  0  0  0
 28 29  1  0  0  0  0
 29 30  1  0  0  0  0
 30 31  1  0  0  0  0
 31 32  1  0  0  0  0
M  END
> <ChemID>
100702

> <CAS>
64532-97-4

> <Original_SMILES>
CCCCCCCCCc1ccc(cc1)OP(=O)(Oc1ccccc1)Oc1ccccc1

> <preferred_name>
Nonylphenyl diphenyl phosphate, mixed isomers

> <dsstox_substance_id>
DTXSID4025797

> <dsstox_compound_id>
DTXCID405797

> <qc_level>
DSSTox_High

> <Canonical_QSARr>
CCCCCCCCCC1C=CC(=CC=1)OP(=O)(OC1C=CC=CC=1)OC1C=CC=CC=1

> <InChI_Code_QSARr>
InChI=1S/C27H33O4P/c1-2-3-4-5-6-7-10-15-24-20-22-27(23-21-24)31-32(28,29-25-16-11-8-12-17-25)30-26-18-13-9-14-19-26/h8-9,11-14,16-23H,2-7,10,15H2,1H3

> <InChI Key_QSARr>
LMCLPMXCYFSRNG-UHFFFAOYSA-N

> <Salt_Solvent>


> <Salt_Solvent_ID>
0

> <MPID>
99952

> <KocRef>
Schuurmann-Main

> <LogKOC>
4.06

> <Tr_1_Tst_0>
1

$$$$
100703
  Mrv171c012251911022D          

 23 24  0  0  0  0            999 V2000
    3.9192   -2.5903    0.0000 S   0  0  0  0  0  0  0  0  0  0  0  0
    4.3317   -1.8758    0.0000 O   0  0  0  0  0  0  0  0  0  0  0  0
    3.5067   -3.3048    0.0000 O   0  0  0  0  0  0  0  0  0  0  0  0
    4.6337   -3.0028    0.0000 C   0  0  0  0  0  0  0  0  0  0  0  0
    4.6337   -3.8278    0.0000 C   0  0  0  0  0  0  0  0  0  0  0  0
    5.3482   -4.2403    0.0000 C   0  0  0  0  0  0  0  0  0  0  0  0
    6.0627   -3.8278    0.0000 C   0  0  0  0  0  0  0  0  0  0  0  0
    6.0627   -3.0028    0.0000 C   0  0  0  0  0  0  0  0  0  0  0  0
    5.3482   -2.5903    0.0000 C   0  0  0  0  0  0  0  0  0  0  0  0
    5.3482   -1.7653    0.0000 Cl  0  0  0  0  0  0  0  0  0  0  0  0
    3.2048   -2.1778    0.0000 N   0  0  0  0  0  0  0  0  0  0  0  0
    3.2048   -1.3528    0.0000 C   0  0  0  0  0  0  0  0  0  0  0  0
    3.9192   -0.9403    0.0000 O   0  0  0  0  0  0  0  0  0  0  0  0
    2.4903   -0.9403    0.0000 N   0  0  0  0  0  0  0  0  0  0  0  0
    2.4903   -0.1153    0.0000 C   0  0  0  0  0  0  0  0  0  0  0  0
    3.2048    0.2972    0.0000 N   0  0  0  0  0  0  0  0  0  0  0  0
    3.2048    1.1222    0.0000 C   0  0  0  0  0  0  0  0  0  0  0  0
    3.9192    1.5347    0.0000 C   0  0  0  0  0  0  0  0  0  0  0  0
    2.4903    1.5347    0.0000 N   0  0  0  0  0  0  0  0  0  0  0  0
    1.7758    1.1222    0.0000 C   0  0  0  0  0  0  0  0  0  0  0  0
    1.0614    1.5347    0.0000 O   0  0  0  0  0  0  0  0  0  0  0  0
    0.3469    1.1222    0.0000 C   0  0  0  0  0  0  0  0  0  0  0  0
    1.7758    0.2972    0.0000 N   0  0  0  0  0  0  0  0  0  0  0  0
  1  2  2  0  0  0  0
  1  3  2  0  0  0  0
  1  4  1  0  0  0  0
  5  4  1  0  0  0  0
  6  5  2  0  0  0  0
  7  6  1  0  0  0  0
  8  7  2  0  0  0  0
  9  8  1  0  0  0  0
  4  9  2  0  0  0  0
  9 10  1  0  0  0  0
  1 11  1  0  0  0  0
 11 12  1  0  0  0  0
 12 13  2  0  0  0  0
 12 14  1  0  0  0  0
 14 15  1  0  0  0  0
 16 15  1  0  0  0  0
 17 16  2  0  0  0  0
 17 18  1  0  0  0  0
 19 17  1  0  0  0  0
 20 19  2  0  0  0  0
 20 21  1  0  0  0  0
 21 22  1  0  0  0  0
 23 20  1  0  0  0  0
 15 23  2  0  0  0  0
M  END
> <ChemID>
100703

> <CAS>
64902-72-3

> <Original_SMILES>
Cc1[n]c(NC(=O)NS(=O)(=O)c2ccccc2Cl)[n]c([n]1)OC

> <preferred_name>
Chlorsulfuron

> <dsstox_substance_id>
DTXSID7023980

> <dsstox_compound_id>
DTXCID503980

> <qc_level>
DSSTox_Low

> <Canonical_QSARr>
CC1N=C(N=C(NC(=O)NS(=O)(=O)C2C=CC=CC=2Cl)N=1)OC

> <InChI_Code_QSARr>
InChI=1S/C12H12ClN5O4S/c1-7-14-10(17-12(15-7)22-2)16-11(19)18-23(20,21)9-6-4-3-5-8(9)13/h3-6H,1-2H3,(H2,14,15,16,17,18,19)

> <InChI Key_QSARr>
VJYIFXVZLXQVHO-UHFFFAOYSA-N

> <Salt_Solvent>


> <Salt_Solvent_ID>
0

> <MPID>
99953

> <KocRef>
Schuurmann-Main

> <LogKOC>
2.19

> <Tr_1_Tst_0>
1

$$$$
100705
  Mrv171c012251911022D          

 12 13  0  0  0  0            999 V2000
    2.4334   -0.6842    0.0000 C   0  0  0  0  0  0  0  0  0  0  0  0
    3.1478   -1.0967    0.0000 N   0  0  0  0  0  0  0  0  0  0  0  0
    3.1478   -1.9217    0.0000 C   0  0  0  0  0  0  0  0  0  0  0  0
    2.7353   -2.6362    0.0000 C   0  0  0  0  0  0  0  0  0  0  0  0
    3.5603   -2.6362    0.0000 C   0  0  0  0  0  0  0  0  0  0  0  0
    2.4334    0.1408    0.0000 N   0  0  0  0  0  0  0  0  0  0  0  0
    1.7189    0.5533    0.0000 C   0  0  0  0  0  0  0  0  0  0  0  0
    1.7189    1.3783    0.0000 N   0  0  0  0  0  0  0  0  0  0  0  0
    1.0044    0.1408    0.0000 N   0  0  0  0  0  0  0  0  0  0  0  0
    1.0044   -0.6842    0.0000 C   0  0  0  0  0  0  0  0  0  0  0  0
    0.2899   -1.0967    0.0000 N   0  0  0  0  0  0  0  0  0  0  0  0
    1.7189   -1.0967    0.0000 N   0  0  0  0  0  0  0  0  0  0  0  0
  1  2  1  0  0  0  0
  2  3  1  0  0  0  0
  4  3  1  0  0  0  0
  5  4  1  0  0  0  0
  3  5  1  0  0  0  0
  6  1  1  0  0  0  0
  7  6  2  0  0  0  0
  7  8  1  0  0  0  0
  9  7  1  0  0  0  0
 10  9  2  0  0  0  0
 10 11  1  0  0  0  0
 12 10  1  0  0  0  0
  1 12  2  0  0  0  0
M  END
> <ChemID>
100705

> <CAS>
66215-27-8

> <Original_SMILES>
Nc1[n]c(NC2CC2)[n]c(N)[n]1

> <preferred_name>
Cyromazine

> <dsstox_substance_id>
DTXSID6023999

> <dsstox_compound_id>
DTXCID403999

> <qc_level>
DSSTox_Low

> <Canonical_QSARr>
NC1=NC(NC2CC2)=NC(N)=N1

> <InChI_Code_QSARr>
InChI=1S/C6H10N6/c7-4-10-5(8)12-6(11-4)9-3-1-2-3/h3H,1-2H2,(H5,7,8,9,10,11,12)

> <InChI Key_QSARr>
LVQDKIWDGQRHTE-UHFFFAOYSA-N

> <Salt_Solvent>


> <Salt_Solvent_ID>
0

> <MPID>
99954

> <KocRef>
Schuurmann-Main

> <LogKOC>
2.3

> <Tr_1_Tst_0>
0

$$$$
100707
  Mrv171c012251911022D          

 25 27  0  0  0  0            999 V2000
    0.6795   -3.0652    0.0000 C   0  0  0  0  0  0  0  0  0  0  0  0
    0.6795   -3.8902    0.0000 O   0  0  0  0  0  0  0  0  0  0  0  0
   -0.0349   -2.6527    0.0000 O   0  0  0  0  0  0  0  0  0  0  0  0
   -0.7494   -3.0652    0.0000 C   0  0  0  0  0  0  0  0  0  0  0  0
   -1.4639   -2.6527    0.0000 C   0  0  0  0  0  0  0  0  0  0  0  0
    1.3940   -2.6527    0.0000 C   0  0  0  0  0  0  0  0  0  0  0  0
    2.1085   -3.0652    0.0000 O   0  0  0  0  0  0  0  0  0  0  0  0
    2.8230   -2.6527    0.0000 C   0  0  0  0  0  0  0  0  0  0  0  0
    3.5374   -3.0652    0.0000 C   0  0  0  0  0  0  0  0  0  0  0  0
    4.2519   -2.6527    0.0000 C   0  0  0  0  0  0  0  0  0  0  0  0
    4.2519   -1.8277    0.0000 C   0  0  0  0  0  0  0  0  0  0  0  0
    4.9664   -1.4152    0.0000 O   0  0  0  0  0  0  0  0  0  0  0  0
    5.6808   -1.8277    0.0000 C   0  0  0  0  0  0  0  0  0  0  0  0
    6.4345   -1.4921    0.0000 O   0  0  0  0  0  0  0  0  0  0  0  0
    6.9866   -2.1052    0.0000 C   0  0  0  0  0  0  0  0  0  0  0  0
    7.8116   -2.1052    0.0000 C   0  0  0  0  0  0  0  0  0  0  0  0
    8.2241   -2.8197    0.0000 C   0  0  0  0  0  0  0  0  0  0  0  0
    9.0491   -2.8197    0.0000 Cl  0  0  0  0  0  0  0  0  0  0  0  0
    7.8116   -3.5342    0.0000 C   0  0  0  0  0  0  0  0  0  0  0  0
    6.9866   -3.5342    0.0000 C   0  0  0  0  0  0  0  0  0  0  0  0
    6.5741   -2.8197    0.0000 C   0  0  0  0  0  0  0  0  0  0  0  0
    5.7671   -2.6482    0.0000 N   0  0  0  0  0  0  0  0  0  0  0  0
    3.5374   -1.4152    0.0000 C   0  0  0  0  0  0  0  0  0  0  0  0
    2.8230   -1.8277    0.0000 C   0  0  0  0  0  0  0  0  0  0  0  0
    1.3940   -1.8277    0.0000 C   0  0  0  0  0  0  0  0  0  0  0  0
  1  2  2  0  0  0  0
  1  3  1  0  0  0  0
  3  4  1  0  0  0  0
  4  5  1  0  0  0  0
  1  6  1  0  0  0  0
  6  7  1  0  0  0  0
  7  8  1  0  0  0  0
  9  8  1  0  0  0  0
 10  9  2  0  0  0  0
 11 10  1  0  0  0  0
 11 12  1  0  0  0  0
 12 13  1  0  0  0  0
 14 13  1  0  0  0  0
 15 14  1  0  0  0  0
 15 16  1  0  0  0  0
 16 17  2  0  0  0  0
 17 18  1  0  0  0  0
 17 19  1  0  0  0  0
 19 20  2  0  0  0  0
 20 21  1  0  0  0  0
 21 15  2  0  0  0  0
 22 21  1  0  0  0  0
 13 22  2  0  0  0  0
 23 11  2  0  0  0  0
 24 23  1  0  0  0  0
  8 24  2  0  0  0  0
  6 25  1  0  0  0  0
M  END
> <ChemID>
100707

> <CAS>
66441-23-4

> <Original_SMILES>
CCOC(=O)C(C)Oc1ccc(cc1)Oc1[n]c2ccc(Cl)cc2o1

> <preferred_name>
Fenoxaprop-ethyl

> <dsstox_substance_id>
DTXSID2032392

> <dsstox_compound_id>
DTXCID0012392

> <qc_level>
DSSTox_High

> <Canonical_QSARr>
CCOC(=O)C(C)OC1C=CC(=CC=1)OC1=NC2C=CC(Cl)=CC=2O1

> <InChI_Code_QSARr>
InChI=1S/C18H16ClNO5/c1-3-22-17(21)11(2)23-13-5-7-14(8-6-13)24-18-20-15-9-4-12(19)10-16(15)25-18/h4-11H,3H2,1-2H3

> <InChI Key_QSARr>
PQKBPHSEKWERTG-UHFFFAOYSA-N

> <Salt_Solvent>


> <Salt_Solvent_ID>
0

> <MPID>
99956

> <KocRef>
Schuurmann-Main

> <LogKOC>
3.98

> <Tr_1_Tst_0>
1

$$$$
100708
  Mrv171c012251911022D          

 30 32  0  0  0  0            999 V2000
    1.8808   -1.7271    0.0000 C   0  0  0  0  0  0  0  0  0  0  0  0
    2.5953   -2.1396    0.0000 C   0  0  0  0  0  0  0  0  0  0  0  0
    2.5953   -2.9646    0.0000 O   0  0  0  0  0  0  0  0  0  0  0  0
    3.3098   -3.3771    0.0000 C   0  0  0  0  0  0  0  0  0  0  0  0
    3.3098   -4.2021    0.0000 C   0  0  0  0  0  0  0  0  0  0  0  0
    2.5953   -4.6146    0.0000 C   0  0  0  0  0  0  0  0  0  0  0  0
    2.5953   -5.4396    0.0000 C   0  0  0  0  0  0  0  0  0  0  0  0
    3.3098   -5.8521    0.0000 C   0  0  0  0  0  0  0  0  0  0  0  0
    4.0243   -5.4396    0.0000 C   0  0  0  0  0  0  0  0  0  0  0  0
    4.7387   -5.8521    0.0000 O   0  0  0  0  0  0  0  0  0  0  0  0
    4.7387   -6.6771    0.0000 C   0  0  0  0  0  0  0  0  0  0  0  0
    4.0243   -7.0896    0.0000 C   0  0  0  0  0  0  0  0  0  0  0  0
    4.0243   -7.9146    0.0000 C   0  0  0  0  0  0  0  0  0  0  0  0
    4.7387   -8.3271    0.0000 C   0  0  0  0  0  0  0  0  0  0  0  0
    5.4532   -7.9146    0.0000 C   0  0  0  0  0  0  0  0  0  0  0  0
    5.4532   -7.0896    0.0000 C   0  0  0  0  0  0  0  0  0  0  0  0
    4.0243   -4.6146    0.0000 C   0  0  0  0  0  0  0  0  0  0  0  0
    4.0243   -2.9646    0.0000 C   0  0  0  0  0  0  0  0  0  0  0  0
    4.7387   -2.5521    0.0000 N   0  0  0  0  0  0  0  0  0  0  0  0
    3.3098   -1.7271    0.0000 O   0  0  0  0  0  0  0  0  0  0  0  0
    1.4683   -1.0126    0.0000 C   0  0  0  0  0  0  0  0  0  0  0  0
    1.4683   -0.1876    0.0000 C   0  0  0  0  0  0  0  0  0  0  0  0
    2.1828    0.2249    0.0000 Br  0  0  0  0  0  0  0  0  0  0  0  0
    0.7539    0.2249    0.0000 C   0  0  0  0  0  0  0  0  0  0  0  0
    0.0394    0.6374    0.0000 Br  0  0  0  0  0  0  0  0  0  0  0  0
    1.1664    0.9394    0.0000 Br  0  0  0  0  0  0  0  0  0  0  0  0
    0.3414   -0.4896    0.0000 Br  0  0  0  0  0  0  0  0  0  0  0  0
    1.0558   -1.7271    0.0000 C   0  0  0  0  0  0  0  0  0  0  0  0
    0.2340   -1.6552    0.0000 C   0  0  0  0  0  0  0  0  0  0  0  0
    0.7072   -2.4748    0.0000 C   0  0  0  0  0  0  0  0  0  0  0  0
  1  2  1  0  0  0  0
  2  3  1  0  0  0  0
  3  4  1  0  0  0  0
  4  5  1  0  0  0  0
  6  5  1  0  0  0  0
  7  6  2  0  0  0  0
  8  7  1  0  0  0  0
  9  8  2  0  0  0  0
  9 10  1  0  0  0  0
 10 11  1  0  0  0  0
 12 11  1  0  0  0  0
 13 12  2  0  0  0  0
 14 13  1  0  0  0  0
 15 14  2  0  0  0  0
 16 15  1  0  0  0  0
 11 16  2  0  0  0  0
 17  9  1  0  0  0  0
  5 17  2  0  0  0  0
  4 18  1  0  0  0  0
 18 19  3  0  0  0  0
  2 20  2  0  0  0  0
 21  1  1  0  0  0  0
 21 22  1  0  0  0  0
 22 23  1  0  0  0  0
 22 24  1  0  0  0  0
 24 25  1  0  0  0  0
 24 26  1  0  0  0  0
 24 27  1  0  0  0  0
 28 21  1  0  0  0  0
  1 28  1  0  0  0  0
 28 29  1  0  0  0  0
 28 30  1  0  0  0  0
M  END
> <ChemID>
100708

> <CAS>
66841-25-6

> <Original_SMILES>
CC1(C)[C@H]([C@H]1C(=O)O[C@H](C#N)c1cccc(c1)Oc1ccccc1)C(Br)C(Br)(Br)Br

> <preferred_name>
Tralomethrin

> <dsstox_substance_id>
DTXSID0024343

> <dsstox_compound_id>
DTXCID404343

> <qc_level>
DSSTox_Low

> <Canonical_QSARr>
CC1(C)C(C1C(=O)OC(C#N)C1C=CC=C(C=1)OC1C=CC=CC=1)C(Br)C(Br)(Br)Br

> <InChI_Code_QSARr>
InChI=1S/C22H19Br4NO3/c1-21(2)17(19(23)22(24,25)26)18(21)20(28)30-16(12-27)13-7-6-10-15(11-13)29-14-8-4-3-5-9-14/h3-11,16-19H,1-2H3

> <InChI Key_QSARr>
YWSCPYYRJXKUDB-UHFFFAOYSA-N

> <Salt_Solvent>


> <Salt_Solvent_ID>
0

> <MPID>
99957

> <KocRef>
Schuurmann-Main

> <LogKOC>
5.0

> <Tr_1_Tst_0>
1

$$$$
100709
  Mrv171c012251911022D          

 35 37  0  0  0  0            999 V2000
   -0.8986   -1.8430    0.0000 C   0  0  0  0  0  0  0  0  0  0  0  0
   -1.4289   -2.4750    0.0000 C   0  0  0  0  0  0  0  0  0  0  0  0
   -1.9592   -1.8430    0.0000 C   0  0  0  0  0  0  0  0  0  0  0  0
   -0.7145   -2.8875    0.0000 C   0  0  0  0  0  0  0  0  0  0  0  0
   -0.7145   -3.7125    0.0000 N   0  0  0  0  0  0  0  0  0  0  0  0
   -1.4289   -4.1250    0.0000 C   0  0  0  0  0  0  0  0  0  0  0  0
   -2.1434   -3.7125    0.0000 N   0  0  0  0  0  0  0  0  0  0  0  0
   -2.1434   -2.8875    0.0000 C   0  0  0  0  0  0  0  0  0  0  0  0
   -1.4289   -4.9500    0.0000 N   0  0  0  0  0  0  0  0  0  0  0  0
   -2.1434   -5.3625    0.0000 N   0  0  0  0  0  0  0  0  0  0  0  0
   -2.1434   -6.1875    0.0000 C   0  0  0  0  0  0  0  0  0  0  0  0
   -2.8579   -6.6000    0.0000 C   0  0  0  0  0  0  0  0  0  0  0  0
   -2.8579   -7.4250    0.0000 C   0  0  0  0  0  0  0  0  0  0  0  0
   -3.5724   -7.8375    0.0000 C   0  0  0  0  0  0  0  0  0  0  0  0
   -3.5724   -8.6625    0.0000 C   0  0  0  0  0  0  0  0  0  0  0  0
   -4.2868   -9.0750    0.0000 C   0  0  0  0  0  0  0  0  0  0  0  0
   -5.0013   -8.6625    0.0000 C   0  0  0  0  0  0  0  0  0  0  0  0
   -5.0013   -7.8375    0.0000 C   0  0  0  0  0  0  0  0  0  0  0  0
   -4.2868   -7.4250    0.0000 C   0  0  0  0  0  0  0  0  0  0  0  0
   -5.7158   -9.0750    0.0000 C   0  0  0  0  0  0  0  0  0  0  0  0
   -6.4302   -9.4875    0.0000 F   0  0  0  0  0  0  0  0  0  0  0  0
   -5.3033   -9.7895    0.0000 F   0  0  0  0  0  0  0  0  0  0  0  0
   -6.1283   -8.3605    0.0000 F   0  0  0  0  0  0  0  0  0  0  0  0
   -1.4289   -6.6000    0.0000 C   0  0  0  0  0  0  0  0  0  0  0  0
   -0.7145   -6.1875    0.0000 C   0  0  0  0  0  0  0  0  0  0  0  0
   -0.0000   -6.6000    0.0000 C   0  0  0  0  0  0  0  0  0  0  0  0
    0.7145   -6.1875    0.0000 C   0  0  0  0  0  0  0  0  0  0  0  0
    1.4289   -6.6000    0.0000 C   0  0  0  0  0  0  0  0  0  0  0  0
    1.4289   -7.4250    0.0000 C   0  0  0  0  0  0  0  0  0  0  0  0
    0.7145   -7.8375    0.0000 C   0  0  0  0  0  0  0  0  0  0  0  0
   -0.0000   -7.4250    0.0000 C   0  0  0  0  0  0  0  0  0  0  0  0
    2.1434   -7.8375    0.0000 C   0  0  0  0  0  0  0  0  0  0  0  0
    2.8579   -8.2500    0.0000 F   0  0  0  0  0  0  0  0  0  0  0  0
    1.7309   -8.5520    0.0000 F   0  0  0  0  0  0  0  0  0  0  0  0
    2.5559   -7.1230    0.0000 F   0  0  0  0  0  0  0  0  0  0  0  0
  1  2  1  0  0  0  0
  2  3  1  0  0  0  0
  2  4  1  0  0  0  0
  4  5  1  0  0  0  0
  5  6  1  0  0  0  0
  6  7  1  0  0  0  0
  7  8  1  0  0  0  0
  2  8  1  0  0  0  0
  6  9  2  0  0  0  0
  9 10  1  0  0  0  0
 10 11  2  0  0  0  0
 12 11  1  4  0  0  0
 12 13  2  0  0  0  0
 13 14  1  0  0  0  0
 14 15  1  0  0  0  0
 15 16  2  0  0  0  0
 16 17  1  0  0  0  0
 17 18  2  0  0  0  0
 18 19  1  0  0  0  0
 14 19  2  0  0  0  0
 17 20  1  0  0  0  0
 20 21  1  0  0  0  0
 20 22  1  0  0  0  0
 20 23  1  0  0  0  0
 24 11  1  4  0  0  0
 24 25  2  0  0  0  0
 25 26  1  0  0  0  0
 26 27  1  0  0  0  0
 27 28  2  0  0  0  0
 28 29  1  0  0  0  0
 29 30  2  0  0  0  0
 30 31  1  0  0  0  0
 26 31  2  0  0  0  0
 29 32  1  0  0  0  0
 32 33  1  0  0  0  0
 32 34  1  0  0  0  0
 32 35  1  0  0  0  0
M  END
> <ChemID>
100709

> <CAS>
67485-29-4

> <Original_SMILES>
CC1(C)CNC(NC1)=NN=C(/C=C/c1ccc(cc1)C(F)(F)F)/C=C/c1ccc(cc1)C(F)(F)F

> <preferred_name>
Hydramethylnon

> <dsstox_substance_id>
DTXSID6023868

> <dsstox_compound_id>
DTXCID903868

> <qc_level>
DSSTox_Low

> <Canonical_QSARr>
CC1(C)CNC(NC1)=NN=C(C=CC1C=CC(=CC=1)C(F)(F)F)C=CC1C=CC(=CC=1)C(F)(F)F

> <InChI_Code_QSARr>
InChI=1S/C25H24F6N4/c1-23(2)15-32-22(33-16-23)35-34-21(13-7-17-3-9-19(10-4-17)24(26,27)28)14-8-18-5-11-20(12-6-18)25(29,30)31/h3-14H,15-16H2,1-2H3,(H2,32,33,35)

> <InChI Key_QSARr>
IQVNEKKDSLOHHK-UHFFFAOYSA-N

> <Salt_Solvent>


> <Salt_Solvent_ID>
0

> <MPID>
99958

> <KocRef>
Schuurmann-Main

> <LogKOC>
5.86

> <Tr_1_Tst_0>
1

$$$$
100710
  Mrv171c012251911022D          

 23 24  0  0  0  0            999 V2000
    1.0399   -4.0341    0.0000 N   0  0  0  0  0  0  0  0  0  0  0  0
    0.5550   -3.3667    0.0000 C   0  0  0  0  0  0  0  0  0  0  0  0
   -0.2297   -3.6216    0.0000 C   0  0  0  0  0  0  0  0  0  0  0  0
   -0.2297   -4.4466    0.0000 N   0  0  0  0  0  0  0  0  0  0  0  0
    0.5550   -4.7016    0.0000 C   0  0  0  0  0  0  0  0  0  0  0  0
    1.8649   -4.0341    0.0000 C   0  0  0  0  0  0  0  0  0  0  0  0
    2.2774   -4.7486    0.0000 O   0  0  0  0  0  0  0  0  0  0  0  0
    2.2774   -3.3196    0.0000 N   0  0  0  0  0  0  0  0  0  0  0  0
    1.8649   -2.6052    0.0000 C   0  0  0  0  0  0  0  0  0  0  0  0
    1.0399   -2.6052    0.0000 C   0  0  0  0  0  0  0  0  0  0  0  0
    0.6274   -1.8907    0.0000 C   0  0  0  0  0  0  0  0  0  0  0  0
    3.1024   -3.3196    0.0000 C   0  0  0  0  0  0  0  0  0  0  0  0
    3.5149   -2.6052    0.0000 C   0  0  0  0  0  0  0  0  0  0  0  0
    4.3399   -2.6052    0.0000 O   0  0  0  0  0  0  0  0  0  0  0  0
    4.7524   -1.8907    0.0000 C   0  0  0  0  0  0  0  0  0  0  0  0
    5.5774   -1.8907    0.0000 C   0  0  0  0  0  0  0  0  0  0  0  0
    5.9899   -2.6052    0.0000 Cl  0  0  0  0  0  0  0  0  0  0  0  0
    5.9899   -1.1762    0.0000 C   0  0  0  0  0  0  0  0  0  0  0  0
    5.5774   -0.4618    0.0000 C   0  0  0  0  0  0  0  0  0  0  0  0
    5.9899    0.2527    0.0000 Cl  0  0  0  0  0  0  0  0  0  0  0  0
    4.7524   -0.4618    0.0000 C   0  0  0  0  0  0  0  0  0  0  0  0
    4.3399   -1.1762    0.0000 C   0  0  0  0  0  0  0  0  0  0  0  0
    3.5149   -1.1762    0.0000 Cl  0  0  0  0  0  0  0  0  0  0  0  0
  2  1  1  0  0  0  0
  3  2  2  0  0  0  0
  4  3  1  0  0  0  0
  5  4  2  0  0  0  0
  1  5  1  0  0  0  0
  1  6  1  0  0  0  0
  6  7  2  0  0  0  0
  6  8  1  0  0  0  0
  8  9  1  0  0  0  0
  9 10  1  0  0  0  0
 10 11  1  0  0  0  0
  8 12  1  0  0  0  0
 12 13  1  0  0  0  0
 13 14  1  0  0  0  0
 14 15  1  0  0  0  0
 16 15  1  0  0  0  0
 16 17  1  0  0  0  0
 18 16  2  0  0  0  0
 19 18  1  0  0  0  0
 19 20  1  0  0  0  0
 21 19  2  0  0  0  0
 22 21  1  0  0  0  0
 15 22  2  0  0  0  0
 22 23  1  0  0  0  0
M  END
> <ChemID>
100710

> <CAS>
67747-09-5

> <Original_SMILES>
CCCN(CCOc1c(Cl)cc(Cl)cc1Cl)C(=O)[n]1cc[n]c1

> <preferred_name>
Prochloraz

> <dsstox_substance_id>
DTXSID4024270

> <dsstox_compound_id>
DTXCID904270

> <qc_level>
DSSTox_High

> <Canonical_QSARr>
CCCN(CCOC1C(Cl)=CC(Cl)=CC=1Cl)C(=O)N1C=CN=C1

> <InChI_Code_QSARr>
InChI=1S/C15H16Cl3N3O2/c1-2-4-20(15(22)21-5-3-19-10-21)6-7-23-14-12(17)8-11(16)9-13(14)18/h3,5,8-10H,2,4,6-7H2,1H3

> <InChI Key_QSARr>
TVLSRXXIMLFWEO-UHFFFAOYSA-N

> <Salt_Solvent>


> <Salt_Solvent_ID>
0

> <MPID>
99959

> <KocRef>
Schuurmann-Main

> <LogKOC>
2.7

> <Tr_1_Tst_0>
0

$$$$
100711
  Mrv171c012251911022D          

 31 33  0  0  0  0            999 V2000
    2.3629   -1.6427    0.0000 C   0  0  0  0  0  0  0  0  0  0  0  0
    1.7309   -2.1730    0.0000 C   0  0  0  0  0  0  0  0  0  0  0  0
    1.0989   -1.6427    0.0000 C   0  0  0  0  0  0  0  0  0  0  0  0
    2.1434   -2.8875    0.0000 C   0  0  0  0  0  0  0  0  0  0  0  0
    1.3184   -2.8875    0.0000 C   0  0  0  0  0  0  0  0  0  0  0  0
    0.6039   -3.3000    0.0000 C   0  0  0  0  0  0  0  0  0  0  0  0
   -0.1105   -2.8875    0.0000 C   0  0  0  0  0  0  0  0  0  0  0  0
   -0.1105   -2.0625    0.0000 Cl  0  0  0  0  0  0  0  0  0  0  0  0
   -0.8250   -3.3000    0.0000 C   0  0  0  0  0  0  0  0  0  0  0  0
   -1.5395   -3.7125    0.0000 F   0  0  0  0  0  0  0  0  0  0  0  0
   -0.4125   -4.0145    0.0000 F   0  0  0  0  0  0  0  0  0  0  0  0
   -1.2375   -2.5855    0.0000 F   0  0  0  0  0  0  0  0  0  0  0  0
    2.8579   -3.3000    0.0000 C   0  0  0  0  0  0  0  0  0  0  0  0
    3.5724   -2.8875    0.0000 O   0  0  0  0  0  0  0  0  0  0  0  0
    2.8579   -4.1250    0.0000 O   0  0  0  0  0  0  0  0  0  0  0  0
    3.5724   -4.5375    0.0000 C   0  0  0  0  0  0  0  0  0  0  0  0
    4.2868   -4.1250    0.0000 C   0  0  0  0  0  0  0  0  0  0  0  0
    5.0013   -3.7125    0.0000 N   0  0  0  0  0  0  0  0  0  0  0  0
    3.5724   -5.3625    0.0000 C   0  0  0  0  0  0  0  0  0  0  0  0
    4.2868   -5.7750    0.0000 C   0  0  0  0  0  0  0  0  0  0  0  0
    4.2868   -6.6000    0.0000 C   0  0  0  0  0  0  0  0  0  0  0  0
    3.5724   -7.0125    0.0000 C   0  0  0  0  0  0  0  0  0  0  0  0
    2.8579   -6.6000    0.0000 C   0  0  0  0  0  0  0  0  0  0  0  0
    2.8579   -5.7750    0.0000 C   0  0  0  0  0  0  0  0  0  0  0  0
    5.0013   -7.0125    0.0000 O   0  0  0  0  0  0  0  0  0  0  0  0
    5.0013   -7.8375    0.0000 C   0  0  0  0  0  0  0  0  0  0  0  0
    5.7158   -8.2500    0.0000 C   0  0  0  0  0  0  0  0  0  0  0  0
    5.7158   -9.0750    0.0000 C   0  0  0  0  0  0  0  0  0  0  0  0
    5.0013   -9.4875    0.0000 C   0  0  0  0  0  0  0  0  0  0  0  0
    4.2868   -9.0750    0.0000 C   0  0  0  0  0  0  0  0  0  0  0  0
    4.2868   -8.2500    0.0000 C   0  0  0  0  0  0  0  0  0  0  0  0
  1  2  1  0  0  0  0
  2  3  1  0  0  0  0
  2  4  1  0  0  0  0
  4  5  1  0  0  0  0
  2  5  1  0  0  0  0
  6  5  1  4  0  0  0
  6  7  2  0  0  0  0
  7  8  1  0  0  0  0
  7  9  1  0  0  0  0
  9 10  1  0  0  0  0
  9 11  1  0  0  0  0
  9 12  1  0  0  0  0
  4 13  1  0  0  0  0
 13 14  2  0  0  0  0
 13 15  1  0  0  0  0
 15 16  1  0  0  0  0
 16 17  1  0  0  0  0
 17 18  3  0  0  0  0
 16 19  1  0  0  0  0
 19 20  1  0  0  0  0
 20 21  2  0  0  0  0
 21 22  1  0  0  0  0
 22 23  2  0  0  0  0
 23 24  1  0  0  0  0
 19 24  2  0  0  0  0
 21 25  1  0  0  0  0
 25 26  1  0  0  0  0
 26 27  1  0  0  0  0
 27 28  2  0  0  0  0
 28 29  1  0  0  0  0
 29 30  2  0  0  0  0
 30 31  1  0  0  0  0
 26 31  2  0  0  0  0
M  END
> <ChemID>
100711

> <CAS>
68085-85-8|91465-08-6

> <Original_SMILES>
CC1(C)[C@H]([C@H]1/C=C(\Cl)/C(F)(F)F)C(=O)O[C@H](C#N)c1cccc(c1)Oc1ccccc1

> <preferred_name>
Cyhalothrin|lambda-Cyhalothrin

> <dsstox_substance_id>
DTXSID6023997|DTXSID7032559

> <dsstox_compound_id>
DTXCID603997|DTXCID00196593

> <qc_level>
DSSTox_Low

> <Canonical_QSARr>
CC1(C)C(C1C=C(Cl)C(F)(F)F)C(=O)OC(C#N)C1C=C(C=CC=1)OC1C=CC=CC=1

> <InChI_Code_QSARr>
InChI=1S/C23H19ClF3NO3/c1-22(2)17(12-19(24)23(25,26)27)20(22)21(29)31-18(13-28)14-7-6-10-16(11-14)30-15-8-4-3-5-9-15/h3-12,17-18,20H,1-2H3

> <InChI Key_QSARr>
ZXQYGBMAQZUVMI-UHFFFAOYSA-N

> <Salt_Solvent>


> <Salt_Solvent_ID>
0

> <MPID>
99960|100003

> <KocRef>
Schuurmann-Main|USDA Pest Prop DB

> <LogKOC>
5.26

> <Tr_1_Tst_0>
1

$$$$
100712
  Mrv171c012251911022D          

 29 31  0  0  0  0            999 V2000
    3.2491    0.8671    0.0000 C   0  0  0  0  0  0  0  0  0  0  0  0
    3.1058    0.0547    0.0000 C   0  0  0  0  0  0  0  0  0  0  0  0
    2.4738    1.1493    0.0000 C   0  0  0  0  0  0  0  0  0  0  0  0
    4.0741    0.8671    0.0000 C   0  0  0  0  0  0  0  0  0  0  0  0
    4.7885    0.4546    0.0000 C   0  0  0  0  0  0  0  0  0  0  0  0
    5.5030    0.8671    0.0000 O   0  0  0  0  0  0  0  0  0  0  0  0
    4.7885   -0.3704    0.0000 O   0  0  0  0  0  0  0  0  0  0  0  0
    5.5030   -0.7829    0.0000 C   0  0  0  0  0  0  0  0  0  0  0  0
    6.2175   -0.3704    0.0000 C   0  0  0  0  0  0  0  0  0  0  0  0
    6.9319    0.0421    0.0000 N   0  0  0  0  0  0  0  0  0  0  0  0
    5.5030   -1.6079    0.0000 C   0  0  0  0  0  0  0  0  0  0  0  0
    4.7885   -2.0204    0.0000 C   0  0  0  0  0  0  0  0  0  0  0  0
    4.7885   -2.8454    0.0000 C   0  0  0  0  0  0  0  0  0  0  0  0
    5.5030   -3.2579    0.0000 C   0  0  0  0  0  0  0  0  0  0  0  0
    5.5030   -4.0829    0.0000 F   0  0  0  0  0  0  0  0  0  0  0  0
    6.2175   -2.8454    0.0000 C   0  0  0  0  0  0  0  0  0  0  0  0
    6.9319   -3.2579    0.0000 O   0  0  0  0  0  0  0  0  0  0  0  0
    6.9319   -4.0829    0.0000 C   0  0  0  0  0  0  0  0  0  0  0  0
    6.2175   -4.4954    0.0000 C   0  0  0  0  0  0  0  0  0  0  0  0
    6.2175   -5.3204    0.0000 C   0  0  0  0  0  0  0  0  0  0  0  0
    6.9319   -5.7329    0.0000 C   0  0  0  0  0  0  0  0  0  0  0  0
    7.6464   -5.3204    0.0000 C   0  0  0  0  0  0  0  0  0  0  0  0
    7.6464   -4.4954    0.0000 C   0  0  0  0  0  0  0  0  0  0  0  0
    6.2175   -2.0204    0.0000 C   0  0  0  0  0  0  0  0  0  0  0  0
    3.6616    1.5816    0.0000 C   0  0  0  0  0  0  0  0  0  0  0  0
    3.6616    2.4066    0.0000 C   0  0  0  0  0  0  0  0  0  0  0  0
    4.3760    2.8191    0.0000 C   0  0  0  0  0  0  0  0  0  0  0  0
    4.3760    3.6441    0.0000 Cl  0  0  0  0  0  0  0  0  0  0  0  0
    5.0905    2.4066    0.0000 Cl  0  0  0  0  0  0  0  0  0  0  0  0
  1  2  1  0  0  0  0
  1  3  1  0  0  0  0
  4  1  1  0  0  0  0
  4  5  1  0  0  0  0
  5  6  2  0  0  0  0
  5  7  1  0  0  0  0
  7  8  1  0  0  0  0
  8  9  1  0  0  0  0
  9 10  3  0  0  0  0
  8 11  1  0  0  0  0
 12 11  2  0  0  0  0
 13 12  1  0  0  0  0
 14 13  2  0  0  0  0
 14 15  1  0  0  0  0
 16 14  1  0  0  0  0
 16 17  1  0  0  0  0
 17 18  1  0  0  0  0
 19 18  2  0  0  0  0
 20 19  1  0  0  0  0
 21 20  2  0  0  0  0
 22 21  1  0  0  0  0
 23 22  2  0  0  0  0
 18 23  1  0  0  0  0
 24 16  2  0  0  0  0
 11 24  1  0  0  0  0
 25  4  1  0  0  0  0
  1 25  1  0  0  0  0
 25 26  1  0  0  0  0
 26 27  2  0  0  0  0
 27 28  1  0  0  0  0
 27 29  1  0  0  0  0
M  END
> <ChemID>
100712

> <CAS>
68359-37-5

> <Original_SMILES>
CC1(C)C(C1C=C(Cl)Cl)C(=O)OC(C#N)c1ccc(F)c(c1)Oc1ccccc1

> <preferred_name>
Cyfluthrin

> <dsstox_substance_id>
DTXSID5035957

> <dsstox_compound_id>
DTXCID6028078

> <qc_level>
DSSTox_High

> <Canonical_QSARr>
CC1(C)C(C1C=C(Cl)Cl)C(=O)OC(C#N)C1C=C(OC2C=CC=CC=2)C(F)=CC=1

> <InChI_Code_QSARr>
InChI=1S/C22H18Cl2FNO3/c1-22(2)15(11-19(23)24)20(22)21(27)29-18(12-26)13-8-9-16(25)17(10-13)28-14-6-4-3-5-7-14/h3-11,15,18,20H,1-2H3

> <InChI Key_QSARr>
QQODLKZGRKWIFG-UHFFFAOYSA-N

> <Salt_Solvent>


> <Salt_Solvent_ID>
0

> <MPID>
99961

> <KocRef>
Schuurmann-Main

> <LogKOC>
5.0

> <Tr_1_Tst_0>
1

$$$$
100713
  Mrv171c012251911022D          

 11 11  0  0  0  0            999 V2000
    4.7560    0.5558    0.0000 Cl  0  0  0  0  0  0  0  0  0  0  0  0
    4.0416    0.1433    0.0000 C   0  0  0  0  0  0  0  0  0  0  0  0
    3.3271    0.5558    0.0000 C   0  0  0  0  0  0  0  0  0  0  0  0
    3.3271    1.3808    0.0000 S   0  0  0  0  0  0  0  0  0  0  0  0
    2.6126    1.7933    0.0000 C   0  0  0  0  0  0  0  0  0  0  0  0
    2.6126    0.1433    0.0000 C   0  0  0  0  0  0  0  0  0  0  0  0
    1.8981    0.5558    0.0000 N   0  0  0  0  0  0  0  0  0  0  0  0
    2.6126   -0.6817    0.0000 N   0  0  0  0  0  0  0  0  0  0  0  0
    3.3271   -1.0942    0.0000 C   0  0  0  0  0  0  0  0  0  0  0  0
    3.3271   -1.9192    0.0000 N   0  0  0  0  0  0  0  0  0  0  0  0
    4.0416   -0.6817    0.0000 N   0  0  0  0  0  0  0  0  0  0  0  0
  1  2  1  0  0  0  0
  3  2  1  0  0  0  0
  3  4  1  0  0  0  0
  4  5  1  0  0  0  0
  6  3  2  0  0  0  0
  6  7  1  0  0  0  0
  8  6  1  0  0  0  0
  9  8  2  0  0  0  0
  9 10  1  0  0  0  0
 11  9  1  0  0  0  0
  2 11  2  0  0  0  0
M  END
> <ChemID>
100713

> <CAS>
68925-41-7

> <Original_SMILES>
CSc1c(Cl)[n]c(N)[n]c1N

> <preferred_name>
Tioclorim [ISO]

> <dsstox_substance_id>
DTXSID30218994

> <dsstox_compound_id>
DTXCID80141485

> <qc_level>
Public_Medium

> <Canonical_QSARr>
CSC1C(Cl)=NC(N)=NC=1N

> <InChI_Code_QSARr>
InChI=1S/C5H7ClN4S/c1-11-2-3(6)9-5(8)10-4(2)7/h1H3,(H4,7,8,9,10)

> <InChI Key_QSARr>
QQRJUWIHLNBDQF-UHFFFAOYSA-N

> <Salt_Solvent>


> <Salt_Solvent_ID>
0

> <MPID>
99962

> <KocRef>
SRC 1992 Supplement

> <LogKOC>
2.08

> <Tr_1_Tst_0>
1

$$$$
100714
  Mrv171c012251911022D          

 35 37  0  0  0  0            999 V2000
    4.4804   -1.5479    0.0000 C   0  0  0  0  0  0  0  0  0  0  0  0
    4.4804   -0.7229    0.0000 C   0  0  0  0  0  0  0  0  0  0  0  0
    3.7659   -0.3104    0.0000 C   0  0  0  0  0  0  0  0  0  0  0  0
    3.0514   -0.7229    0.0000 C   0  0  0  0  0  0  0  0  0  0  0  0
    3.0514   -1.5479    0.0000 C   0  0  0  0  0  0  0  0  0  0  0  0
    2.3370   -1.9604    0.0000 O   0  0  0  0  0  0  0  0  0  0  0  0
    1.6225   -1.5479    0.0000 C   0  0  0  0  0  0  0  0  0  0  0  0
    1.6225   -0.7229    0.0000 C   0  0  0  0  0  0  0  0  0  0  0  0
    0.9080   -0.3104    0.0000 C   0  0  0  0  0  0  0  0  0  0  0  0
    0.1936   -0.7229    0.0000 C   0  0  0  0  0  0  0  0  0  0  0  0
    0.1936   -1.5479    0.0000 C   0  0  0  0  0  0  0  0  0  0  0  0
    0.9080   -1.9604    0.0000 C   0  0  0  0  0  0  0  0  0  0  0  0
    3.7659   -1.9604    0.0000 C   0  0  0  0  0  0  0  0  0  0  0  0
    5.1949   -1.9604    0.0000 C   0  0  0  0  0  0  0  0  0  0  0  0
    5.1949   -2.7854    0.0000 C   0  0  0  0  0  0  0  0  0  0  0  0
    5.1949   -3.6104    0.0000 N   0  0  0  0  0  0  0  0  0  0  0  0
    5.9093   -1.5479    0.0000 O   0  0  0  0  0  0  0  0  0  0  0  0
    6.6238   -1.9604    0.0000 C   0  0  0  0  0  0  0  0  0  0  0  0
    6.6238   -2.7854    0.0000 O   0  0  0  0  0  0  0  0  0  0  0  0
    7.3383   -1.5479    0.0000 C   0  0  0  0  0  0  0  0  0  0  0  0
    7.3383   -0.7229    0.0000 C   0  0  0  0  0  0  0  0  0  0  0  0
    8.0527   -0.3104    0.0000 C   0  0  0  0  0  0  0  0  0  0  0  0
    6.6238   -0.3104    0.0000 C   0  0  0  0  0  0  0  0  0  0  0  0
    8.0527   -1.9604    0.0000 N   0  0  0  0  0  0  0  0  0  0  0  0
    8.0527   -2.7854    0.0000 C   0  0  0  0  0  0  0  0  0  0  0  0
    7.3383   -3.1979    0.0000 C   0  0  0  0  0  0  0  0  0  0  0  0
    7.3383   -4.0229    0.0000 C   0  0  0  0  0  0  0  0  0  0  0  0
    8.0527   -4.4354    0.0000 C   0  0  0  0  0  0  0  0  0  0  0  0
    8.0527   -5.2604    0.0000 C   0  0  0  0  0  0  0  0  0  0  0  0
    8.0527   -6.0854    0.0000 F   0  0  0  0  0  0  0  0  0  0  0  0
    7.2277   -5.2604    0.0000 F   0  0  0  0  0  0  0  0  0  0  0  0
    8.8777   -5.2604    0.0000 F   0  0  0  0  0  0  0  0  0  0  0  0
    8.7672   -4.0229    0.0000 C   0  0  0  0  0  0  0  0  0  0  0  0
    8.7672   -3.1979    0.0000 C   0  0  0  0  0  0  0  0  0  0  0  0
    9.4817   -2.7854    0.0000 Cl  0  0  0  0  0  0  0  0  0  0  0  0
  2  1  2  0  0  0  0
  3  2  1  0  0  0  0
  4  3  2  0  0  0  0
  5  4  1  0  0  0  0
  5  6  1  0  0  0  0
  6  7  1  0  0  0  0
  8  7  1  0  0  0  0
  9  8  2  0  0  0  0
 10  9  1  0  0  0  0
 11 10  2  0  0  0  0
 12 11  1  0  0  0  0
  7 12  2  0  0  0  0
 13  5  2  0  0  0  0
  1 13  1  0  0  0  0
  1 14  1  0  0  0  0
 14 15  1  0  0  0  0
 15 16  3  0  0  0  0
 14 17  1  0  0  0  0
 17 18  1  0  0  0  0
 18 19  2  0  0  0  0
 18 20  1  0  0  0  0
 20 21  1  0  0  0  0
 21 22  1  0  0  0  0
 21 23  1  0  0  0  0
 20 24  1  0  0  0  0
 24 25  1  0  0  0  0
 26 25  1  0  0  0  0
 27 26  2  0  0  0  0
 28 27  1  0  0  0  0
 28 29  1  0  0  0  0
 29 30  1  0  0  0  0
 29 31  1  0  0  0  0
 29 32  1  0  0  0  0
 33 28  2  0  0  0  0
 34 33  1  0  0  0  0
 25 34  2  0  0  0  0
 34 35  1  0  0  0  0
M  END
> <ChemID>
100714

> <CAS>
69409-94-5|102851-06-9

> <Original_SMILES>
CC(C)C(Nc1ccc(cc1Cl)C(F)(F)F)C(=O)OC(C#N)c1cccc(c1)Oc1ccccc1

> <preferred_name>
Fluvalinate|tau-Fluvalinate

> <dsstox_substance_id>
DTXSID7024110|DTXSID7037555

> <dsstox_compound_id>
DTXCID904110|DTXCID5017555

> <qc_level>
DSSTox_High

> <Canonical_QSARr>
CC(C)C(NC1C=CC(=CC=1Cl)C(F)(F)F)C(=O)OC(C#N)C1C=C(C=CC=1)OC1C=CC=CC=1

> <InChI_Code_QSARr>
InChI=1S/C26H22ClF3N2O3/c1-16(2)24(32-22-12-11-18(14-21(22)27)26(28,29)30)25(33)35-23(15-31)17-7-6-10-20(13-17)34-19-8-4-3-5-9-19/h3-14,16,23-24,32H,1-2H3

> <InChI Key_QSARr>
INISTDXBRIBGOC-UHFFFAOYSA-N

> <Salt_Solvent>


> <Salt_Solvent_ID>
0

> <MPID>
99963|100007

> <KocRef>
Schuurmann-Main|USDA Pest Prop DB

> <LogKOC>
5.705

> <Tr_1_Tst_0>
0

$$$$
100715
  Mrv171c012251911022D          

 25 26  0  0  0  0            999 V2000
    0.5406   -3.5019    0.0000 C   0  0  0  0  0  0  0  0  0  0  0  0
    0.5406   -4.3269    0.0000 O   0  0  0  0  0  0  0  0  0  0  0  0
   -0.1738   -3.0894    0.0000 O   0  0  0  0  0  0  0  0  0  0  0  0
   -0.8883   -3.5019    0.0000 C   0  0  0  0  0  0  0  0  0  0  0  0
    1.2551   -3.0894    0.0000 C   0  0  0  0  0  0  0  0  0  0  0  0
    1.9696   -3.5019    0.0000 O   0  0  0  0  0  0  0  0  0  0  0  0
    2.6841   -3.0894    0.0000 C   0  0  0  0  0  0  0  0  0  0  0  0
    3.3985   -3.5019    0.0000 C   0  0  0  0  0  0  0  0  0  0  0  0
    4.1130   -3.0894    0.0000 C   0  0  0  0  0  0  0  0  0  0  0  0
    4.1130   -2.2644    0.0000 C   0  0  0  0  0  0  0  0  0  0  0  0
    4.8275   -1.8519    0.0000 O   0  0  0  0  0  0  0  0  0  0  0  0
    5.5419   -2.2644    0.0000 C   0  0  0  0  0  0  0  0  0  0  0  0
    5.5419   -3.0894    0.0000 C   0  0  0  0  0  0  0  0  0  0  0  0
    4.8275   -3.5019    0.0000 Cl  0  0  0  0  0  0  0  0  0  0  0  0
    6.2564   -3.5019    0.0000 C   0  0  0  0  0  0  0  0  0  0  0  0
    6.9709   -3.0894    0.0000 C   0  0  0  0  0  0  0  0  0  0  0  0
    7.6853   -3.5019    0.0000 C   0  0  0  0  0  0  0  0  0  0  0  0
    8.3998   -3.9144    0.0000 F   0  0  0  0  0  0  0  0  0  0  0  0
    7.2728   -4.2164    0.0000 F   0  0  0  0  0  0  0  0  0  0  0  0
    8.0978   -2.7875    0.0000 F   0  0  0  0  0  0  0  0  0  0  0  0
    6.9709   -2.2644    0.0000 C   0  0  0  0  0  0  0  0  0  0  0  0
    6.2564   -1.8519    0.0000 N   0  0  0  0  0  0  0  0  0  0  0  0
    3.3985   -1.8519    0.0000 C   0  0  0  0  0  0  0  0  0  0  0  0
    2.6841   -2.2644    0.0000 C   0  0  0  0  0  0  0  0  0  0  0  0
    1.2551   -2.2644    0.0000 C   0  0  0  0  0  0  0  0  0  0  0  0
  1  2  2  0  0  0  0
  1  3  1  0  0  0  0
  3  4  1  0  0  0  0
  1  5  1  0  0  0  0
  5  6  1  0  0  0  0
  6  7  1  0  0  0  0
  8  7  1  0  0  0  0
  9  8  2  0  0  0  0
 10  9  1  0  0  0  0
 10 11  1  0  0  0  0
 11 12  1  0  0  0  0
 13 12  1  0  0  0  0
 13 14  1  0  0  0  0
 15 13  2  0  0  0  0
 16 15  1  0  0  0  0
 16 17  1  0  0  0  0
 17 18  1  0  0  0  0
 17 19  1  0  0  0  0
 17 20  1  0  0  0  0
 21 16  2  0  0  0  0
 22 21  1  0  0  0  0
 12 22  2  0  0  0  0
 23 10  2  0  0  0  0
 24 23  1  0  0  0  0
  7 24  2  0  0  0  0
  5 25  1  0  0  0  0
M  END
> <ChemID>
100715

> <CAS>
69806-40-2

> <Original_SMILES>
COC(=O)C(C)Oc1ccc(cc1)Oc1[n]cc(cc1Cl)C(F)(F)F

> <preferred_name>
Haloxyfop-methyl

> <dsstox_substance_id>
DTXSID6024123

> <dsstox_compound_id>
DTXCID404123

> <qc_level>
DSSTox_Low

> <Canonical_QSARr>
COC(=O)C(C)OC1C=CC(=CC=1)OC1=NC=C(C=C1Cl)C(F)(F)F

> <InChI_Code_QSARr>
InChI=1S/C16H13ClF3NO4/c1-9(15(22)23-2)24-11-3-5-12(6-4-11)25-14-13(17)7-10(8-21-14)16(18,19)20/h3-9H,1-2H3

> <InChI Key_QSARr>
MFSWTRQUCLNFOM-UHFFFAOYSA-N

> <Salt_Solvent>


> <Salt_Solvent_ID>
0

> <MPID>
99964

> <KocRef>
USDA Pest Prop DB

> <LogKOC>
1.88

> <Tr_1_Tst_0>
1

$$$$
100716
  Mrv171c012251911022D          

 27 28  0  0  0  0            999 V2000
    2.1545   -1.8134    0.0000 C   0  0  0  0  0  0  0  0  0  0  0  0
    2.1545   -2.6384    0.0000 O   0  0  0  0  0  0  0  0  0  0  0  0
    1.4400   -1.4009    0.0000 O   0  0  0  0  0  0  0  0  0  0  0  0
    0.7255   -1.8134    0.0000 C   0  0  0  0  0  0  0  0  0  0  0  0
    0.0111   -1.4009    0.0000 C   0  0  0  0  0  0  0  0  0  0  0  0
   -0.7034   -1.8134    0.0000 C   0  0  0  0  0  0  0  0  0  0  0  0
   -1.4179   -1.4009    0.0000 C   0  0  0  0  0  0  0  0  0  0  0  0
    2.8689   -1.4009    0.0000 C   0  0  0  0  0  0  0  0  0  0  0  0
    3.5834   -1.8134    0.0000 O   0  0  0  0  0  0  0  0  0  0  0  0
    4.2979   -1.4009    0.0000 C   0  0  0  0  0  0  0  0  0  0  0  0
    5.0124   -1.8134    0.0000 C   0  0  0  0  0  0  0  0  0  0  0  0
    5.7268   -1.4009    0.0000 C   0  0  0  0  0  0  0  0  0  0  0  0
    5.7268   -0.5759    0.0000 C   0  0  0  0  0  0  0  0  0  0  0  0
    6.4413   -0.1634    0.0000 O   0  0  0  0  0  0  0  0  0  0  0  0
    7.1558   -0.5759    0.0000 C   0  0  0  0  0  0  0  0  0  0  0  0
    7.1558   -1.4009    0.0000 C   0  0  0  0  0  0  0  0  0  0  0  0
    7.8702   -1.8134    0.0000 C   0  0  0  0  0  0  0  0  0  0  0  0
    8.5847   -1.4009    0.0000 C   0  0  0  0  0  0  0  0  0  0  0  0
    9.2992   -1.8134    0.0000 C   0  0  0  0  0  0  0  0  0  0  0  0
   10.0137   -2.2259    0.0000 F   0  0  0  0  0  0  0  0  0  0  0  0
    8.8867   -2.5278    0.0000 F   0  0  0  0  0  0  0  0  0  0  0  0
    9.7117   -1.0989    0.0000 F   0  0  0  0  0  0  0  0  0  0  0  0
    8.5847   -0.5759    0.0000 C   0  0  0  0  0  0  0  0  0  0  0  0
    7.8702   -0.1634    0.0000 N   0  0  0  0  0  0  0  0  0  0  0  0
    5.0124   -0.1634    0.0000 C   0  0  0  0  0  0  0  0  0  0  0  0
    4.2979   -0.5759    0.0000 C   0  0  0  0  0  0  0  0  0  0  0  0
    2.8689   -0.5759    0.0000 C   0  0  0  0  0  0  0  0  0  0  0  0
  1  2  2  0  0  0  0
  1  3  1  0  0  0  0
  3  4  1  0  0  0  0
  4  5  1  0  0  0  0
  5  6  1  0  0  0  0
  6  7  1  0  0  0  0
  1  8  1  0  0  0  0
  8  9  1  0  0  0  0
  9 10  1  0  0  0  0
 11 10  1  0  0  0  0
 12 11  2  0  0  0  0
 13 12  1  0  0  0  0
 13 14  1  0  0  0  0
 14 15  1  0  0  0  0
 16 15  2  0  0  0  0
 17 16  1  0  0  0  0
 18 17  2  0  0  0  0
 18 19  1  0  0  0  0
 19 20  1  0  0  0  0
 19 21  1  0  0  0  0
 19 22  1  0  0  0  0
 23 18  1  0  0  0  0
 24 23  2  0  0  0  0
 15 24  1  0  0  0  0
 25 13  2  0  0  0  0
 26 25  1  0  0  0  0
 10 26  2  0  0  0  0
  8 27  1  0  0  0  0
M  END
> <ChemID>
100716

> <CAS>
69806-50-4|79241-46-6

> <Original_SMILES>
CCCCOC(=O)C(C)Oc1ccc(cc1)Oc1ccc(c[n]1)C(F)(F)F

> <preferred_name>
Fluazifop-butyl|Fluazifop-P-butyl

> <dsstox_substance_id>
DTXSID3034612|DTXSID0034855

> <dsstox_compound_id>
DTXCID1014612|DTXCID8014855

> <qc_level>
DSSTox_Low

> <Canonical_QSARr>
CCCCOC(=O)C(C)OC1C=CC(=CC=1)OC1=CC=C(C=N1)C(F)(F)F

> <InChI_Code_QSARr>
InChI=1S/C19H20F3NO4/c1-3-4-11-25-18(24)13(2)26-15-6-8-16(9-7-15)27-17-10-5-14(12-23-17)19(20,21)22/h5-10,12-13H,3-4,11H2,1-2H3

> <InChI Key_QSARr>
VAIZTNZGPYBOGF-UHFFFAOYSA-N

> <Salt_Solvent>


> <Salt_Solvent_ID>
0

> <MPID>
99965|99985

> <KocRef>
USDA Pest Prop DB|Schuurmann-Main

> <LogKOC>
3.62

> <Tr_1_Tst_0>
1

$$$$
100717
  Mrv171c012251911022D          

 33 35  0  0  0  0            999 V2000
    6.4980   -1.2467    0.0000 C   0  0  0  0  0  0  0  0  0  0  0  0
    6.0855   -0.5322    0.0000 O   0  0  0  0  0  0  0  0  0  0  0  0
    6.0855   -1.9612    0.0000 O   0  0  0  0  0  0  0  0  0  0  0  0
    5.2605   -1.9612    0.0000 C   0  0  0  0  0  0  0  0  0  0  0  0
    4.8480   -2.6757    0.0000 C   0  0  0  0  0  0  0  0  0  0  0  0
    4.0230   -2.6757    0.0000 C   0  0  0  0  0  0  0  0  0  0  0  0
    3.6105   -3.3901    0.0000 C   0  0  0  0  0  0  0  0  0  0  0  0
    2.7855   -3.3901    0.0000 O   0  0  0  0  0  0  0  0  0  0  0  0
    2.3730   -4.1046    0.0000 C   0  0  0  0  0  0  0  0  0  0  0  0
    1.5480   -4.1046    0.0000 C   0  0  0  0  0  0  0  0  0  0  0  0
    1.1355   -4.8191    0.0000 C   0  0  0  0  0  0  0  0  0  0  0  0
    1.5480   -5.5335    0.0000 C   0  0  0  0  0  0  0  0  0  0  0  0
    2.3730   -5.5335    0.0000 C   0  0  0  0  0  0  0  0  0  0  0  0
    2.7855   -4.8191    0.0000 C   0  0  0  0  0  0  0  0  0  0  0  0
    4.0230   -4.1046    0.0000 C   0  0  0  0  0  0  0  0  0  0  0  0
    4.8480   -4.1046    0.0000 C   0  0  0  0  0  0  0  0  0  0  0  0
    5.2605   -3.3901    0.0000 C   0  0  0  0  0  0  0  0  0  0  0  0
    4.8480   -1.2467    0.0000 C   0  0  0  0  0  0  0  0  0  0  0  0
    4.4355   -0.5322    0.0000 N   0  0  0  0  0  0  0  0  0  0  0  0
    7.3230   -1.2467    0.0000 C   0  0  0  0  0  0  0  0  0  0  0  0
    7.7355   -0.5322    0.0000 C   0  0  0  0  0  0  0  0  0  0  0  0
    8.5605   -0.5322    0.0000 C   0  0  0  0  0  0  0  0  0  0  0  0
    8.9730    0.1822    0.0000 C   0  0  0  0  0  0  0  0  0  0  0  0
    8.5605    0.8967    0.0000 C   0  0  0  0  0  0  0  0  0  0  0  0
    8.9730    1.6112    0.0000 O   0  0  0  0  0  0  0  0  0  0  0  0
    9.7980    1.6112    0.0000 C   0  0  0  0  0  0  0  0  0  0  0  0
   10.2105    2.3256    0.0000 F   0  0  0  0  0  0  0  0  0  0  0  0
   10.2105    0.8967    0.0000 F   0  0  0  0  0  0  0  0  0  0  0  0
    7.7355    0.8967    0.0000 C   0  0  0  0  0  0  0  0  0  0  0  0
    7.3230    0.1822    0.0000 C   0  0  0  0  0  0  0  0  0  0  0  0
    7.7355   -1.9612    0.0000 C   0  0  0  0  0  0  0  0  0  0  0  0
    8.5605   -1.9612    0.0000 C   0  0  0  0  0  0  0  0  0  0  0  0
    7.3230   -2.6757    0.0000 C   0  0  0  0  0  0  0  0  0  0  0  0
  1  2  2  0  0  0  0
  1  3  1  0  0  0  0
  3  4  1  0  0  0  0
  4  5  1  0  0  0  0
  6  5  1  0  0  0  0
  7  6  2  0  0  0  0
  7  8  1  0  0  0  0
  8  9  1  0  0  0  0
 10  9  1  0  0  0  0
 11 10  2  0  0  0  0
 12 11  1  0  0  0  0
 13 12  2  0  0  0  0
 14 13  1  0  0  0  0
  9 14  2  0  0  0  0
 15  7  1  0  0  0  0
 16 15  2  0  0  0  0
 17 16  1  0  0  0  0
  5 17  2  0  0  0  0
  4 18  1  0  0  0  0
 18 19  3  0  0  0  0
  1 20  1  0  0  0  0
 20 21  1  0  0  0  0
 22 21  1  0  0  0  0
 23 22  2  0  0  0  0
 24 23  1  0  0  0  0
 24 25  1  0  0  0  0
 25 26  1  0  0  0  0
 26 27  1  0  0  0  0
 26 28  1  0  0  0  0
 29 24  2  0  0  0  0
 30 29  1  0  0  0  0
 21 30  2  0  0  0  0
 20 31  1  0  0  0  0
 31 32  1  0  0  0  0
 31 33  1  0  0  0  0
M  END
> <ChemID>
100717

> <CAS>
70124-77-5

> <Original_SMILES>
CC(C)[C@H](C(=O)OC(C#N)c1cccc(c1)Oc1ccccc1)c1ccc(cc1)OC(F)F

> <preferred_name>
Flucythrinate

> <dsstox_substance_id>
DTXSID0022301

> <dsstox_compound_id>
DTXCID202301

> <qc_level>
DSSTox_Low

> <Canonical_QSARr>
CC(C)C(C(=O)OC(C#N)C1=CC=CC(=C1)OC1=CC=CC=C1)C1=CC=C(C=C1)OC(F)F

> <InChI_Code_QSARr>
InChI=1S/C26H23F2NO4/c1-17(2)24(18-11-13-21(14-12-18)32-26(27)28)25(30)33-23(16-29)19-7-6-10-22(15-19)31-20-8-4-3-5-9-20/h3-15,17,23-24,26H,1-2H3

> <InChI Key_QSARr>
GBIHOLCMZGAKNG-UHFFFAOYSA-N

> <Salt_Solvent>


> <Salt_Solvent_ID>
0

> <MPID>
99966

> <KocRef>
Schuurmann-Main

> <LogKOC>
5.0

> <Tr_1_Tst_0>
1

$$$$
100719
  Mrv171c012251911022D          

 24 25  0  0  0  0            999 V2000
    2.0872   -2.3480    0.0000 N   0  0  0  0  0  0  0  0  0  0  0  0
    1.3727   -1.9355    0.0000 C   0  0  0  0  0  0  0  0  0  0  0  0
    1.3727   -1.1105    0.0000 C   0  0  0  0  0  0  0  0  0  0  0  0
    0.6582   -2.3480    0.0000 C   0  0  0  0  0  0  0  0  0  0  0  0
   -0.0562   -1.9355    0.0000 O   0  0  0  0  0  0  0  0  0  0  0  0
   -0.7707   -2.3480    0.0000 C   0  0  0  0  0  0  0  0  0  0  0  0
    0.6582   -3.1730    0.0000 O   0  0  0  0  0  0  0  0  0  0  0  0
    2.0872   -3.1730    0.0000 C   0  0  0  0  0  0  0  0  0  0  0  0
    1.3727   -3.5855    0.0000 C   0  0  0  0  0  0  0  0  0  0  0  0
    0.5522   -3.6718    0.0000 C   0  0  0  0  0  0  0  0  0  0  0  0
    1.3727   -4.4105    0.0000 C   0  0  0  0  0  0  0  0  0  0  0  0
    2.0872   -4.8230    0.0000 C   0  0  0  0  0  0  0  0  0  0  0  0
    2.8017   -4.4105    0.0000 C   0  0  0  0  0  0  0  0  0  0  0  0
    2.8017   -3.5855    0.0000 C   0  0  0  0  0  0  0  0  0  0  0  0
    3.5161   -3.1730    0.0000 C   0  0  0  0  0  0  0  0  0  0  0  0
    2.8017   -1.9355    0.0000 C   0  0  0  0  0  0  0  0  0  0  0  0
    2.8017   -1.1105    0.0000 O   0  0  0  0  0  0  0  0  0  0  0  0
    3.5161   -2.3480    0.0000 C   0  0  0  0  0  0  0  0  0  0  0  0
    4.2306   -1.9355    0.0000 C   0  0  0  0  0  0  0  0  0  0  0  0
    4.9451   -2.3480    0.0000 C   0  0  0  0  0  0  0  0  0  0  0  0
    5.6595   -1.9355    0.0000 C   0  0  0  0  0  0  0  0  0  0  0  0
    5.6595   -1.1105    0.0000 C   0  0  0  0  0  0  0  0  0  0  0  0
    4.9451   -0.6980    0.0000 C   0  0  0  0  0  0  0  0  0  0  0  0
    4.2306   -1.1105    0.0000 C   0  0  0  0  0  0  0  0  0  0  0  0
  1  2  1  0  0  0  0
  2  3  1  0  0  0  0
  2  4  1  0  0  0  0
  4  5  1  0  0  0  0
  5  6  1  0  0  0  0
  4  7  2  0  0  0  0
  1  8  1  0  0  0  0
  9  8  1  0  0  0  0
  9 10  1  0  0  0  0
 11  9  2  0  0  0  0
 12 11  1  0  0  0  0
 13 12  2  0  0  0  0
 14 13  1  0  0  0  0
  8 14  2  0  0  0  0
 14 15  1  0  0  0  0
  1 16  1  0  0  0  0
 16 17  2  0  0  0  0
 16 18  1  0  0  0  0
 18 19  1  0  0  0  0
 20 19  1  0  0  0  0
 21 20  2  0  0  0  0
 22 21  1  0  0  0  0
 23 22  2  0  0  0  0
 24 23  1  0  0  0  0
 19 24  2  0  0  0  0
M  END
> <ChemID>
100719

> <CAS>
71626-11-4

> <Original_SMILES>
COC(=O)C(C)N(c1c(C)cccc1C)C(=O)Cc1ccccc1

> <preferred_name>
Benalaxyl

> <dsstox_substance_id>
DTXSID3041619

> <dsstox_compound_id>
DTXCID1021619

> <qc_level>
DSSTox_Low

> <Canonical_QSARr>
CC1C=CC=C(C)C=1N(C(C)C(=O)OC)C(=O)CC1C=CC=CC=1

> <InChI_Code_QSARr>
InChI=1S/C20H23NO3/c1-14-9-8-10-15(2)19(14)21(16(3)20(23)24-4)18(22)13-17-11-6-5-7-12-17/h5-12,16H,13H2,1-4H3

> <InChI Key_QSARr>
CJPQIRJHIZUAQP-UHFFFAOYSA-N

> <Salt_Solvent>


> <Salt_Solvent_ID>
0

> <MPID>
99967

> <KocRef>
USDA Pest Prop DB

> <LogKOC>
3.54

> <Tr_1_Tst_0>
0

$$$$
100720
  Mrv171c012251911022D          

 28 29  0  0  0  0            999 V2000
    3.5909   -4.4675    0.0000 O   0  5  0  0  0  0  0  0  0  0  0  0
    4.3053   -4.0550    0.0000 N   0  3  0  0  0  0  0  0  0  0  0  0
    4.3053   -3.2300    0.0000 C   0  0  0  0  0  0  0  0  0  0  0  0
    5.0198   -2.8175    0.0000 C   0  0  0  0  0  0  0  0  0  0  0  0
    5.0198   -1.9925    0.0000 C   0  0  0  0  0  0  0  0  0  0  0  0
    4.3053   -1.5800    0.0000 C   0  0  0  0  0  0  0  0  0  0  0  0
    4.3053   -0.7550    0.0000 O   0  0  0  0  0  0  0  0  0  0  0  0
    5.0198   -0.3425    0.0000 C   0  0  0  0  0  0  0  0  0  0  0  0
    5.7343   -0.7550    0.0000 C   0  0  0  0  0  0  0  0  0  0  0  0
    6.4488   -0.3425    0.0000 C   0  0  0  0  0  0  0  0  0  0  0  0
    6.4488    0.4825    0.0000 C   0  0  0  0  0  0  0  0  0  0  0  0
    7.1632    0.8950    0.0000 C   0  0  0  0  0  0  0  0  0  0  0  0
    7.8777    1.3075    0.0000 F   0  0  0  0  0  0  0  0  0  0  0  0
    6.7507    1.6095    0.0000 F   0  0  0  0  0  0  0  0  0  0  0  0
    7.5757    0.1806    0.0000 F   0  0  0  0  0  0  0  0  0  0  0  0
    5.7343    0.8950    0.0000 C   0  0  0  0  0  0  0  0  0  0  0  0
    5.0198    0.4825    0.0000 C   0  0  0  0  0  0  0  0  0  0  0  0
    4.3053    0.8950    0.0000 Cl  0  0  0  0  0  0  0  0  0  0  0  0
    3.5909   -1.9925    0.0000 C   0  0  0  0  0  0  0  0  0  0  0  0
    3.5909   -2.8175    0.0000 C   0  0  0  0  0  0  0  0  0  0  0  0
    2.8764   -3.2300    0.0000 C   0  0  0  0  0  0  0  0  0  0  0  0
    2.1619   -2.8175    0.0000 N   0  0  0  0  0  0  0  0  0  0  0  0
    1.4475   -3.2300    0.0000 S   0  0  0  0  0  0  0  0  0  0  0  0
    0.7330   -3.6425    0.0000 O   0  0  0  0  0  0  0  0  0  0  0  0
    1.0350   -2.5155    0.0000 O   0  0  0  0  0  0  0  0  0  0  0  0
    1.8600   -3.9444    0.0000 C   0  0  0  0  0  0  0  0  0  0  0  0
    2.8764   -4.0550    0.0000 O   0  0  0  0  0  0  0  0  0  0  0  0
    5.0198   -4.4675    0.0000 O   0  0  0  0  0  0  0  0  0  0  0  0
  1  2  1  0  0  0  0
  2  3  1  0  0  0  0
  4  3  2  0  0  0  0
  5  4  1  0  0  0  0
  6  5  2  0  0  0  0
  6  7  1  0  0  0  0
  7  8  1  0  0  0  0
  9  8  2  0  0  0  0
 10  9  1  0  0  0  0
 11 10  2  0  0  0  0
 11 12  1  0  0  0  0
 12 13  1  0  0  0  0
 12 14  1  0  0  0  0
 12 15  1  0  0  0  0
 16 11  1  0  0  0  0
 17 16  2  0  0  0  0
  8 17  1  0  0  0  0
 17 18  1  0  0  0  0
 19  6  1  0  0  0  0
 20 19  2  0  0  0  0
  3 20  1  0  0  0  0
 20 21  1  0  0  0  0
 21 22  1  0  0  0  0
 22 23  1  0  0  0  0
 23 24  2  0  0  0  0
 23 25  2  0  0  0  0
 23 26  1  0  0  0  0
 21 27  2  0  0  0  0
  2 28  2  0  0  0  0
M  CHG  2   1  -1   2   1
M  END
> <ChemID>
100720

> <CAS>
72178-02-0

> <Original_SMILES>
CS(=O)(=O)NC(=O)c1cc(ccc1[N+]([O-])=O)Oc1ccc(cc1Cl)C(F)(F)F

> <preferred_name>
Fomesafen

> <dsstox_substance_id>
DTXSID7024112

> <dsstox_compound_id>
DTXCID704112

> <qc_level>
DSSTox_Low

> <Canonical_QSARr>
CS(=O)(=O)NC(=O)C1=CC(=CC=C1[N+]([O-])=O)OC1=CC=C(C=C1Cl)C(F)(F)F

> <InChI_Code_QSARr>
InChI=1S/C15H10ClF3N2O6S/c1-28(25,26)20-14(22)10-7-9(3-4-12(10)21(23)24)27-13-5-2-8(6-11(13)16)15(17,18)19/h2-7H,1H3,(H,20,22)

> <InChI Key_QSARr>
BGZZWXTVIYUUEY-UHFFFAOYSA-N

> <Salt_Solvent>


> <Salt_Solvent_ID>
0

> <MPID>
99968

> <KocRef>
Schuurmann-Main

> <LogKOC>
1.78

> <Tr_1_Tst_0>
1

$$$$
100722
  Mrv171c012251911022D          

 22 23  0  0  0  0            999 V2000
    7.8355   -1.9483    0.0000 C   0  0  0  0  0  0  0  0  0  0  0  0
    7.1210   -1.5358    0.0000 N   0  0  0  0  0  0  0  0  0  0  0  0
    6.4065   -1.9483    0.0000 C   0  0  0  0  0  0  0  0  0  0  0  0
    5.6920   -1.5358    0.0000 C   0  0  0  0  0  0  0  0  0  0  0  0
    4.9776   -1.9483    0.0000 O   0  0  0  0  0  0  0  0  0  0  0  0
    4.2631   -1.5358    0.0000 C   0  0  0  0  0  0  0  0  0  0  0  0
    4.2631   -0.7108    0.0000 C   0  0  0  0  0  0  0  0  0  0  0  0
    3.5486   -0.2983    0.0000 C   0  0  0  0  0  0  0  0  0  0  0  0
    2.8342   -0.7108    0.0000 C   0  0  0  0  0  0  0  0  0  0  0  0
    2.1197   -0.2983    0.0000 O   0  0  0  0  0  0  0  0  0  0  0  0
    1.4052   -0.7108    0.0000 C   0  0  0  0  0  0  0  0  0  0  0  0
    0.6907   -0.2983    0.0000 C   0  0  0  0  0  0  0  0  0  0  0  0
   -0.0237   -0.7108    0.0000 C   0  0  0  0  0  0  0  0  0  0  0  0
   -0.0237   -1.5358    0.0000 C   0  0  0  0  0  0  0  0  0  0  0  0
    0.6907   -1.9483    0.0000 C   0  0  0  0  0  0  0  0  0  0  0  0
    1.4052   -1.5358    0.0000 C   0  0  0  0  0  0  0  0  0  0  0  0
    2.8342   -1.5358    0.0000 C   0  0  0  0  0  0  0  0  0  0  0  0
    3.5486   -1.9483    0.0000 C   0  0  0  0  0  0  0  0  0  0  0  0
    8.5499   -1.5358    0.0000 O   0  0  0  0  0  0  0  0  0  0  0  0
    9.2644   -1.9483    0.0000 C   0  0  0  0  0  0  0  0  0  0  0  0
    9.9789   -1.5358    0.0000 C   0  0  0  0  0  0  0  0  0  0  0  0
    7.8355   -2.7733    0.0000 O   0  0  0  0  0  0  0  0  0  0  0  0
  1  2  1  0  0  0  0
  2  3  1  0  0  0  0
  3  4  1  0  0  0  0
  4  5  1  0  0  0  0
  5  6  1  0  0  0  0
  7  6  1  0  0  0  0
  8  7  2  0  0  0  0
  9  8  1  0  0  0  0
  9 10  1  0  0  0  0
 10 11  1  0  0  0  0
 12 11  1  0  0  0  0
 13 12  2  0  0  0  0
 14 13  1  0  0  0  0
 15 14  2  0  0  0  0
 16 15  1  0  0  0  0
 11 16  2  0  0  0  0
 17  9  2  0  0  0  0
 18 17  1  0  0  0  0
  6 18  2  0  0  0  0
  1 19  1  0  0  0  0
 19 20  1  0  0  0  0
 20 21  1  0  0  0  0
  1 22  2  0  0  0  0
M  END
> <ChemID>
100722

> <CAS>
72490-01-8

> <Original_SMILES>
CCOC(=O)NCCOc1ccc(cc1)Oc1ccccc1

> <preferred_name>
Fenoxycarb

> <dsstox_substance_id>
DTXSID7032393

> <dsstox_compound_id>
DTXCID5012393

> <qc_level>
DSSTox_High

> <Canonical_QSARr>
CCOC(=O)NCCOC1C=CC(=CC=1)OC1C=CC=CC=1

> <InChI_Code_QSARr>
InChI=1S/C17H19NO4/c1-2-20-17(19)18-12-13-21-14-8-10-16(11-9-14)22-15-6-4-3-5-7-15/h3-11H,2,12-13H2,1H3,(H,18,19)

> <InChI Key_QSARr>
HJUFTIJOISQSKQ-UHFFFAOYSA-N

> <Salt_Solvent>


> <Salt_Solvent_ID>
0

> <MPID>
99969|99984

> <KocRef>
Schuurmann-Main|?

> <LogKOC>
3.0

> <Tr_1_Tst_0>
1

$$$$
100723
  Mrv171c012251911022D          

 22 22  0  0  0  0            999 V2000
    0.0000   -2.4750    0.0000 C   0  0  0  0  0  0  0  0  0  0  0  0
    0.0000   -1.6500    0.0000 C   0  0  0  0  0  0  0  0  0  0  0  0
   -0.7145   -1.2375    0.0000 C   0  0  0  0  0  0  0  0  0  0  0  0
   -1.4289   -1.6500    0.0000 C   0  0  0  0  0  0  0  0  0  0  0  0
   -1.4289   -2.4750    0.0000 C   0  0  0  0  0  0  0  0  0  0  0  0
   -2.1434   -2.8875    0.0000 C   0  0  0  0  0  0  0  0  0  0  0  0
   -2.1434   -3.7125    0.0000 O   0  0  0  0  0  0  0  0  0  0  0  0
   -2.8579   -2.4750    0.0000 C   0  0  0  0  0  0  0  0  0  0  0  0
   -3.5724   -2.8875    0.0000 C   0  0  0  0  0  0  0  0  0  0  0  0
   -3.5724   -3.7125    0.0000 C   0  0  0  0  0  0  0  0  0  0  0  0
   -2.8579   -4.1250    0.0000 C   0  0  0  0  0  0  0  0  0  0  0  0
   -2.8579   -4.9500    0.0000 C   0  0  0  0  0  0  0  0  0  0  0  0
   -4.2868   -2.4750    0.0000 N   0  0  0  0  0  0  0  0  0  0  0  0
   -5.0013   -2.8875    0.0000 O   0  0  0  0  0  0  0  0  0  0  0  0
   -5.7158   -2.4750    0.0000 C   0  0  0  0  0  0  0  0  0  0  0  0
   -6.4302   -2.8875    0.0000 C   0  0  0  0  0  0  0  0  0  0  0  0
   -2.8579   -1.6500    0.0000 C   0  0  0  0  0  0  0  0  0  0  0  0
   -3.5724   -1.2375    0.0000 O   0  0  0  0  0  0  0  0  0  0  0  0
   -2.1434   -1.2375    0.0000 C   0  0  0  0  0  0  0  0  0  0  0  0
    0.7145   -1.2375    0.0000 S   0  0  0  0  0  0  0  0  0  0  0  0
    1.4289   -1.6500    0.0000 C   0  0  0  0  0  0  0  0  0  0  0  0
    2.1434   -1.2375    0.0000 C   0  0  0  0  0  0  0  0  0  0  0  0
  1  2  1  0  0  0  0
  2  3  1  0  0  0  0
  3  4  1  0  0  0  0
  4  5  1  0  0  0  0
  5  6  1  0  0  0  0
  6  7  2  0  0  0  0
  6  8  1  0  0  0  0
  8  9  1  0  0  0  0
  9 10  1  0  0  0  0
 10 11  1  0  0  0  0
 11 12  1  0  0  0  0
  9 13  2  0  0  0  0
 13 14  1  4  0  0  0
 14 15  1  0  0  0  0
 15 16  1  0  0  0  0
  8 17  1  0  0  0  0
 17 18  2  0  0  0  0
 17 19  1  0  0  0  0
  4 19  1  0  0  0  0
  2 20  1  0  0  0  0
 20 21  1  0  0  0  0
 21 22  1  0  0  0  0
M  END
> <ChemID>
100723

> <CAS>
74051-80-2

> <Original_SMILES>
CC(CC1CC(O)=C(C(=O)C1)C(CCC)=NOCC)SCC

> <preferred_name>
Sethoxydim

> <dsstox_substance_id>
DTXSID9024304

> <dsstox_compound_id>
DTXCID604304

> <qc_level>
DSSTox_Low

> <Canonical_QSARr>
CC(CC1CC(=O)C(C(CCC)=NOCC)C(=O)C1)SCC

> <InChI_Code_QSARr>
InChI=1S/C17H29NO3S/c1-5-8-14(18-21-6-2)17-15(19)10-13(11-16(17)20)9-12(4)22-7-3/h12-13,17H,5-11H2,1-4H3

> <InChI Key_QSARr>
NMHGOXYVOKDNHF-UHFFFAOYSA-N

> <Salt_Solvent>


> <Salt_Solvent_ID>
0

> <MPID>
99970

> <KocRef>
Schuurmann-Main

> <LogKOC>
2.0

> <Tr_1_Tst_0>
0

$$$$
100724
  Mrv171c012251911022D          

 20 22  0  0  0  0            999 V2000
    4.0157   -1.7302    0.0000 C   0  0  0  0  0  0  0  0  0  0  0  0
    4.7302   -2.1427    0.0000 C   0  0  0  0  0  0  0  0  0  0  0  0
    4.7302   -2.9677    0.0000 C   0  0  0  0  0  0  0  0  0  0  0  0
    5.4446   -3.3802    0.0000 C   0  0  0  0  0  0  0  0  0  0  0  0
    6.1591   -2.9677    0.0000 C   0  0  0  0  0  0  0  0  0  0  0  0
    6.1591   -2.1427    0.0000 C   0  0  0  0  0  0  0  0  0  0  0  0
    5.4446   -1.7302    0.0000 C   0  0  0  0  0  0  0  0  0  0  0  0
    5.4446   -0.9052    0.0000 Cl  0  0  0  0  0  0  0  0  0  0  0  0
    4.0157   -0.9052    0.0000 N   0  0  0  0  0  0  0  0  0  0  0  0
    3.3012   -0.4927    0.0000 N   0  0  0  0  0  0  0  0  0  0  0  0
    2.5867   -0.9052    0.0000 C   0  0  0  0  0  0  0  0  0  0  0  0
    1.8723   -0.4927    0.0000 C   0  0  0  0  0  0  0  0  0  0  0  0
    1.8723    0.3323    0.0000 C   0  0  0  0  0  0  0  0  0  0  0  0
    1.1578    0.7448    0.0000 C   0  0  0  0  0  0  0  0  0  0  0  0
    0.4433    0.3323    0.0000 C   0  0  0  0  0  0  0  0  0  0  0  0
    0.4433   -0.4927    0.0000 C   0  0  0  0  0  0  0  0  0  0  0  0
    1.1578   -0.9052    0.0000 C   0  0  0  0  0  0  0  0  0  0  0  0
    1.1578   -1.7302    0.0000 Cl  0  0  0  0  0  0  0  0  0  0  0  0
    2.5867   -1.7302    0.0000 N   0  0  0  0  0  0  0  0  0  0  0  0
    3.3012   -2.1427    0.0000 N   0  0  0  0  0  0  0  0  0  0  0  0
  1  2  1  0  0  0  0
  3  2  2  0  0  0  0
  4  3  1  0  0  0  0
  5  4  2  0  0  0  0
  6  5  1  0  0  0  0
  7  6  2  0  0  0  0
  2  7  1  0  0  0  0
  7  8  1  0  0  0  0
  9  1  2  0  0  0  0
 10  9  1  0  0  0  0
 11 10  2  0  0  0  0
 11 12  1  0  0  0  0
 13 12  1  0  0  0  0
 14 13  2  0  0  0  0
 15 14  1  0  0  0  0
 16 15  2  0  0  0  0
 17 16  1  0  0  0  0
 12 17  2  0  0  0  0
 17 18  1  0  0  0  0
 19 11  1  0  0  0  0
 20 19  2  0  0  0  0
  1 20  1  0  0  0  0
M  END
> <ChemID>
100724

> <CAS>
74115-24-5

> <Original_SMILES>
Clc1ccccc1-c1[n][n]c([n][n]1)-c1ccccc1Cl

> <preferred_name>
Clofentezine

> <dsstox_substance_id>
DTXSID9023881

> <dsstox_compound_id>
DTXCID703881

> <qc_level>
DSSTox_Low

> <Canonical_QSARr>
ClC1C=CC=CC=1C1N=NC(=NN=1)C1=CC=CC=C1Cl

> <InChI_Code_QSARr>
InChI=1S/C14H8Cl2N4/c15-11-7-3-1-5-9(11)13-17-19-14(20-18-13)10-6-2-4-8-12(10)16/h1-8H

> <InChI Key_QSARr>
UXADOQPNKNTIHB-UHFFFAOYSA-N

> <Salt_Solvent>


> <Salt_Solvent_ID>
0

> <MPID>
99971

> <KocRef>
USDA Pest Prop DB

> <LogKOC>
4.66

> <Tr_1_Tst_0>
1

$$$$
100725
  Mrv171c012251911022D          

 25 26  0  0  0  0            999 V2000
    4.4861   -1.2790    0.0000 S   0  0  0  0  0  0  0  0  0  0  0  0
    4.8986   -0.5645    0.0000 O   0  0  0  0  0  0  0  0  0  0  0  0
    4.0736   -1.9934    0.0000 O   0  0  0  0  0  0  0  0  0  0  0  0
    5.2006   -1.6915    0.0000 C   0  0  0  0  0  0  0  0  0  0  0  0
    5.2006   -2.5165    0.0000 C   0  0  0  0  0  0  0  0  0  0  0  0
    5.9150   -2.9290    0.0000 C   0  0  0  0  0  0  0  0  0  0  0  0
    6.6295   -2.5165    0.0000 C   0  0  0  0  0  0  0  0  0  0  0  0
    6.6295   -1.6915    0.0000 C   0  0  0  0  0  0  0  0  0  0  0  0
    5.9150   -1.2790    0.0000 C   0  0  0  0  0  0  0  0  0  0  0  0
    5.9150   -0.4540    0.0000 C   0  0  0  0  0  0  0  0  0  0  0  0
    6.6295   -0.0415    0.0000 O   0  0  0  0  0  0  0  0  0  0  0  0
    6.6295    0.7835    0.0000 C   0  0  0  0  0  0  0  0  0  0  0  0
    5.2006   -0.0415    0.0000 O   0  0  0  0  0  0  0  0  0  0  0  0
    3.7716   -0.8665    0.0000 N   0  0  0  0  0  0  0  0  0  0  0  0
    3.0571   -1.2790    0.0000 C   0  0  0  0  0  0  0  0  0  0  0  0
    3.0571   -2.1040    0.0000 O   0  0  0  0  0  0  0  0  0  0  0  0
    2.3427   -0.8665    0.0000 N   0  0  0  0  0  0  0  0  0  0  0  0
    1.6282   -1.2790    0.0000 C   0  0  0  0  0  0  0  0  0  0  0  0
    0.9137   -0.8665    0.0000 N   0  0  0  0  0  0  0  0  0  0  0  0
    0.1993   -1.2790    0.0000 C   0  0  0  0  0  0  0  0  0  0  0  0
   -0.5152   -0.8665    0.0000 C   0  0  0  0  0  0  0  0  0  0  0  0
    0.1993   -2.1040    0.0000 C   0  0  0  0  0  0  0  0  0  0  0  0
    0.9137   -2.5165    0.0000 C   0  0  0  0  0  0  0  0  0  0  0  0
    0.9137   -3.3415    0.0000 C   0  0  0  0  0  0  0  0  0  0  0  0
    1.6282   -2.1040    0.0000 N   0  0  0  0  0  0  0  0  0  0  0  0
  1  2  2  0  0  0  0
  1  3  2  0  0  0  0
  1  4  1  0  0  0  0
  5  4  2  0  0  0  0
  6  5  1  0  0  0  0
  7  6  2  0  0  0  0
  8  7  1  0  0  0  0
  9  8  2  0  0  0  0
  4  9  1  0  0  0  0
  9 10  1  0  0  0  0
 10 11  1  0  0  0  0
 11 12  1  0  0  0  0
 10 13  2  0  0  0  0
  1 14  1  0  0  0  0
 14 15  1  0  0  0  0
 15 16  2  0  0  0  0
 15 17  1  0  0  0  0
 17 18  1  0  0  0  0
 19 18  1  0  0  0  0
 20 19  2  0  0  0  0
 20 21  1  0  0  0  0
 22 20  1  0  0  0  0
 23 22  2  0  0  0  0
 23 24  1  0  0  0  0
 25 23  1  0  0  0  0
 18 25  2  0  0  0  0
M  END
> <ChemID>
100725

> <CAS>
74222-97-2

> <Original_SMILES>
COC(=O)c1ccccc1S(=O)(=O)NC(=O)Nc1[n]c(C)cc(C)[n]1

> <preferred_name>
Sulfometuron-methyl

> <dsstox_substance_id>
DTXSID0034936

> <dsstox_compound_id>
DTXCID8014936

> <qc_level>
DSSTox_Low

> <Canonical_QSARr>
CC1C=C(C)N=C(NC(=O)NS(=O)(=O)C2=CC=CC=C2C(=O)OC)N=1

> <InChI_Code_QSARr>
InChI=1S/C15H16N4O5S/c1-9-8-10(2)17-14(16-9)18-15(21)19-25(22,23)12-7-5-4-6-11(12)13(20)24-3/h4-8H,1-3H3,(H2,16,17,18,19,21)

> <InChI Key_QSARr>
ZDXMLEQEMNLCQG-UHFFFAOYSA-N

> <Salt_Solvent>


> <Salt_Solvent_ID>
0

> <MPID>
99972

> <KocRef>
Schuurmann-Main

> <LogKOC>
1.62

> <Tr_1_Tst_0>
1

$$$$
100726
  Mrv171c012251911022D          

 24 25  0  0  0  0            999 V2000
    5.8737   -0.0859    0.0000 S   0  0  0  0  0  0  0  0  0  0  0  0
    6.5882   -0.4984    0.0000 C   0  0  0  0  0  0  0  0  0  0  0  0
    6.5882   -1.3234    0.0000 C   0  0  0  0  0  0  0  0  0  0  0  0
    7.3027   -1.7359    0.0000 C   0  0  0  0  0  0  0  0  0  0  0  0
    8.0172   -1.3234    0.0000 C   0  0  0  0  0  0  0  0  0  0  0  0
    8.0172   -0.4984    0.0000 C   0  0  0  0  0  0  0  0  0  0  0  0
    7.3027   -0.0859    0.0000 C   0  0  0  0  0  0  0  0  0  0  0  0
    7.3027    0.7391    0.0000 C   0  0  0  0  0  0  0  0  0  0  0  0
    6.5882    1.1516    0.0000 O   0  0  0  0  0  0  0  0  0  0  0  0
    8.0172    1.1516    0.0000 O   0  0  0  0  0  0  0  0  0  0  0  0
    5.1593    0.3266    0.0000 N   0  0  0  0  0  0  0  0  0  0  0  0
    4.4448   -0.0859    0.0000 C   0  0  0  0  0  0  0  0  0  0  0  0
    3.7303    0.3266    0.0000 N   0  0  0  0  0  0  0  0  0  0  0  0
    3.0159   -0.0859    0.0000 C   0  0  0  0  0  0  0  0  0  0  0  0
    2.3014    0.3266    0.0000 N   0  0  0  0  0  0  0  0  0  0  0  0
    1.5869   -0.0859    0.0000 C   0  0  0  0  0  0  0  0  0  0  0  0
    0.8725    0.3266    0.0000 C   0  0  0  0  0  0  0  0  0  0  0  0
    1.5869   -0.9109    0.0000 C   0  0  0  0  0  0  0  0  0  0  0  0
    2.3014   -1.3234    0.0000 C   0  0  0  0  0  0  0  0  0  0  0  0
    2.3014   -2.1484    0.0000 C   0  0  0  0  0  0  0  0  0  0  0  0
    3.0159   -0.9109    0.0000 N   0  0  0  0  0  0  0  0  0  0  0  0
    4.4448   -0.9109    0.0000 O   0  0  0  0  0  0  0  0  0  0  0  0
    6.2862    0.6285    0.0000 O   0  0  0  0  0  0  0  0  0  0  0  0
    5.4612   -0.8004    0.0000 O   0  0  0  0  0  0  0  0  0  0  0  0
  1  2  1  0  0  0  0
  3  2  2  0  0  0  0
  4  3  1  0  0  0  0
  5  4  2  0  0  0  0
  6  5  1  0  0  0  0
  7  6  2  0  0  0  0
  2  7  1  0  0  0  0
  7  8  1  0  0  0  0
  8  9  2  0  0  0  0
  8 10  1  0  0  0  0
  1 11  1  0  0  0  0
 11 12  1  0  0  0  0
 12 13  1  0  0  0  0
 13 14  1  0  0  0  0
 15 14  2  0  0  0  0
 16 15  1  0  0  0  0
 16 17  1  0  0  0  0
 18 16  2  0  0  0  0
 19 18  1  0  0  0  0
 19 20  1  0  0  0  0
 21 19  2  0  0  0  0
 14 21  1  0  0  0  0
 12 22  2  0  0  0  0
  1 23  2  0  0  0  0
  1 24  2  0  0  0  0
M  END
> <ChemID>
100726

> <CAS>
74223-56-6

> <Original_SMILES>
Cc1cc(C)[n]c(NC(=O)NS(=O)(=O)c2ccccc2C(O)=O)[n]1

> <preferred_name>
Sulfometuron [ANSI:BSI:ISO]

> <dsstox_substance_id>
DTXSID20225213

> <dsstox_compound_id>
DTXCID20147704

> <qc_level>
Public_Medium

> <Canonical_QSARr>
CC1C=C(C)N=C(NC(=O)NS(=O)(=O)C2=CC=CC=C2C(O)=O)N=1

> <InChI_Code_QSARr>
InChI=1S/C14H14N4O5S/c1-8-7-9(2)16-13(15-8)17-14(21)18-24(22,23)11-6-4-3-5-10(11)12(19)20/h3-7H,1-2H3,(H,19,20)(H2,15,16,17,18,21)

> <InChI Key_QSARr>
FZMKKCQHDROFNI-UHFFFAOYSA-N

> <Salt_Solvent>


> <Salt_Solvent_ID>
0

> <MPID>
99973

> <KocRef>
SRC 1992 Supplement

> <LogKOC>
1.8

> <Tr_1_Tst_0>
1

$$$$
100727
  Mrv171c012251911022D          

 26 27  0  0  0  0            999 V2000
    5.0706   -3.6018    0.0000 O   0  0  0  0  0  0  0  0  0  0  0  0
    5.7850   -3.1893    0.0000 C   0  0  0  0  0  0  0  0  0  0  0  0
    4.3561   -3.1893    0.0000 C   0  0  0  0  0  0  0  0  0  0  0  0
    3.6416   -3.6018    0.0000 C   0  0  0  0  0  0  0  0  0  0  0  0
    2.9271   -3.1893    0.0000 C   0  0  0  0  0  0  0  0  0  0  0  0
    2.9271   -2.3643    0.0000 S   0  0  0  0  0  0  0  0  0  0  0  0
    2.9271   -1.5393    0.0000 N   0  0  0  0  0  0  0  0  0  0  0  0
    3.6416   -1.1268    0.0000 C   0  0  0  0  0  0  0  0  0  0  0  0
    3.6416   -0.3018    0.0000 N   0  0  0  0  0  0  0  0  0  0  0  0
    4.3561    0.1107    0.0000 C   0  0  0  0  0  0  0  0  0  0  0  0
    5.0706   -0.3018    0.0000 N   0  0  0  0  0  0  0  0  0  0  0  0
    5.7850    0.1107    0.0000 C   0  0  0  0  0  0  0  0  0  0  0  0
    6.4995   -0.3018    0.0000 C   0  0  0  0  0  0  0  0  0  0  0  0
    5.7850    0.9357    0.0000 N   0  0  0  0  0  0  0  0  0  0  0  0
    5.0706    1.3482    0.0000 C   0  0  0  0  0  0  0  0  0  0  0  0
    5.0706    2.1732    0.0000 O   0  0  0  0  0  0  0  0  0  0  0  0
    4.3561    2.5857    0.0000 C   0  0  0  0  0  0  0  0  0  0  0  0
    4.3561    0.9357    0.0000 N   0  0  0  0  0  0  0  0  0  0  0  0
    4.3561   -1.5393    0.0000 O   0  0  0  0  0  0  0  0  0  0  0  0
    3.7521   -2.3643    0.0000 O   0  0  0  0  0  0  0  0  0  0  0  0
    2.1021   -2.3643    0.0000 O   0  0  0  0  0  0  0  0  0  0  0  0
    2.2127   -3.6018    0.0000 C   0  0  0  0  0  0  0  0  0  0  0  0
    2.2127   -4.4268    0.0000 C   0  0  0  0  0  0  0  0  0  0  0  0
    2.9271   -4.8393    0.0000 C   0  0  0  0  0  0  0  0  0  0  0  0
    3.6416   -4.4268    0.0000 C   0  0  0  0  0  0  0  0  0  0  0  0
    4.3561   -2.3643    0.0000 O   0  0  0  0  0  0  0  0  0  0  0  0
  1  2  1  0  0  0  0
  1  3  1  0  0  0  0
  3  4  1  0  0  0  0
  5  4  2  0  0  0  0
  5  6  1  0  0  0  0
  6  7  1  0  0  0  0
  7  8  1  0  0  0  0
  8  9  1  0  0  0  0
  9 10  1  0  0  0  0
 11 10  2  0  0  0  0
 12 11  1  0  0  0  0
 12 13  1  0  0  0  0
 14 12  2  0  0  0  0
 15 14  1  0  0  0  0
 15 16  1  0  0  0  0
 16 17  1  0  0  0  0
 18 15  2  0  0  0  0
 10 18  1  0  0  0  0
  8 19  2  0  0  0  0
  6 20  2  0  0  0  0
  6 21  2  0  0  0  0
 22  5  1  0  0  0  0
 23 22  2  0  0  0  0
 24 23  1  0  0  0  0
 25 24  2  0  0  0  0
  4 25  1  0  0  0  0
  3 26  2  0  0  0  0
M  END
> <ChemID>
100727

> <CAS>
74223-64-6

> <Original_SMILES>
Cc1[n]c(NC(=O)NS(=O)(=O)c2ccccc2C(=O)OC)[n]c([n]1)OC

> <preferred_name>
Metsulfuron-methyl

> <dsstox_substance_id>
DTXSID6023864

> <dsstox_compound_id>
DTXCID303864

> <qc_level>
DSSTox_Low

> <Canonical_QSARr>
CC1N=C(NC(=O)NS(=O)(=O)C2C=CC=CC=2C(=O)OC)N=C(N=1)OC

> <InChI_Code_QSARr>
InChI=1S/C14H15N5O6S/c1-8-15-12(18-14(16-8)25-3)17-13(21)19-26(22,23)10-7-5-4-6-9(10)11(20)24-2/h4-7H,1-3H3,(H2,15,16,17,18,19,21)

> <InChI Key_QSARr>
RSMUVYRMZCOLBH-UHFFFAOYSA-N

> <Salt_Solvent>


> <Salt_Solvent_ID>
0

> <MPID>
99974

> <KocRef>
Schuurmann-Main

> <LogKOC>
1.54

> <Tr_1_Tst_0>
0

$$$$
100729
  Mrv171c012251911022D          

 26 28  0  0  0  0            999 V2000
    2.6377    0.0352    0.0000 N   0  0  0  0  0  0  0  0  0  0  0  0
    2.6377    0.8602    0.0000 C   0  0  0  0  0  0  0  0  0  0  0  0
    1.9233    1.2727    0.0000 C   0  0  0  0  0  0  0  0  0  0  0  0
    1.9233    2.0977    0.0000 C   0  0  0  0  0  0  0  0  0  0  0  0
    2.6377    2.5102    0.0000 C   0  0  0  0  0  0  0  0  0  0  0  0
    2.6377    3.3352    0.0000 Cl  0  0  0  0  0  0  0  0  0  0  0  0
    3.3522    2.0977    0.0000 C   0  0  0  0  0  0  0  0  0  0  0  0
    3.3522    1.2727    0.0000 C   0  0  0  0  0  0  0  0  0  0  0  0
    4.0667    0.8602    0.0000 N   0  0  0  0  0  0  0  0  0  0  0  0
    4.0667    0.0352    0.0000 C   0  0  0  0  0  0  0  0  0  0  0  0
    3.3522   -0.3773    0.0000 C   0  0  0  0  0  0  0  0  0  0  0  0
    3.3522   -1.2023    0.0000 O   0  0  0  0  0  0  0  0  0  0  0  0
    4.0667   -1.6148    0.0000 C   0  0  0  0  0  0  0  0  0  0  0  0
    4.0667   -2.4398    0.0000 C   0  0  0  0  0  0  0  0  0  0  0  0
    4.7811   -2.8523    0.0000 C   0  0  0  0  0  0  0  0  0  0  0  0
    5.4956   -2.4398    0.0000 C   0  0  0  0  0  0  0  0  0  0  0  0
    6.2101   -2.8523    0.0000 O   0  0  0  0  0  0  0  0  0  0  0  0
    6.9246   -2.4398    0.0000 C   0  0  0  0  0  0  0  0  0  0  0  0
    6.9246   -1.6148    0.0000 C   0  0  0  0  0  0  0  0  0  0  0  0
    7.6390   -2.8523    0.0000 C   0  0  0  0  0  0  0  0  0  0  0  0
    8.3535   -2.4398    0.0000 O   0  0  0  0  0  0  0  0  0  0  0  0
    9.0680   -2.8523    0.0000 C   0  0  0  0  0  0  0  0  0  0  0  0
    9.7824   -2.4398    0.0000 C   0  0  0  0  0  0  0  0  0  0  0  0
    7.6390   -3.6773    0.0000 O   0  0  0  0  0  0  0  0  0  0  0  0
    5.4956   -1.6148    0.0000 C   0  0  0  0  0  0  0  0  0  0  0  0
    4.7811   -1.2023    0.0000 C   0  0  0  0  0  0  0  0  0  0  0  0
  2  1  2  0  0  0  0
  2  3  1  0  0  0  0
  3  4  2  0  0  0  0
  4  5  1  0  0  0  0
  5  6  1  0  0  0  0
  5  7  2  0  0  0  0
  7  8  1  0  0  0  0
  8  2  1  0  0  0  0
  9  8  2  0  0  0  0
 10  9  1  0  0  0  0
 11 10  2  0  0  0  0
  1 11  1  0  0  0  0
 11 12  1  0  0  0  0
 12 13  1  0  0  0  0
 14 13  1  0  0  0  0
 15 14  2  0  0  0  0
 16 15  1  0  0  0  0
 16 17  1  0  0  0  0
 17 18  1  0  0  0  0
 18 19  1  0  0  0  0
 18 20  1  0  0  0  0
 20 21  1  0  0  0  0
 21 22  1  0  0  0  0
 22 23  1  0  0  0  0
 20 24  2  0  0  0  0
 25 16  2  0  0  0  0
 26 25  1  0  0  0  0
 13 26  2  0  0  0  0
M  END
> <ChemID>
100729

> <CAS>
76578-14-8

> <Original_SMILES>
CCOC(=O)C(C)Oc1ccc(cc1)Oc1c[n]c2cc(Cl)ccc2[n]1

> <preferred_name>
Quizalofop-ethyl

> <dsstox_substance_id>
DTXSID9023889

> <dsstox_compound_id>
DTXCID903889

> <qc_level>
DSSTox_Low

> <Canonical_QSARr>
CCOC(=O)C(C)OC1C=CC(=CC=1)OC1=CN=C2C=C(Cl)C=CC2=N1

> <InChI_Code_QSARr>
InChI=1S/C19H17ClN2O4/c1-3-24-19(23)12(2)25-14-5-7-15(8-6-14)26-18-11-21-17-10-13(20)4-9-16(17)22-18/h4-12H,3H2,1-2H3

> <InChI Key_QSARr>
OSUHJPCHFDQAIT-UHFFFAOYSA-N

> <Salt_Solvent>


> <Salt_Solvent_ID>
0

> <MPID>
99975

> <KocRef>
Schuurmann-Main

> <LogKOC>
2.71

> <Tr_1_Tst_0>
1

$$$$
100730
  Mrv171c012251911022D          

 22 24  0  0  0  0            999 V2000
    2.2494   -2.3926    0.0000 C   0  0  0  0  0  0  0  0  0  0  0  0
    2.6619   -3.1071    0.0000 O   0  0  0  0  0  0  0  0  0  0  0  0
    2.9639   -1.9801    0.0000 C   0  0  0  0  0  0  0  0  0  0  0  0
    3.6784   -2.3926    0.0000 C   0  0  0  0  0  0  0  0  0  0  0  0
    4.3928   -1.9801    0.0000 C   0  0  0  0  0  0  0  0  0  0  0  0
    4.3928   -1.1551    0.0000 C   0  0  0  0  0  0  0  0  0  0  0  0
    5.1073   -0.7426    0.0000 F   0  0  0  0  0  0  0  0  0  0  0  0
    3.6784   -0.7426    0.0000 C   0  0  0  0  0  0  0  0  0  0  0  0
    2.9639   -1.1551    0.0000 C   0  0  0  0  0  0  0  0  0  0  0  0
    1.5350   -2.8051    0.0000 C   0  0  0  0  0  0  0  0  0  0  0  0
    1.5350   -3.6301    0.0000 N   0  0  0  0  0  0  0  0  0  0  0  0
    0.8675   -4.1150    0.0000 C   0  0  0  0  0  0  0  0  0  0  0  0
    1.1225   -4.8997    0.0000 N   0  0  0  0  0  0  0  0  0  0  0  0
    1.9475   -4.8997    0.0000 C   0  0  0  0  0  0  0  0  0  0  0  0
    2.2024   -4.1150    0.0000 N   0  0  0  0  0  0  0  0  0  0  0  0
    1.8369   -1.6781    0.0000 C   0  0  0  0  0  0  0  0  0  0  0  0
    2.2494   -0.9637    0.0000 C   0  0  0  0  0  0  0  0  0  0  0  0
    1.8369   -0.2492    0.0000 C   0  0  0  0  0  0  0  0  0  0  0  0
    1.0119   -0.2492    0.0000 C   0  0  0  0  0  0  0  0  0  0  0  0
    0.5994   -0.9637    0.0000 C   0  0  0  0  0  0  0  0  0  0  0  0
    1.0119   -1.6781    0.0000 C   0  0  0  0  0  0  0  0  0  0  0  0
    0.5994   -2.3926    0.0000 F   0  0  0  0  0  0  0  0  0  0  0  0
  1  2  1  0  0  0  0
  1  3  1  0  0  0  0
  4  3  2  0  0  0  0
  5  4  1  0  0  0  0
  6  5  2  0  0  0  0
  6  7  1  0  0  0  0
  8  6  1  0  0  0  0
  9  8  2  0  0  0  0
  3  9  1  0  0  0  0
  1 10  1  0  0  0  0
 10 11  1  0  0  0  0
 12 11  1  0  0  0  0
 13 12  2  0  0  0  0
 14 13  1  0  0  0  0
 15 14  2  0  0  0  0
 11 15  1  0  0  0  0
  1 16  1  0  0  0  0
 17 16  1  0  0  0  0
 18 17  2  0  0  0  0
 19 18  1  0  0  0  0
 20 19  2  0  0  0  0
 21 20  1  0  0  0  0
 16 21  2  0  0  0  0
 21 22  1  0  0  0  0
M  END
> <ChemID>
100730

> <CAS>
76674-21-0

> <Original_SMILES>
OC(C[n]1c[n]c[n]1)(c1ccccc1F)c1ccc(F)cc1

> <preferred_name>
Flutriafol

> <dsstox_substance_id>
DTXSID8040727

> <dsstox_compound_id>
DTXCID6020727

> <qc_level>
DSSTox_Low

> <Canonical_QSARr>
OC(CN1C=NC=N1)(C1C=CC=CC=1F)C1C=CC(F)=CC=1

> <InChI_Code_QSARr>
InChI=1S/C16H13F2N3O/c17-13-7-5-12(6-8-13)16(22,9-21-11-19-10-20-21)14-3-1-2-4-15(14)18/h1-8,10-11,22H,9H2

> <InChI Key_QSARr>
JWUCHKBSVLQQCO-UHFFFAOYSA-N

> <Salt_Solvent>


> <Salt_Solvent_ID>
0

> <MPID>
99976

> <KocRef>
Schuurmann-Main

> <LogKOC>
1.88

> <Tr_1_Tst_0>
1

$$$$
100731
  Mrv171c012251911022D          

 20 21  0  0  0  0            999 V2000
    1.9339   -1.9475    0.0000 N   0  0  0  0  0  0  0  0  0  0  0  0
    1.9339   -1.1225    0.0000 C   0  0  0  0  0  0  0  0  0  0  0  0
    2.6483   -0.7100    0.0000 C   0  0  0  0  0  0  0  0  0  0  0  0
    3.3628   -1.1225    0.0000 C   0  0  0  0  0  0  0  0  0  0  0  0
    3.3628   -1.9475    0.0000 C   0  0  0  0  0  0  0  0  0  0  0  0
    4.0773   -2.3600    0.0000 C   0  0  0  0  0  0  0  0  0  0  0  0
    4.7918   -1.9475    0.0000 C   0  0  0  0  0  0  0  0  0  0  0  0
    5.5062   -2.3600    0.0000 Cl  0  0  0  0  0  0  0  0  0  0  0  0
    4.7918   -1.1225    0.0000 C   0  0  0  0  0  0  0  0  0  0  0  0
    4.0773   -0.7100    0.0000 C   0  0  0  0  0  0  0  0  0  0  0  0
    1.2194   -0.7100    0.0000 C   0  0  0  0  0  0  0  0  0  0  0  0
    1.2194    0.1150    0.0000 O   0  0  0  0  0  0  0  0  0  0  0  0
    0.5049   -1.1225    0.0000 C   0  0  0  0  0  0  0  0  0  0  0  0
   -0.2095   -1.5350    0.0000 C   0  0  0  0  0  0  0  0  0  0  0  0
    0.0924   -0.4080    0.0000 C   0  0  0  0  0  0  0  0  0  0  0  0
    0.9174   -1.8370    0.0000 C   0  0  0  0  0  0  0  0  0  0  0  0
    1.2664   -2.4324    0.0000 C   0  0  0  0  0  0  0  0  0  0  0  0
    1.5214   -3.2170    0.0000 N   0  0  0  0  0  0  0  0  0  0  0  0
    2.3464   -3.2170    0.0000 C   0  0  0  0  0  0  0  0  0  0  0  0
    2.6013   -2.4324    0.0000 N   0  0  0  0  0  0  0  0  0  0  0  0
  1  2  1  0  0  0  0
  2  3  1  0  0  0  0
  3  4  1  0  0  0  0
  5  4  2  0  0  0  0
  6  5  1  0  0  0  0
  7  6  2  0  0  0  0
  7  8  1  0  0  0  0
  9  7  1  0  0  0  0
 10  9  2  0  0  0  0
  4 10  1  0  0  0  0
  2 11  1  0  0  0  0
 11 12  1  0  0  0  0
 11 13  1  0  0  0  0
 13 14  1  0  0  0  0
 13 15  1  0  0  0  0
 13 16  1  0  0  0  0
 17  1  1  0  0  0  0
 18 17  2  0  0  0  0
 19 18  1  0  0  0  0
 20 19  2  0  0  0  0
  1 20  1  0  0  0  0
M  END
> <ChemID>
100731

> <CAS>
76738-62-0

> <Original_SMILES>
CC(C)(C)[C@@H](O)[C@@H](Cc1ccc(Cl)cc1)[n]1c[n]c[n]1

> <preferred_name>
Paclobutrazol

> <dsstox_substance_id>
DTXSID2024242

> <dsstox_compound_id>
DTXCID50196503

> <qc_level>
DSSTox_High

> <Canonical_QSARr>
CC(C)(C)C(O)C(CC1=CC=C(Cl)C=C1)N1C=NC=N1

> <InChI_Code_QSARr>
InChI=1S/C15H20ClN3O/c1-15(2,3)14(20)13(19-10-17-9-18-19)8-11-4-6-12(16)7-5-11/h4-7,9-10,13-14,20H,8H2,1-3H3

> <InChI Key_QSARr>
RMOGWMIKYWRTKW-UHFFFAOYSA-N

> <Salt_Solvent>


> <Salt_Solvent_ID>
0

> <MPID>
99977

> <KocRef>
USDA Pest Prop DB

> <LogKOC>
2.7

> <Tr_1_Tst_0>
1

$$$$
100732
  Mrv171c012251911022D          

 11 10  0  0  0  0            999 V2000
    1.5990   -2.2834    0.0000 O   0  0  0  0  0  0  0  0  0  0  0  0
    1.1865   -1.5689    0.0000 C   0  0  0  0  0  0  0  0  0  0  0  0
    1.5990   -0.8544    0.0000 C   0  0  0  0  0  0  0  0  0  0  0  0
    2.4240   -0.8544    0.0000 N   0  0  0  0  0  0  0  0  0  0  0  0
    1.1865   -0.1400    0.0000 C   0  0  0  0  0  0  0  0  0  0  0  0
    1.5990    0.5745    0.0000 C   0  0  0  0  0  0  0  0  0  0  0  0
    1.1865    1.2890    0.0000 P   0  0  0  0  0  0  0  0  0  0  0  0
    0.7740    2.0035    0.0000 O   0  0  0  0  0  0  0  0  0  0  0  0
    1.9010    1.7015    0.0000 O   0  0  0  0  0  0  0  0  0  0  0  0
    0.4721    0.8765    0.0000 C   0  0  0  0  0  0  0  0  0  0  0  0
    0.3615   -1.5689    0.0000 O   0  0  0  0  0  0  0  0  0  0  0  0
  1  2  1  0  0  0  0
  2  3  1  0  0  0  0
  3  4  1  0  0  0  0
  3  5  1  0  0  0  0
  5  6  1  0  0  0  0
  6  7  1  0  0  0  0
  7  8  2  0  0  0  0
  7  9  1  0  0  0  0
  7 10  1  0  0  0  0
  2 11  2  0  0  0  0
M  END
> <ChemID>
100732

> <CAS>
77182-82-2

> <Original_SMILES>
[NH4+].CP(O)(=O)CCC(N)C([O-])=O

> <preferred_name>
Glufosinate-ammonium

> <dsstox_substance_id>
DTXSID1024120

> <dsstox_compound_id>
DTXCID204120

> <qc_level>
DSSTox_High

> <Canonical_QSARr>
CP(O)(=O)CCC(N)C(O)=O

> <InChI_Code_QSARr>
InChI=1S/C5H12NO4P/c1-11(9,10)3-2-4(6)5(7)8/h4H,2-3,6H2,1H3,(H,7,8)(H,9,10)

> <InChI Key_QSARr>
IAJOBQBIJHVGMQ-UHFFFAOYSA-N

> <Salt_Solvent>
[NH4+]

> <Salt_Solvent_ID>
70

> <MPID>
99978

> <KocRef>
USDA Pest Prop DB

> <LogKOC>
2.63

> <Tr_1_Tst_0>
1

$$$$
100733
  Mrv171c012251911022D          

 31 32  0  0  0  0            999 V2000
    3.6640   -2.8180    0.0000 C   0  0  0  0  0  0  0  0  0  0  0  0
    4.3785   -3.2305    0.0000 O   0  0  0  0  0  0  0  0  0  0  0  0
    5.0930   -2.8180    0.0000 C   0  0  0  0  0  0  0  0  0  0  0  0
    5.0930   -1.9930    0.0000 C   0  0  0  0  0  0  0  0  0  0  0  0
    5.8074   -3.2305    0.0000 C   0  0  0  0  0  0  0  0  0  0  0  0
    5.8074   -4.0555    0.0000 O   0  0  0  0  0  0  0  0  0  0  0  0
    6.5219   -2.8180    0.0000 O   0  0  0  0  0  0  0  0  0  0  0  0
    7.2364   -3.2305    0.0000 C   0  0  0  0  0  0  0  0  0  0  0  0
    7.9508   -2.8180    0.0000 C   0  0  0  0  0  0  0  0  0  0  0  0
    2.9495   -3.2305    0.0000 C   0  0  0  0  0  0  0  0  0  0  0  0
    2.2351   -2.8180    0.0000 C   0  0  0  0  0  0  0  0  0  0  0  0
    1.5206   -3.2305    0.0000 C   0  0  0  0  0  0  0  0  0  0  0  0
    0.8061   -2.8180    0.0000 O   0  0  0  0  0  0  0  0  0  0  0  0
    0.0917   -3.2305    0.0000 C   0  0  0  0  0  0  0  0  0  0  0  0
   -0.6228   -2.8180    0.0000 C   0  0  0  0  0  0  0  0  0  0  0  0
   -1.3373   -3.2305    0.0000 C   0  0  0  0  0  0  0  0  0  0  0  0
   -1.3373   -4.0555    0.0000 C   0  0  0  0  0  0  0  0  0  0  0  0
   -2.0518   -4.4680    0.0000 C   0  0  0  0  0  0  0  0  0  0  0  0
   -2.7662   -4.8805    0.0000 F   0  0  0  0  0  0  0  0  0  0  0  0
   -2.4643   -3.7535    0.0000 F   0  0  0  0  0  0  0  0  0  0  0  0
   -1.6393   -5.1825    0.0000 F   0  0  0  0  0  0  0  0  0  0  0  0
   -0.6228   -4.4680    0.0000 C   0  0  0  0  0  0  0  0  0  0  0  0
    0.0917   -4.0555    0.0000 C   0  0  0  0  0  0  0  0  0  0  0  0
    0.8061   -4.4680    0.0000 Cl  0  0  0  0  0  0  0  0  0  0  0  0
    1.5206   -4.0555    0.0000 C   0  0  0  0  0  0  0  0  0  0  0  0
    2.2351   -4.4680    0.0000 C   0  0  0  0  0  0  0  0  0  0  0  0
    2.9495   -4.0555    0.0000 C   0  0  0  0  0  0  0  0  0  0  0  0
    3.6640   -4.4680    0.0000 N   0  3  0  0  0  0  0  0  0  0  0  0
    4.3785   -4.0555    0.0000 O   0  0  0  0  0  0  0  0  0  0  0  0
    3.6640   -5.2930    0.0000 O   0  5  0  0  0  0  0  0  0  0  0  0
    3.6640   -1.9930    0.0000 O   0  0  0  0  0  0  0  0  0  0  0  0
  1  2  1  0  0  0  0
  2  3  1  0  0  0  0
  3  4  1  0  0  0  0
  3  5  1  0  0  0  0
  5  6  2  0  0  0  0
  5  7  1  0  0  0  0
  7  8  1  0  0  0  0
  8  9  1  0  0  0  0
  1 10  1  0  0  0  0
 11 10  1  0  0  0  0
 12 11  2  0  0  0  0
 12 13  1  0  0  0  0
 13 14  1  0  0  0  0
 15 14  1  0  0  0  0
 16 15  2  0  0  0  0
 17 16  1  0  0  0  0
 17 18  1  0  0  0  0
 18 19  1  0  0  0  0
 18 20  1  0  0  0  0
 18 21  1  0  0  0  0
 22 17  2  0  0  0  0
 23 22  1  0  0  0  0
 14 23  2  0  0  0  0
 23 24  1  0  0  0  0
 25 12  1  0  0  0  0
 26 25  2  0  0  0  0
 27 26  1  0  0  0  0
 10 27  2  0  0  0  0
 27 28  1  0  0  0  0
 28 29  2  0  0  0  0
 28 30  1  0  0  0  0
  1 31  2  0  0  0  0
M  CHG  2  28   1  30  -1
M  END
> <ChemID>
100733

> <CAS>
77501-63-4

> <Original_SMILES>
CCOC(=O)C(C)OC(=O)c1cc(ccc1[N+]([O-])=O)Oc1ccc(cc1Cl)C(F)(F)F

> <preferred_name>
Lactofen

> <dsstox_substance_id>
DTXSID7024160

> <dsstox_compound_id>
DTXCID404160

> <qc_level>
DSSTox_Low

> <Canonical_QSARr>
CCOC(=O)C(C)OC(=O)C1C=C(C=CC=1[N+]([O-])=O)OC1C=CC(=CC=1Cl)C(F)(F)F

> <InChI_Code_QSARr>
InChI=1S/C19H15ClF3NO7/c1-3-29-17(25)10(2)30-18(26)13-9-12(5-6-15(13)24(27)28)31-16-7-4-11(8-14(16)20)19(21,22)23/h4-10H,3H2,1-2H3

> <InChI Key_QSARr>
CONWAEURSVPLRM-UHFFFAOYSA-N

> <Salt_Solvent>


> <Salt_Solvent_ID>
0

> <MPID>
99979

> <KocRef>
USDA Pest Prop DB

> <LogKOC>
4.0

> <Tr_1_Tst_0>
0

$$$$
100735
  Mrv171c012251911022D          

 17 18  0  0  0  0            999 V2000
    2.5714   -4.9709    0.0000 C   0  0  0  0  0  0  0  0  0  0  0  0
    2.5714   -5.7959    0.0000 N   0  0  0  0  0  0  0  0  0  0  0  0
    3.2858   -4.5584    0.0000 N   0  0  0  0  0  0  0  0  0  0  0  0
    3.2858   -3.7334    0.0000 C   0  0  0  0  0  0  0  0  0  0  0  0
    4.0003   -3.3209    0.0000 C   0  0  0  0  0  0  0  0  0  0  0  0
    4.0003   -2.4959    0.0000 C   0  0  0  0  0  0  0  0  0  0  0  0
    3.2858   -2.0834    0.0000 C   0  0  0  0  0  0  0  0  0  0  0  0
    3.2858   -1.2584    0.0000 O   0  0  0  0  0  0  0  0  0  0  0  0
    2.5714   -0.8459    0.0000 C   0  0  0  0  0  0  0  0  0  0  0  0
    2.5714   -0.0209    0.0000 C   0  0  0  0  0  0  0  0  0  0  0  0
    1.8569    0.3916    0.0000 C   0  0  0  0  0  0  0  0  0  0  0  0
    1.1424   -0.0209    0.0000 C   0  0  0  0  0  0  0  0  0  0  0  0
    1.1424   -0.8459    0.0000 C   0  0  0  0  0  0  0  0  0  0  0  0
    1.8569   -1.2584    0.0000 C   0  0  0  0  0  0  0  0  0  0  0  0
    2.5714   -2.4959    0.0000 C   0  0  0  0  0  0  0  0  0  0  0  0
    2.5714   -3.3209    0.0000 C   0  0  0  0  0  0  0  0  0  0  0  0
    1.8569   -4.5584    0.0000 O   0  0  0  0  0  0  0  0  0  0  0  0
  1  2  1  0  0  0  0
  1  3  1  0  0  0  0
  3  4  1  0  0  0  0
  5  4  1  0  0  0  0
  6  5  2  0  0  0  0
  7  6  1  0  0  0  0
  7  8  1  0  0  0  0
  8  9  1  0  0  0  0
 10  9  1  0  0  0  0
 11 10  2  0  0  0  0
 12 11  1  0  0  0  0
 13 12  2  0  0  0  0
 14 13  1  0  0  0  0
  9 14  2  0  0  0  0
 15  7  2  0  0  0  0
 16 15  1  0  0  0  0
  4 16  2  0  0  0  0
  1 17  2  0  0  0  0
M  END
> <ChemID>
100735

> <CAS>
78508-44-8

> <Original_SMILES>
NC(=O)Nc1ccc(cc1)Oc1ccccc1

> <preferred_name>


> <dsstox_substance_id>
DTXSID60877139

> <dsstox_compound_id>
DTXCID001015222

> <qc_level>


> <Canonical_QSARr>
NC(=O)NC1C=CC(=CC=1)OC1C=CC=CC=1

> <InChI_Code_QSARr>
InChI=1S/C13H12N2O2/c14-13(16)15-10-6-8-12(9-7-10)17-11-4-2-1-3-5-11/h1-9H,(H3,14,15,16)

> <InChI Key_QSARr>
ABBMQADJUMXTAJ-UHFFFAOYSA-N

> <Salt_Solvent>


> <Salt_Solvent_ID>
0

> <MPID>
99980

> <KocRef>
Schuurmann-Main

> <LogKOC>
2.56

> <Tr_1_Tst_0>
1

$$$$
100736
  Mrv171c012251911022D          

 12 12  0  0  0  0            999 V2000
    2.5796   -3.2150    0.0000 C   0  0  0  0  0  0  0  0  0  0  0  0
    3.2941   -3.6275    0.0000 N   0  0  0  0  0  0  0  0  0  0  0  0
    2.5796   -2.3900    0.0000 N   0  0  0  0  0  0  0  0  0  0  0  0
    1.8652   -1.9775    0.0000 C   0  0  0  0  0  0  0  0  0  0  0  0
    1.8652   -1.1525    0.0000 C   0  0  0  0  0  0  0  0  0  0  0  0
    1.1507   -0.7400    0.0000 C   0  0  0  0  0  0  0  0  0  0  0  0
    1.1507    0.0850    0.0000 C   0  0  0  0  0  0  0  0  0  0  0  0
    0.4362   -1.1525    0.0000 C   0  0  0  0  0  0  0  0  0  0  0  0
   -0.2783   -0.7400    0.0000 F   0  0  0  0  0  0  0  0  0  0  0  0
    0.4362   -1.9775    0.0000 C   0  0  0  0  0  0  0  0  0  0  0  0
    1.1507   -2.3900    0.0000 C   0  0  0  0  0  0  0  0  0  0  0  0
    1.8652   -3.6275    0.0000 O   0  0  0  0  0  0  0  0  0  0  0  0
  1  2  1  0  0  0  0
  1  3  1  0  0  0  0
  3  4  1  0  0  0  0
  5  4  1  0  0  0  0
  6  5  2  0  0  0  0
  6  7  1  0  0  0  0
  8  6  1  0  0  0  0
  8  9  1  0  0  0  0
 10  8  2  0  0  0  0
 11 10  1  0  0  0  0
  4 11  2  0  0  0  0
  1 12  2  0  0  0  0
M  END
> <ChemID>
100736

> <CAS>
78508-45-9

> <Original_SMILES>
Cc1cc(ccc1F)NC(N)=O

> <preferred_name>


> <dsstox_substance_id>
DTXSID90879404

> <dsstox_compound_id>
DTXCID301017415

> <qc_level>


> <Canonical_QSARr>
CC1=CC(=CC=C1F)NC(N)=O

> <InChI_Code_QSARr>
InChI=1S/C8H9FN2O/c1-5-4-6(11-8(10)12)2-3-7(5)9/h2-4H,1H3,(H3,10,11,12)

> <InChI Key_QSARr>
FPZGSLWNDUCKEA-UHFFFAOYSA-N

> <Salt_Solvent>


> <Salt_Solvent_ID>
0

> <MPID>
99981

> <KocRef>
Schuurmann-Main

> <LogKOC>
1.75

> <Tr_1_Tst_0>
1

$$$$
100737
  Mrv171c012251911022D          

 12 12  0  0  0  0            999 V2000
    3.0790   -2.3966    0.0000 Br  0  0  0  0  0  0  0  0  0  0  0  0
    3.0790   -1.5716    0.0000 C   0  0  0  0  0  0  0  0  0  0  0  0
    3.7934   -1.1591    0.0000 C   0  0  0  0  0  0  0  0  0  0  0  0
    3.7934   -0.3341    0.0000 C   0  0  0  0  0  0  0  0  0  0  0  0
    3.0790    0.0784    0.0000 C   0  0  0  0  0  0  0  0  0  0  0  0
    3.0790    0.9034    0.0000 N   0  0  0  0  0  0  0  0  0  0  0  0
    3.7934    1.3159    0.0000 C   0  0  0  0  0  0  0  0  0  0  0  0
    3.7934    2.1409    0.0000 N   0  0  0  0  0  0  0  0  0  0  0  0
    4.5079    0.9034    0.0000 O   0  0  0  0  0  0  0  0  0  0  0  0
    2.3645   -0.3341    0.0000 C   0  0  0  0  0  0  0  0  0  0  0  0
    2.3645   -1.1591    0.0000 C   0  0  0  0  0  0  0  0  0  0  0  0
    1.6500   -1.5716    0.0000 C   0  0  0  0  0  0  0  0  0  0  0  0
  1  2  1  0  0  0  0
  3  2  1  0  0  0  0
  4  3  2  0  0  0  0
  5  4  1  0  0  0  0
  5  6  1  0  0  0  0
  6  7  1  0  0  0  0
  7  8  1  0  0  0  0
  7  9  2  0  0  0  0
 10  5  2  0  0  0  0
 11 10  1  0  0  0  0
  2 11  2  0  0  0  0
 11 12  1  0  0  0  0
M  END
> <ChemID>
100737

> <CAS>
78508-46-0

> <Original_SMILES>
Cc1cc(ccc1Br)NC(N)=O

> <preferred_name>
(3-Methyl-4-bromophenyl)urea

> <dsstox_substance_id>
DTXSID10229129

> <dsstox_compound_id>
DTXCID80151620

> <qc_level>
Public_Medium

> <Canonical_QSARr>
CC1C=C(C=CC=1Br)NC(N)=O

> <InChI_Code_QSARr>
InChI=1S/C8H9BrN2O/c1-5-4-6(11-8(10)12)2-3-7(5)9/h2-4H,1H3,(H3,10,11,12)

> <InChI Key_QSARr>
CRGNBCADENCADB-UHFFFAOYSA-N

> <Salt_Solvent>


> <Salt_Solvent_ID>
0

> <MPID>
99982

> <KocRef>
Schuurmann-Main

> <LogKOC>
2.37

> <Tr_1_Tst_0>
1

$$$$
100738
  Mrv171c012251911022D          

 23 25  0  0  0  0            999 V2000
    4.0810   -2.2593    0.0000 N   0  0  0  0  0  0  0  0  0  0  0  0
    3.4136   -1.7744    0.0000 C   0  0  0  0  0  0  0  0  0  0  0  0
    3.4136   -0.9494    0.0000 C   0  0  0  0  0  0  0  0  0  0  0  0
    2.7462   -2.2593    0.0000 C   0  0  0  0  0  0  0  0  0  0  0  0
    1.9615   -2.0044    0.0000 C   0  0  0  0  0  0  0  0  0  0  0  0
    1.7900   -1.1974    0.0000 C   0  0  0  0  0  0  0  0  0  0  0  0
    1.0054   -0.9425    0.0000 C   0  0  0  0  0  0  0  0  0  0  0  0
    0.3923   -1.4945    0.0000 C   0  0  0  0  0  0  0  0  0  0  0  0
   -0.3923   -1.2396    0.0000 Cl  0  0  0  0  0  0  0  0  0  0  0  0
    0.5638   -2.3015    0.0000 C   0  0  0  0  0  0  0  0  0  0  0  0
    1.3484   -2.5564    0.0000 C   0  0  0  0  0  0  0  0  0  0  0  0
    3.0011   -3.0440    0.0000 S   0  0  0  0  0  0  0  0  0  0  0  0
    3.8261   -3.0440    0.0000 C   0  0  0  0  0  0  0  0  0  0  0  0
    4.3110   -3.7114    0.0000 O   0  0  0  0  0  0  0  0  0  0  0  0
    4.8657   -2.0044    0.0000 C   0  0  0  0  0  0  0  0  0  0  0  0
    5.0372   -1.1974    0.0000 O   0  0  0  0  0  0  0  0  0  0  0  0
    5.4788   -2.5564    0.0000 N   0  0  0  0  0  0  0  0  0  0  0  0
    6.2634   -2.3015    0.0000 C   0  0  0  0  0  0  0  0  0  0  0  0
    6.8765   -2.8535    0.0000 C   0  0  0  0  0  0  0  0  0  0  0  0
    7.6611   -2.5986    0.0000 C   0  0  0  0  0  0  0  0  0  0  0  0
    7.8326   -1.7916    0.0000 C   0  0  0  0  0  0  0  0  0  0  0  0
    7.2195   -1.2396    0.0000 C   0  0  0  0  0  0  0  0  0  0  0  0
    6.4349   -1.4945    0.0000 C   0  0  0  0  0  0  0  0  0  0  0  0
  2  1  1  0  0  0  0
  2  3  1  0  0  0  0
  4  2  1  0  0  0  0
  4  5  1  0  0  0  0
  6  5  1  0  0  0  0
  7  6  2  0  0  0  0
  8  7  1  0  0  0  0
  8  9  1  0  0  0  0
 10  8  2  0  0  0  0
 11 10  1  0  0  0  0
  5 11  2  0  0  0  0
 12  4  1  0  0  0  0
 13 12  1  0  0  0  0
  1 13  1  0  0  0  0
 13 14  2  0  0  0  0
  1 15  1  0  0  0  0
 15 16  2  0  0  0  0
 15 17  1  0  0  0  0
 17 18  1  0  0  0  0
 19 18  1  0  0  0  0
 20 19  1  0  0  0  0
 21 20  1  0  0  0  0
 22 21  1  0  0  0  0
 23 22  1  0  0  0  0
 18 23  1  0  0  0  0
M  END
> <ChemID>
100738

> <CAS>
78587-05-0

> <Original_SMILES>
C[C@@H]1[C@H](SC(=O)N1C(=O)NC1CCCCC1)c1ccc(Cl)cc1

> <preferred_name>
Hexythiazox

> <dsstox_substance_id>
DTXSID7024299

> <dsstox_compound_id>
DTXCID10196605

> <qc_level>
DSSTox_High

> <Canonical_QSARr>
CC1C(SC(=O)N1C(=O)NC1CCCCC1)C1C=CC(Cl)=CC=1

> <InChI_Code_QSARr>
InChI=1S/C17H21ClN2O2S/c1-11-15(12-7-9-13(18)10-8-12)23-17(22)20(11)16(21)19-14-5-3-2-4-6-14/h7-11,14-15H,2-6H2,1H3,(H,19,21)

> <InChI Key_QSARr>
XGWIJUOSCAQSSV-UHFFFAOYSA-N

> <Salt_Solvent>


> <Salt_Solvent_ID>
0

> <MPID>
99983

> <KocRef>
Schuurmann-Main

> <LogKOC>
3.79

> <Tr_1_Tst_0>
0

$$$$
100741
  Mrv171c012251911022D          

 25 26  0  0  0  0            999 V2000
    6.7990   -1.9263    0.0000 S   0  0  0  0  0  0  0  0  0  0  0  0
    6.1316   -1.4414    0.0000 C   0  0  0  0  0  0  0  0  0  0  0  0
    6.1316   -0.6164    0.0000 C   0  0  0  0  0  0  0  0  0  0  0  0
    6.8461   -0.2039    0.0000 O   0  0  0  0  0  0  0  0  0  0  0  0
    6.8461    0.6211    0.0000 C   0  0  0  0  0  0  0  0  0  0  0  0
    5.4171   -0.2039    0.0000 O   0  0  0  0  0  0  0  0  0  0  0  0
    5.4642   -1.9263    0.0000 C   0  0  0  0  0  0  0  0  0  0  0  0
    4.6795   -1.6714    0.0000 S   0  0  0  0  0  0  0  0  0  0  0  0
    3.8949   -1.4164    0.0000 N   0  0  0  0  0  0  0  0  0  0  0  0
    3.2818   -1.9685    0.0000 C   0  0  0  0  0  0  0  0  0  0  0  0
    2.4972   -1.7135    0.0000 N   0  0  0  0  0  0  0  0  0  0  0  0
    1.8841   -2.2655    0.0000 C   0  0  0  0  0  0  0  0  0  0  0  0
    1.0995   -2.0106    0.0000 N   0  0  0  0  0  0  0  0  0  0  0  0
    0.4864   -2.5626    0.0000 C   0  0  0  0  0  0  0  0  0  0  0  0
   -0.2982   -2.3077    0.0000 O   0  0  0  0  0  0  0  0  0  0  0  0
   -0.9113   -2.8597    0.0000 C   0  0  0  0  0  0  0  0  0  0  0  0
    0.6579   -3.3696    0.0000 N   0  0  0  0  0  0  0  0  0  0  0  0
    1.4425   -3.6246    0.0000 C   0  0  0  0  0  0  0  0  0  0  0  0
    1.6141   -4.4315    0.0000 C   0  0  0  0  0  0  0  0  0  0  0  0
    2.0556   -3.0725    0.0000 N   0  0  0  0  0  0  0  0  0  0  0  0
    3.4533   -2.7754    0.0000 O   0  0  0  0  0  0  0  0  0  0  0  0
    4.9345   -0.8867    0.0000 O   0  0  0  0  0  0  0  0  0  0  0  0
    4.4246   -2.4560    0.0000 O   0  0  0  0  0  0  0  0  0  0  0  0
    5.7191   -2.7109    0.0000 C   0  0  0  0  0  0  0  0  0  0  0  0
    6.5441   -2.7109    0.0000 C   0  0  0  0  0  0  0  0  0  0  0  0
  2  1  1  0  0  0  0
  2  3  1  0  0  0  0
  3  4  1  0  0  0  0
  4  5  1  0  0  0  0
  3  6  2  0  0  0  0
  7  2  2  0  0  0  0
  7  8  1  0  0  0  0
  8  9  1  0  0  0  0
  9 10  1  0  0  0  0
 10 11  1  0  0  0  0
 11 12  1  0  0  0  0
 13 12  2  0  0  0  0
 14 13  1  0  0  0  0
 14 15  1  0  0  0  0
 15 16  1  0  0  0  0
 17 14  2  0  0  0  0
 18 17  1  0  0  0  0
 18 19  1  0  0  0  0
 20 18  2  0  0  0  0
 12 20  1  0  0  0  0
 10 21  2  0  0  0  0
  8 22  2  0  0  0  0
  8 23  2  0  0  0  0
 24  7  1  0  0  0  0
 25 24  2  0  0  0  0
  1 25  1  0  0  0  0
M  END
> <ChemID>
100741

> <CAS>
79277-27-3

> <Original_SMILES>
Cc1[n]c(NC(=O)NS(=O)(=O)c2cc[s]c2C(=O)OC)[n]c([n]1)OC

> <preferred_name>
Thifensulfuron-methyl

> <dsstox_substance_id>
DTXSID1024124

> <dsstox_compound_id>
DTXCID804124

> <qc_level>
DSSTox_Low

> <Canonical_QSARr>
CC1N=C(N=C(NC(=O)NS(=O)(=O)C2C=CSC=2C(=O)OC)N=1)OC

> <InChI_Code_QSARr>
InChI=1S/C12H13N5O6S2/c1-6-13-10(16-12(14-6)23-3)15-11(19)17-25(20,21)7-4-5-24-8(7)9(18)22-2/h4-5H,1-3H3,(H2,13,14,15,16,17,19)

> <InChI Key_QSARr>
AHTPATJNIAFOLR-UHFFFAOYSA-N

> <Salt_Solvent>


> <Salt_Solvent_ID>
0

> <MPID>
99986

> <KocRef>
USDA Pest Prop DB

> <LogKOC>
1.45

> <Tr_1_Tst_0>
1

$$$$
100742
  Mrv171c012251911022D          

 15 15  0  0  0  0            999 V2000
    2.3645   -3.3495    0.0000 Br  0  0  0  0  0  0  0  0  0  0  0  0
    2.3645   -2.5245    0.0000 C   0  0  0  0  0  0  0  0  0  0  0  0
    3.0789   -2.1120    0.0000 C   0  0  0  0  0  0  0  0  0  0  0  0
    3.0789   -1.2870    0.0000 C   0  0  0  0  0  0  0  0  0  0  0  0
    2.3645   -0.8745    0.0000 C   0  0  0  0  0  0  0  0  0  0  0  0
    2.3645   -0.0495    0.0000 C   0  0  0  0  0  0  0  0  0  0  0  0
    3.0789    0.3630    0.0000 N   0  0  0  0  0  0  0  0  0  0  0  0
    3.0789    1.1880    0.0000 C   0  0  0  0  0  0  0  0  0  0  0  0
    3.0789    2.0130    0.0000 C   0  0  0  0  0  0  0  0  0  0  0  0
    3.0789    2.8380    0.0000 C   0  0  0  0  0  0  0  0  0  0  0  0
    3.9039    1.1880    0.0000 C   0  0  0  0  0  0  0  0  0  0  0  0
    2.2539    1.1880    0.0000 C   0  0  0  0  0  0  0  0  0  0  0  0
    1.6500    0.3630    0.0000 O   0  0  0  0  0  0  0  0  0  0  0  0
    1.6500   -1.2870    0.0000 C   0  0  0  0  0  0  0  0  0  0  0  0
    1.6500   -2.1120    0.0000 C   0  0  0  0  0  0  0  0  0  0  0  0
  1  2  1  0  0  0  0
  3  2  1  0  0  0  0
  4  3  2  0  0  0  0
  5  4  1  0  0  0  0
  5  6  1  0  0  0  0
  6  7  1  0  0  0  0
  7  8  1  0  0  0  0
  8  9  1  0  0  0  0
  9 10  3  0  0  0  0
  8 11  1  0  0  0  0
  8 12  1  0  0  0  0
  6 13  2  0  0  0  0
 14  5  2  0  0  0  0
 15 14  1  0  0  0  0
  2 15  2  0  0  0  0
M  END
> <ChemID>
100742

> <CAS>
80045-50-7

> <Original_SMILES>
CC(C)(C#C)NC(=O)c1ccc(Br)cc1

> <preferred_name>
Bromopropyzamide

> <dsstox_substance_id>
DTXSID20230044

> <dsstox_compound_id>
DTXCID20152535

> <qc_level>
Public_Medium

> <Canonical_QSARr>
CC(C)(C#C)NC(=O)C1C=CC(Br)=CC=1

> <InChI_Code_QSARr>
InChI=1S/C12H12BrNO/c1-4-12(2,3)14-11(15)9-5-7-10(13)8-6-9/h1,5-8H,2-3H3,(H,14,15)

> <InChI Key_QSARr>
GNFQHXMPSRUKIS-UHFFFAOYSA-N

> <Salt_Solvent>


> <Salt_Solvent_ID>
0

> <MPID>
99987

> <KocRef>
Schuurmann-Main

> <LogKOC>
2.01

> <Tr_1_Tst_0>
1

$$$$
100743
  Mrv171c012251911022D          

 15 15  0  0  0  0            999 V2000
    2.3645   -3.3495    0.0000 F   0  0  0  0  0  0  0  0  0  0  0  0
    2.3645   -2.5245    0.0000 C   0  0  0  0  0  0  0  0  0  0  0  0
    3.0789   -2.1120    0.0000 C   0  0  0  0  0  0  0  0  0  0  0  0
    3.0789   -1.2870    0.0000 C   0  0  0  0  0  0  0  0  0  0  0  0
    2.3645   -0.8745    0.0000 C   0  0  0  0  0  0  0  0  0  0  0  0
    2.3645   -0.0495    0.0000 C   0  0  0  0  0  0  0  0  0  0  0  0
    3.0789    0.3630    0.0000 N   0  0  0  0  0  0  0  0  0  0  0  0
    3.0789    1.1880    0.0000 C   0  0  0  0  0  0  0  0  0  0  0  0
    3.0789    2.0130    0.0000 C   0  0  0  0  0  0  0  0  0  0  0  0
    3.0789    2.8380    0.0000 C   0  0  0  0  0  0  0  0  0  0  0  0
    3.9039    1.1880    0.0000 C   0  0  0  0  0  0  0  0  0  0  0  0
    2.2539    1.1880    0.0000 C   0  0  0  0  0  0  0  0  0  0  0  0
    1.6500    0.3630    0.0000 O   0  0  0  0  0  0  0  0  0  0  0  0
    1.6500   -1.2870    0.0000 C   0  0  0  0  0  0  0  0  0  0  0  0
    1.6500   -2.1120    0.0000 C   0  0  0  0  0  0  0  0  0  0  0  0
  1  2  1  0  0  0  0
  3  2  1  0  0  0  0
  4  3  2  0  0  0  0
  5  4  1  0  0  0  0
  5  6  1  0  0  0  0
  6  7  1  0  0  0  0
  7  8  1  0  0  0  0
  8  9  1  0  0  0  0
  9 10  3  0  0  0  0
  8 11  1  0  0  0  0
  8 12  1  0  0  0  0
  6 13  2  0  0  0  0
 14  5  2  0  0  0  0
 15 14  1  0  0  0  0
  2 15  2  0  0  0  0
M  END
> <ChemID>
100743

> <CAS>
80045-51-8

> <Original_SMILES>
CC(C)(C#C)NC(=O)c1ccc(F)cc1

> <preferred_name>
Fluoropropyzamide

> <dsstox_substance_id>
DTXSID80230045

> <dsstox_compound_id>
DTXCID80152536

> <qc_level>
Public_Medium

> <Canonical_QSARr>
CC(C)(C#C)NC(=O)C1C=CC(F)=CC=1

> <InChI_Code_QSARr>
InChI=1S/C12H12FNO/c1-4-12(2,3)14-11(15)9-5-7-10(13)8-6-9/h1,5-8H,2-3H3,(H,14,15)

> <InChI Key_QSARr>
PTBZQKPCPZYJDD-UHFFFAOYSA-N

> <Salt_Solvent>


> <Salt_Solvent_ID>
0

> <MPID>
99988

> <KocRef>
Schuurmann-Main

> <LogKOC>
1.68

> <Tr_1_Tst_0>
1

$$$$
100744
  Mrv171c012251911022D          

 17 17  0  0  0  0            999 V2000
    3.4991   -1.5660    0.0000 O   0  0  0  0  0  0  0  0  0  0  0  0
    2.7846   -1.1535    0.0000 C   0  0  0  0  0  0  0  0  0  0  0  0
    2.7846   -0.3285    0.0000 C   0  0  0  0  0  0  0  0  0  0  0  0
    3.4991    0.0840    0.0000 C   0  0  0  0  0  0  0  0  0  0  0  0
    3.4991    0.9090    0.0000 C   0  0  0  0  0  0  0  0  0  0  0  0
    2.7846    1.3215    0.0000 C   0  0  0  0  0  0  0  0  0  0  0  0
    2.7846    2.1465    0.0000 C   0  0  0  0  0  0  0  0  0  0  0  0
    2.0701    2.5590    0.0000 C   0  0  0  0  0  0  0  0  0  0  0  0
    3.4991    2.5590    0.0000 C   0  0  0  0  0  0  0  0  0  0  0  0
    2.0701    0.9090    0.0000 C   0  0  0  0  0  0  0  0  0  0  0  0
    2.0701    0.0840    0.0000 C   0  0  0  0  0  0  0  0  0  0  0  0
    2.0701   -1.5660    0.0000 N   0  0  0  0  0  0  0  0  0  0  0  0
    2.0701   -2.3910    0.0000 C   0  0  0  0  0  0  0  0  0  0  0  0
    2.0701   -3.2160    0.0000 C   0  0  0  0  0  0  0  0  0  0  0  0
    2.0701   -4.0410    0.0000 C   0  0  0  0  0  0  0  0  0  0  0  0
    1.2451   -2.3910    0.0000 C   0  0  0  0  0  0  0  0  0  0  0  0
    2.8951   -2.3910    0.0000 C   0  0  0  0  0  0  0  0  0  0  0  0
  1  2  2  0  0  0  0
  2  3  1  0  0  0  0
  4  3  1  0  0  0  0
  5  4  2  0  0  0  0
  6  5  1  0  0  0  0
  6  7  1  0  0  0  0
  7  8  1  0  0  0  0
  7  9  1  0  0  0  0
 10  6  2  0  0  0  0
 11 10  1  0  0  0  0
  3 11  2  0  0  0  0
  2 12  1  0  0  0  0
 12 13  1  0  0  0  0
 13 14  1  0  0  0  0
 14 15  3  0  0  0  0
 13 16  1  0  0  0  0
 13 17  1  0  0  0  0
M  END
> <ChemID>
100744

> <CAS>
80045-52-9

> <Original_SMILES>
CC(C)c1ccc(cc1)C(=O)NC(C)(C)C#C

> <preferred_name>
Isopropylpropyzamide

> <dsstox_substance_id>
DTXSID40230046

> <dsstox_compound_id>
DTXCID40152537

> <qc_level>
Public_Medium

> <Canonical_QSARr>
CC(C)C1C=CC(=CC=1)C(=O)NC(C)(C)C#C

> <InChI_Code_QSARr>
InChI=1S/C15H19NO/c1-6-15(4,5)16-14(17)13-9-7-12(8-10-13)11(2)3/h1,7-11H,2-5H3,(H,16,17)

> <InChI Key_QSARr>
IJSXOOSTBVECCN-UHFFFAOYSA-N

> <Salt_Solvent>


> <Salt_Solvent_ID>
0

> <MPID>
99989

> <KocRef>
Schuurmann-Main

> <LogKOC>
2.17

> <Tr_1_Tst_0>
0

$$$$
100745
  Mrv171c012251911022D          

 19 20  0  0  0  0            999 V2000
    2.4668   -1.8632    0.0000 C   0  0  0  0  0  0  0  0  0  0  0  0
    1.9819   -2.5306    0.0000 C   0  0  0  0  0  0  0  0  0  0  0  0
    1.1614   -2.4444    0.0000 N   0  0  0  0  0  0  0  0  0  0  0  0
    0.6765   -3.1118    0.0000 C   0  0  0  0  0  0  0  0  0  0  0  0
    1.0120   -3.8655    0.0000 C   0  0  0  0  0  0  0  0  0  0  0  0
    1.8325   -3.9517    0.0000 C   0  0  0  0  0  0  0  0  0  0  0  0
    2.3174   -3.2843    0.0000 C   0  0  0  0  0  0  0  0  0  0  0  0
    3.1379   -3.3705    0.0000 C   0  0  0  0  0  0  0  0  0  0  0  0
    3.6228   -2.7031    0.0000 O   0  0  0  0  0  0  0  0  0  0  0  0
    3.4735   -4.1242    0.0000 O   0  0  0  0  0  0  0  0  0  0  0  0
    3.2918   -1.8632    0.0000 N   0  0  0  0  0  0  0  0  0  0  0  0
    3.5467   -1.0786    0.0000 C   0  0  0  0  0  0  0  0  0  0  0  0
    4.3314   -0.8236    0.0000 O   0  0  0  0  0  0  0  0  0  0  0  0
    2.8793   -0.5936    0.0000 C   0  0  0  0  0  0  0  0  0  0  0  0
    3.4313    0.0194    0.0000 C   0  0  0  0  0  0  0  0  0  0  0  0
    2.3273    0.0194    0.0000 C   0  0  0  0  0  0  0  0  0  0  0  0
    1.5203   -0.1521    0.0000 C   0  0  0  0  0  0  0  0  0  0  0  0
    2.5822    0.8041    0.0000 C   0  0  0  0  0  0  0  0  0  0  0  0
    2.2119   -1.0786    0.0000 N   0  0  0  0  0  0  0  0  0  0  0  0
  1  2  1  0  0  0  0
  3  2  2  0  0  0  0
  4  3  1  0  0  0  0
  5  4  2  0  0  0  0
  6  5  1  0  0  0  0
  7  6  2  0  0  0  0
  2  7  1  0  0  0  0
  7  8  1  0  0  0  0
  8  9  1  0  0  0  0
  8 10  2  0  0  0  0
 11  1  1  0  0  0  0
 12 11  1  0  0  0  0
 12 13  2  0  0  0  0
 14 12  1  0  0  0  0
 14 15  1  0  0  0  0
 14 16  1  0  0  0  0
 16 17  1  0  0  0  0
 16 18  1  0  0  0  0
 19 14  1  0  0  0  0
  1 19  2  0  0  0  0
M  END
> <ChemID>
100745

> <CAS>
81334-34-1

> <Original_SMILES>
CC1(N=C(NC1=O)c1[n]cccc1C(O)=O)C(C)C

> <preferred_name>
Imazapyr

> <dsstox_substance_id>
DTXSID8034665

> <dsstox_compound_id>
DTXCID6014665

> <qc_level>
DSSTox_Low

> <Canonical_QSARr>
CC1(N=C(NC1=O)C1=NC=CC=C1C(O)=O)C(C)C

> <InChI_Code_QSARr>
InChI=1S/C13H15N3O3/c1-7(2)13(3)12(19)15-10(16-13)9-8(11(17)18)5-4-6-14-9/h4-7H,1-3H3,(H,17,18)(H,15,16,19)

> <InChI Key_QSARr>
CLQMBPJKHLGMQK-UHFFFAOYSA-N

> <Salt_Solvent>


> <Salt_Solvent_ID>
0

> <MPID>
99990

> <KocRef>
Schuurmann-Main

> <LogKOC>
2.0

> <Tr_1_Tst_0>
1

$$$$
100746
  Mrv171c012251911022D          

 23 25  0  0  0  0            999 V2000
    2.8593   -1.6330    0.0000 C   0  0  0  0  0  0  0  0  0  0  0  0
    3.5738   -2.0455    0.0000 C   0  0  0  0  0  0  0  0  0  0  0  0
    4.2883   -1.6330    0.0000 N   0  0  0  0  0  0  0  0  0  0  0  0
    5.0028   -2.0455    0.0000 C   0  0  0  0  0  0  0  0  0  0  0  0
    5.7172   -1.6330    0.0000 C   0  0  0  0  0  0  0  0  0  0  0  0
    6.4317   -2.0455    0.0000 C   0  0  0  0  0  0  0  0  0  0  0  0
    6.4317   -2.8705    0.0000 C   0  0  0  0  0  0  0  0  0  0  0  0
    5.7172   -3.2830    0.0000 C   0  0  0  0  0  0  0  0  0  0  0  0
    5.0028   -2.8705    0.0000 C   0  0  0  0  0  0  0  0  0  0  0  0
    4.2883   -3.2830    0.0000 C   0  0  0  0  0  0  0  0  0  0  0  0
    3.5738   -2.8705    0.0000 C   0  0  0  0  0  0  0  0  0  0  0  0
    2.8593   -3.2830    0.0000 C   0  0  0  0  0  0  0  0  0  0  0  0
    2.1449   -2.8705    0.0000 O   0  0  0  0  0  0  0  0  0  0  0  0
    2.8593   -4.1080    0.0000 O   0  0  0  0  0  0  0  0  0  0  0  0
    2.7731   -0.8125    0.0000 N   0  0  0  0  0  0  0  0  0  0  0  0
    1.9661   -0.6410    0.0000 C   0  0  0  0  0  0  0  0  0  0  0  0
    1.6306    0.1127    0.0000 O   0  0  0  0  0  0  0  0  0  0  0  0
    1.5536   -1.3554    0.0000 C   0  0  0  0  0  0  0  0  0  0  0  0
    0.8862   -0.8705    0.0000 C   0  0  0  0  0  0  0  0  0  0  0  0
    1.0016   -1.9685    0.0000 C   0  0  0  0  0  0  0  0  0  0  0  0
    1.2565   -2.7531    0.0000 C   0  0  0  0  0  0  0  0  0  0  0  0
    0.1946   -1.7970    0.0000 C   0  0  0  0  0  0  0  0  0  0  0  0
    2.1057   -1.9685    0.0000 N   0  0  0  0  0  0  0  0  0  0  0  0
  1  2  1  0  0  0  0
  3  2  2  0  0  0  0
  4  3  1  0  0  0  0
  4  5  1  0  0  0  0
  5  6  2  0  0  0  0
  6  7  1  0  0  0  0
  7  8  2  0  0  0  0
  8  9  1  0  0  0  0
  9  4  2  0  0  0  0
 10  9  1  0  0  0  0
 11 10  2  0  0  0  0
  2 11  1  0  0  0  0
 11 12  1  0  0  0  0
 12 13  1  0  0  0  0
 12 14  2  0  0  0  0
 15  1  1  0  0  0  0
 16 15  1  0  0  0  0
 16 17  2  0  0  0  0
 18 16  1  0  0  0  0
 18 19  1  0  0  0  0
 18 20  1  0  0  0  0
 20 21  1  0  0  0  0
 20 22  1  0  0  0  0
 23 18  1  0  0  0  0
  1 23  2  0  0  0  0
M  END
> <ChemID>
100746

> <CAS>
81335-37-7

> <Original_SMILES>
CC(C)C1(C)N=C(NC1=O)c1[n]c2ccccc2cc1C(O)=O

> <preferred_name>
Imazaquin

> <dsstox_substance_id>
DTXSID3024152

> <dsstox_compound_id>
DTXCID904152

> <qc_level>
DSSTox_Low

> <Canonical_QSARr>
CC1(N=C(NC1=O)C1=NC2C=CC=CC=2C=C1C(O)=O)C(C)C

> <InChI_Code_QSARr>
InChI=1S/C17H17N3O3/c1-9(2)17(3)16(23)19-14(20-17)13-11(15(21)22)8-10-6-4-5-7-12(10)18-13/h4-9H,1-3H3,(H,21,22)(H,19,20,23)

> <InChI Key_QSARr>
CABMTIJINOIHOD-UHFFFAOYSA-N

> <Salt_Solvent>


> <Salt_Solvent_ID>
0

> <MPID>
99991

> <KocRef>
USDA Pest Prop DB

> <LogKOC>
1.3

> <Tr_1_Tst_0>
1

$$$$
100747
  Mrv171c012251911022D          

 21 22  0  0  0  0            999 V2000
    2.7609   -3.9298    0.0000 N   0  0  0  0  0  0  0  0  0  0  0  0
    2.4254   -3.1761    0.0000 C   0  0  0  0  0  0  0  0  0  0  0  0
    2.9103   -2.5086    0.0000 C   0  0  0  0  0  0  0  0  0  0  0  0
    3.7353   -2.5086    0.0000 N   0  0  0  0  0  0  0  0  0  0  0  0
    3.9902   -1.7240    0.0000 C   0  0  0  0  0  0  0  0  0  0  0  0
    4.7748   -1.4691    0.0000 O   0  0  0  0  0  0  0  0  0  0  0  0
    3.3228   -1.2391    0.0000 C   0  0  0  0  0  0  0  0  0  0  0  0
    3.8748   -0.6260    0.0000 C   0  0  0  0  0  0  0  0  0  0  0  0
    3.6199    0.1586    0.0000 C   0  0  0  0  0  0  0  0  0  0  0  0
    4.6818   -0.7975    0.0000 C   0  0  0  0  0  0  0  0  0  0  0  0
    2.7707   -0.6260    0.0000 C   0  0  0  0  0  0  0  0  0  0  0  0
    2.6553   -1.7240    0.0000 N   0  0  0  0  0  0  0  0  0  0  0  0
    1.6049   -3.0899    0.0000 C   0  0  0  0  0  0  0  0  0  0  0  0
    1.2693   -2.3362    0.0000 C   0  0  0  0  0  0  0  0  0  0  0  0
    0.4488   -2.2499    0.0000 O   0  0  0  0  0  0  0  0  0  0  0  0
    1.7542   -1.6687    0.0000 O   0  0  0  0  0  0  0  0  0  0  0  0
    1.1200   -3.7573    0.0000 C   0  0  0  0  0  0  0  0  0  0  0  0
    1.4555   -4.5110    0.0000 C   0  0  0  0  0  0  0  0  0  0  0  0
    0.9706   -5.1784    0.0000 C   0  0  0  0  0  0  0  0  0  0  0  0
    1.3061   -5.9321    0.0000 C   0  0  0  0  0  0  0  0  0  0  0  0
    2.2760   -4.5972    0.0000 C   0  0  0  0  0  0  0  0  0  0  0  0
  2  1  2  0  0  0  0
  2  3  1  0  0  0  0
  4  3  1  0  0  0  0
  5  4  1  0  0  0  0
  5  6  2  0  0  0  0
  7  5  1  0  0  0  0
  7  8  1  0  0  0  0
  8  9  1  0  0  0  0
  8 10  1  0  0  0  0
  7 11  1  0  0  0  0
 12  7  1  0  0  0  0
  3 12  2  0  0  0  0
 13  2  1  0  0  0  0
 13 14  1  0  0  0  0
 14 15  1  0  0  0  0
 14 16  2  0  0  0  0
 17 13  2  0  0  0  0
 18 17  1  0  0  0  0
 18 19  1  0  0  0  0
 19 20  1  0  0  0  0
 21 18  2  0  0  0  0
  1 21  1  0  0  0  0
M  END
> <ChemID>
100747

> <CAS>
81335-77-5

> <Original_SMILES>
CCc1cc(C(O)=O)c([n]c1)C1NC(=O)C(C)(N=1)C(C)C

> <preferred_name>
Imazethapyr

> <dsstox_substance_id>
DTXSID3024287

> <dsstox_compound_id>
DTXCID004287

> <qc_level>
DSSTox_Low

> <Canonical_QSARr>
CCC1C=C(C(O)=O)C(=NC=1)C1NC(=O)C(C)(N=1)C(C)C

> <InChI_Code_QSARr>
InChI=1S/C15H19N3O3/c1-5-9-6-10(13(19)20)11(16-7-9)12-17-14(21)15(4,18-12)8(2)3/h6-8H,5H2,1-4H3,(H,19,20)(H,17,18,21)

> <InChI Key_QSARr>
XVOKUMIPKHGGTN-UHFFFAOYSA-N

> <Salt_Solvent>


> <Salt_Solvent_ID>
0

> <MPID>
99992

> <KocRef>
USDA Pest Prop DB

> <LogKOC>
0.85

> <Tr_1_Tst_0>
1

$$$$
100749
  Mrv171c012251911022D          

 16 17  0  0  0  0            999 V2000
    1.9133   -1.2674    0.0000 N   0  0  0  0  0  0  0  0  0  0  0  0
    1.4284   -1.9349    0.0000 C   0  0  0  0  0  0  0  0  0  0  0  0
    1.7639   -2.6885    0.0000 C   0  0  0  0  0  0  0  0  0  0  0  0
    1.2790   -3.3560    0.0000 C   0  0  0  0  0  0  0  0  0  0  0  0
    1.6145   -4.1097    0.0000 C   0  0  0  0  0  0  0  0  0  0  0  0
    2.4350   -4.1959    0.0000 C   0  0  0  0  0  0  0  0  0  0  0  0
    2.9200   -3.5284    0.0000 C   0  0  0  0  0  0  0  0  0  0  0  0
    2.5844   -2.7748    0.0000 C   0  0  0  0  0  0  0  0  0  0  0  0
    3.0693   -2.1073    0.0000 Cl  0  0  0  0  0  0  0  0  0  0  0  0
    2.7383   -1.2674    0.0000 O   0  0  0  0  0  0  0  0  0  0  0  0
    2.9932   -0.4828    0.0000 C   0  0  0  0  0  0  0  0  0  0  0  0
    2.3258    0.0021    0.0000 C   0  0  0  0  0  0  0  0  0  0  0  0
    2.8778    0.6152    0.0000 C   0  0  0  0  0  0  0  0  0  0  0  0
    1.7737    0.6152    0.0000 C   0  0  0  0  0  0  0  0  0  0  0  0
    1.6583   -0.4828    0.0000 C   0  0  0  0  0  0  0  0  0  0  0  0
    0.8737   -0.2279    0.0000 O   0  0  0  0  0  0  0  0  0  0  0  0
  1  2  1  0  0  0  0
  2  3  1  0  0  0  0
  4  3  1  0  0  0  0
  5  4  2  0  0  0  0
  6  5  1  0  0  0  0
  7  6  2  0  0  0  0
  8  7  1  0  0  0  0
  3  8  2  0  0  0  0
  8  9  1  0  0  0  0
 10  1  1  0  0  0  0
 11 10  1  0  0  0  0
 12 11  1  0  0  0  0
 12 13  1  0  0  0  0
 12 14  1  0  0  0  0
 15 12  1  0  0  0  0
  1 15  1  0  0  0  0
 15 16  2  0  0  0  0
M  END
> <ChemID>
100749

> <CAS>
81777-89-1

> <Original_SMILES>
CC1(C)CON(Cc2ccccc2Cl)C1=O

> <preferred_name>
Clomazone

> <dsstox_substance_id>
DTXSID1032355

> <dsstox_compound_id>
DTXCID9012355

> <qc_level>
DSSTox_Low

> <Canonical_QSARr>
CC1(C)CON(CC2C=CC=CC=2Cl)C1=O

> <InChI_Code_QSARr>
InChI=1S/C12H14ClNO2/c1-12(2)8-16-14(11(12)15)7-9-5-3-4-6-10(9)13/h3-6H,7-8H2,1-2H3

> <InChI Key_QSARr>
KIEDNEWSYUYDSN-UHFFFAOYSA-N

> <Salt_Solvent>


> <Salt_Solvent_ID>
0

> <MPID>
99993

> <KocRef>
USDA Pest Prop DB

> <LogKOC>
2.44

> <Tr_1_Tst_0>
0

$$$$
100750
  Mrv171c012251911022D          

 26 27  0  0  0  0            999 V2000
    3.6137   -2.9046    0.0000 C   0  0  0  0  0  0  0  0  0  0  0  0
    2.8992   -3.3171    0.0000 S   0  0  0  0  0  0  0  0  0  0  0  0
    2.4867   -2.6026    0.0000 O   0  0  0  0  0  0  0  0  0  0  0  0
    2.1847   -3.7296    0.0000 N   0  0  0  0  0  0  0  0  0  0  0  0
    1.4702   -3.3171    0.0000 C   0  0  0  0  0  0  0  0  0  0  0  0
    0.7558   -3.7296    0.0000 N   0  0  0  0  0  0  0  0  0  0  0  0
    0.0413   -3.3171    0.0000 C   0  0  0  0  0  0  0  0  0  0  0  0
    0.0413   -2.4921    0.0000 N   0  0  0  0  0  0  0  0  0  0  0  0
   -0.6732   -2.0796    0.0000 C   0  0  0  0  0  0  0  0  0  0  0  0
   -0.6732   -1.2546    0.0000 O   0  0  0  0  0  0  0  0  0  0  0  0
   -1.3876   -0.8421    0.0000 C   0  0  0  0  0  0  0  0  0  0  0  0
   -1.3876   -2.4921    0.0000 N   0  0  0  0  0  0  0  0  0  0  0  0
   -1.3876   -3.3171    0.0000 C   0  0  0  0  0  0  0  0  0  0  0  0
   -2.1021   -3.7296    0.0000 C   0  0  0  0  0  0  0  0  0  0  0  0
   -0.6732   -3.7296    0.0000 N   0  0  0  0  0  0  0  0  0  0  0  0
    1.4702   -2.4921    0.0000 O   0  0  0  0  0  0  0  0  0  0  0  0
    3.3117   -4.0316    0.0000 O   0  0  0  0  0  0  0  0  0  0  0  0
    4.3281   -3.3171    0.0000 C   0  0  0  0  0  0  0  0  0  0  0  0
    4.3281   -4.1421    0.0000 O   0  0  0  0  0  0  0  0  0  0  0  0
    5.0426   -4.5546    0.0000 C   0  0  0  0  0  0  0  0  0  0  0  0
    5.0426   -5.3796    0.0000 C   0  0  0  0  0  0  0  0  0  0  0  0
    5.7571   -5.7921    0.0000 Cl  0  0  0  0  0  0  0  0  0  0  0  0
    5.0426   -2.9046    0.0000 C   0  0  0  0  0  0  0  0  0  0  0  0
    5.0426   -2.0796    0.0000 C   0  0  0  0  0  0  0  0  0  0  0  0
    4.3281   -1.6671    0.0000 C   0  0  0  0  0  0  0  0  0  0  0  0
    3.6137   -2.0796    0.0000 C   0  0  0  0  0  0  0  0  0  0  0  0
  1  2  1  0  0  0  0
  2  3  2  0  0  0  0
  2  4  1  0  0  0  0
  4  5  1  0  0  0  0
  5  6  1  0  0  0  0
  6  7  1  0  0  0  0
  8  7  2  0  0  0  0
  9  8  1  0  0  0  0
  9 10  1  0  0  0  0
 10 11  1  0  0  0  0
 12  9  2  0  0  0  0
 13 12  1  0  0  0  0
 13 14  1  0  0  0  0
 15 13  2  0  0  0  0
  7 15  1  0  0  0  0
  5 16  2  0  0  0  0
  2 17  2  0  0  0  0
 18  1  2  0  0  0  0
 18 19  1  0  0  0  0
 19 20  1  0  0  0  0
 20 21  1  0  0  0  0
 21 22  1  0  0  0  0
 23 18  1  0  0  0  0
 24 23  2  0  0  0  0
 25 24  1  0  0  0  0
 26 25  2  0  0  0  0
  1 26  1  0  0  0  0
M  END
> <ChemID>
100750

> <CAS>
82097-50-5

> <Original_SMILES>
Cc1[n]c(NC(=O)NS(=O)(=O)c2ccccc2OCCCl)[n]c([n]1)OC

> <preferred_name>
Triasulfuron

> <dsstox_substance_id>
DTXSID0024345

> <dsstox_compound_id>
DTXCID204345

> <qc_level>
DSSTox_Low

> <Canonical_QSARr>
CC1N=C(N=C(NC(=O)NS(=O)(=O)C2C=CC=CC=2OCCCl)N=1)OC

> <InChI_Code_QSARr>
InChI=1S/C14H16ClN5O5S/c1-9-16-12(19-14(17-9)24-2)18-13(21)20-26(22,23)11-6-4-3-5-10(11)25-8-7-15/h3-6H,7-8H2,1-2H3,(H2,16,17,18,19,20,21)

> <InChI Key_QSARr>
XOPFESVZMSQIKC-UHFFFAOYSA-N

> <Salt_Solvent>


> <Salt_Solvent_ID>
0

> <MPID>
99994

> <KocRef>
USDA Pest Prop DB

> <LogKOC>
2.02

> <Tr_1_Tst_0>
1

$$$$
100751
  Mrv171c012251911022D          

 24 25  0  0  0  0            999 V2000
    2.2892   -2.6912    0.0000 C   0  0  0  0  0  0  0  0  0  0  0  0
    1.9537   -1.9376    0.0000 O   0  0  0  0  0  0  0  0  0  0  0  0
    3.1097   -2.7775    0.0000 N   0  0  0  0  0  0  0  0  0  0  0  0
    3.5946   -2.1100    0.0000 C   0  0  0  0  0  0  0  0  0  0  0  0
    4.4196   -2.1100    0.0000 O   0  0  0  0  0  0  0  0  0  0  0  0
    4.6746   -1.3254    0.0000 N   0  0  0  0  0  0  0  0  0  0  0  0
    4.0071   -0.8405    0.0000 C   0  0  0  0  0  0  0  0  0  0  0  0
    4.0071   -0.0155    0.0000 C   0  0  0  0  0  0  0  0  0  0  0  0
    4.8321   -0.0155    0.0000 C   0  0  0  0  0  0  0  0  0  0  0  0
    4.0071    0.8095    0.0000 C   0  0  0  0  0  0  0  0  0  0  0  0
    4.7216    1.2220    0.0000 C   0  0  0  0  0  0  0  0  0  0  0  0
    3.1821   -0.0155    0.0000 C   0  0  0  0  0  0  0  0  0  0  0  0
    2.7696    0.6990    0.0000 C   0  0  0  0  0  0  0  0  0  0  0  0
    3.3397   -1.3254    0.0000 C   0  0  0  0  0  0  0  0  0  0  0  0
    1.8043   -3.3587    0.0000 C   0  0  0  0  0  0  0  0  0  0  0  0
    0.9838   -3.2724    0.0000 C   0  0  0  0  0  0  0  0  0  0  0  0
    0.6483   -2.5188    0.0000 O   0  0  0  0  0  0  0  0  0  0  0  0
   -0.1722   -2.4325    0.0000 C   0  0  0  0  0  0  0  0  0  0  0  0
    0.4989   -3.9399    0.0000 C   0  0  0  0  0  0  0  0  0  0  0  0
    0.8345   -4.6935    0.0000 C   0  0  0  0  0  0  0  0  0  0  0  0
    1.6550   -4.7798    0.0000 C   0  0  0  0  0  0  0  0  0  0  0  0
    2.1399   -4.1123    0.0000 C   0  0  0  0  0  0  0  0  0  0  0  0
    2.9604   -4.1986    0.0000 O   0  0  0  0  0  0  0  0  0  0  0  0
    3.4453   -3.5311    0.0000 C   0  0  0  0  0  0  0  0  0  0  0  0
  1  2  2  0  0  0  0
  1  3  1  0  0  0  0
  3  4  1  0  0  0  0
  5  4  1  0  0  0  0
  6  5  1  0  0  0  0
  7  6  2  0  0  0  0
  7  8  1  0  0  0  0
  8  9  1  0  0  0  0
  8 10  1  0  0  0  0
 10 11  1  0  0  0  0
  8 12  1  0  0  0  0
 12 13  1  0  0  0  0
 14  7  1  0  0  0  0
  4 14  2  0  0  0  0
  1 15  1  0  0  0  0
 16 15  1  0  0  0  0
 16 17  1  0  0  0  0
 17 18  1  0  0  0  0
 19 16  2  0  0  0  0
 20 19  1  0  0  0  0
 21 20  2  0  0  0  0
 22 21  1  0  0  0  0
 15 22  2  0  0  0  0
 22 23  1  0  0  0  0
 23 24  1  0  0  0  0
M  END
> <ChemID>
100751

> <CAS>
82558-50-7

> <Original_SMILES>
CC(CC)(CC)c1cc(NC(=O)c2c(cccc2OC)OC)o[n]1

> <preferred_name>
Isoxaben

> <dsstox_substance_id>
DTXSID8024159

> <dsstox_compound_id>
DTXCID704159

> <qc_level>
DSSTox_Low

> <Canonical_QSARr>
COC1C=CC=C(OC)C=1C(=O)NC1=CC(=NO1)C(C)(CC)CC

> <InChI_Code_QSARr>
InChI=1S/C18H24N2O4/c1-6-18(3,7-2)14-11-15(24-20-14)19-17(21)16-12(22-4)9-8-10-13(16)23-5/h8-11H,6-7H2,1-5H3,(H,19,21)

> <InChI Key_QSARr>
PMHURSZHKKJGBM-UHFFFAOYSA-N

> <Salt_Solvent>


> <Salt_Solvent_ID>
0

> <MPID>
99995

> <KocRef>
Schuurmann-Main

> <LogKOC>
2.4

> <Tr_1_Tst_0>
1

$$$$
100752
  Mrv171c012251911022D          

 29 31  0  0  0  0            999 V2000
    3.4899   -4.4197    0.0000 C   0  0  0  0  0  0  0  0  0  0  0  0
    2.8579   -4.9500    0.0000 C   0  0  0  0  0  0  0  0  0  0  0  0
    2.2259   -4.4197    0.0000 C   0  0  0  0  0  0  0  0  0  0  0  0
    3.2704   -5.6645    0.0000 C   0  0  0  0  0  0  0  0  0  0  0  0
    2.4454   -5.6645    0.0000 C   0  0  0  0  0  0  0  0  0  0  0  0
    1.7309   -6.0770    0.0000 C   0  0  0  0  0  0  0  0  0  0  0  0
    1.0164   -5.6645    0.0000 C   0  0  0  0  0  0  0  0  0  0  0  0
    1.0164   -4.8395    0.0000 Cl  0  0  0  0  0  0  0  0  0  0  0  0
    0.3020   -6.0770    0.0000 C   0  0  0  0  0  0  0  0  0  0  0  0
   -0.4125   -6.4895    0.0000 F   0  0  0  0  0  0  0  0  0  0  0  0
    0.7145   -6.7914    0.0000 F   0  0  0  0  0  0  0  0  0  0  0  0
   -0.1105   -5.3625    0.0000 F   0  0  0  0  0  0  0  0  0  0  0  0
    3.9849   -6.0770    0.0000 C   0  0  0  0  0  0  0  0  0  0  0  0
    3.9849   -6.9020    0.0000 O   0  0  0  0  0  0  0  0  0  0  0  0
    4.6993   -5.6645    0.0000 O   0  0  0  0  0  0  0  0  0  0  0  0
    5.4138   -6.0770    0.0000 C   0  0  0  0  0  0  0  0  0  0  0  0
    6.1283   -5.6645    0.0000 C   0  0  0  0  0  0  0  0  0  0  0  0
    6.1283   -4.8395    0.0000 C   0  0  0  0  0  0  0  0  0  0  0  0
    6.8427   -4.4270    0.0000 C   0  0  0  0  0  0  0  0  0  0  0  0
    7.5572   -4.8395    0.0000 C   0  0  0  0  0  0  0  0  0  0  0  0
    7.5572   -5.6645    0.0000 C   0  0  0  0  0  0  0  0  0  0  0  0
    8.2717   -6.0770    0.0000 C   0  0  0  0  0  0  0  0  0  0  0  0
    8.9862   -5.6645    0.0000 C   0  0  0  0  0  0  0  0  0  0  0  0
    9.7006   -6.0770    0.0000 C   0  0  0  0  0  0  0  0  0  0  0  0
    9.7006   -6.9020    0.0000 C   0  0  0  0  0  0  0  0  0  0  0  0
    8.9862   -7.3145    0.0000 C   0  0  0  0  0  0  0  0  0  0  0  0
    8.2717   -6.9020    0.0000 C   0  0  0  0  0  0  0  0  0  0  0  0
    6.8427   -6.0770    0.0000 C   0  0  0  0  0  0  0  0  0  0  0  0
    6.8427   -6.9020    0.0000 C   0  0  0  0  0  0  0  0  0  0  0  0
  1  2  1  0  0  0  0
  2  3  1  0  0  0  0
  2  4  1  0  0  0  0
  4  5  1  0  0  0  0
  2  5  1  0  0  0  0
  6  5  1  4  0  0  0
  6  7  2  0  0  0  0
  7  8  1  0  0  0  0
  7  9  1  0  0  0  0
  9 10  1  0  0  0  0
  9 11  1  0  0  0  0
  9 12  1  0  0  0  0
  4 13  1  0  0  0  0
 13 14  2  0  0  0  0
 13 15  1  0  0  0  0
 15 16  1  0  0  0  0
 16 17  1  0  0  0  0
 17 18  2  0  0  0  0
 18 19  1  0  0  0  0
 19 20  2  0  0  0  0
 20 21  1  0  0  0  0
 21 22  1  0  0  0  0
 22 23  1  0  0  0  0
 23 24  2  0  0  0  0
 24 25  1  0  0  0  0
 25 26  2  0  0  0  0
 26 27  1  0  0  0  0
 22 27  2  0  0  0  0
 21 28  2  0  0  0  0
 17 28  1  0  0  0  0
 28 29  1  0  0  0  0
M  END
> <ChemID>
100752

> <CAS>
82657-04-3

> <Original_SMILES>
CC1(C)[C@@H]([C@@H]1/C=C(\Cl)/C(F)(F)F)C(=O)OCc1cccc(-c2ccccc2)c1C

> <preferred_name>
Bifenthrin

> <dsstox_substance_id>
DTXSID9020160

> <dsstox_compound_id>
DTXCID9032402

> <qc_level>
DSSTox_Low

> <Canonical_QSARr>
CC1(C)C(C1C=C(Cl)C(F)(F)F)C(=O)OCC1=CC=CC(C2C=CC=CC=2)=C1C

> <InChI_Code_QSARr>
InChI=1S/C23H22ClF3O2/c1-14-16(10-7-11-17(14)15-8-5-4-6-9-15)13-29-21(28)20-18(22(20,2)3)12-19(24)23(25,26)27/h4-12,18,20H,13H2,1-3H3

> <InChI Key_QSARr>
OMFRMAHOUUJSGP-UHFFFAOYSA-N

> <Salt_Solvent>


> <Salt_Solvent_ID>
0

> <MPID>
99996

> <KocRef>
Schuurmann-Main

> <LogKOC>
5.35

> <Tr_1_Tst_0>
1

$$$$
100753
  Mrv171c012251911022D          

 28 29  0  0  0  0            999 V2000
    2.4736   -4.5180    0.0000 C   0  0  0  0  0  0  0  0  0  0  0  0
    1.7591   -4.1055    0.0000 C   0  0  0  0  0  0  0  0  0  0  0  0
    1.7591   -3.2805    0.0000 O   0  0  0  0  0  0  0  0  0  0  0  0
    1.0447   -4.5180    0.0000 O   0  0  0  0  0  0  0  0  0  0  0  0
    0.3302   -4.1055    0.0000 C   0  0  0  0  0  0  0  0  0  0  0  0
    2.4736   -5.3430    0.0000 C   0  0  0  0  0  0  0  0  0  0  0  0
    3.1881   -5.7555    0.0000 C   0  0  0  0  0  0  0  0  0  0  0  0
    3.9025   -5.3430    0.0000 C   0  0  0  0  0  0  0  0  0  0  0  0
    3.9025   -4.5180    0.0000 C   0  0  0  0  0  0  0  0  0  0  0  0
    3.1881   -4.1055    0.0000 C   0  0  0  0  0  0  0  0  0  0  0  0
    3.1881   -3.2805    0.0000 C   0  0  0  0  0  0  0  0  0  0  0  0
    3.9025   -2.8680    0.0000 S   0  0  0  0  0  0  0  0  0  0  0  0
    4.3150   -3.5825    0.0000 O   0  0  0  0  0  0  0  0  0  0  0  0
    3.4900   -2.1535    0.0000 O   0  0  0  0  0  0  0  0  0  0  0  0
    4.6170   -2.4555    0.0000 N   0  0  0  0  0  0  0  0  0  0  0  0
    4.6170   -1.6305    0.0000 C   0  0  0  0  0  0  0  0  0  0  0  0
    3.9025   -1.2180    0.0000 O   0  0  0  0  0  0  0  0  0  0  0  0
    5.3315   -1.2180    0.0000 N   0  0  0  0  0  0  0  0  0  0  0  0
    5.3315   -0.3930    0.0000 C   0  0  0  0  0  0  0  0  0  0  0  0
    6.0460    0.0195    0.0000 N   0  0  0  0  0  0  0  0  0  0  0  0
    6.0460    0.8445    0.0000 C   0  0  0  0  0  0  0  0  0  0  0  0
    6.7604    1.2570    0.0000 O   0  0  0  0  0  0  0  0  0  0  0  0
    6.7604    2.0820    0.0000 C   0  0  0  0  0  0  0  0  0  0  0  0
    5.3315    1.2570    0.0000 C   0  0  0  0  0  0  0  0  0  0  0  0
    4.6170    0.8445    0.0000 C   0  0  0  0  0  0  0  0  0  0  0  0
    3.9025    1.2570    0.0000 O   0  0  0  0  0  0  0  0  0  0  0  0
    3.1881    0.8445    0.0000 C   0  0  0  0  0  0  0  0  0  0  0  0
    4.6170    0.0195    0.0000 N   0  0  0  0  0  0  0  0  0  0  0  0
  1  2  1  0  0  0  0
  2  3  2  0  0  0  0
  2  4  1  0  0  0  0
  4  5  1  0  0  0  0
  6  1  1  0  0  0  0
  7  6  2  0  0  0  0
  8  7  1  0  0  0  0
  9  8  2  0  0  0  0
 10  9  1  0  0  0  0
  1 10  2  0  0  0  0
 10 11  1  0  0  0  0
 11 12  1  0  0  0  0
 12 13  2  0  0  0  0
 12 14  2  0  0  0  0
 12 15  1  0  0  0  0
 15 16  1  0  0  0  0
 16 17  2  0  0  0  0
 16 18  1  0  0  0  0
 18 19  1  0  0  0  0
 20 19  2  0  0  0  0
 21 20  1  0  0  0  0
 21 22  1  0  0  0  0
 22 23  1  0  0  0  0
 24 21  2  0  0  0  0
 25 24  1  0  0  0  0
 25 26  1  0  0  0  0
 26 27  1  0  0  0  0
 28 25  2  0  0  0  0
 19 28  1  0  0  0  0
M  END
> <ChemID>
100753

> <CAS>
83055-99-6

> <Original_SMILES>
COC(=O)c1ccccc1CS(=O)(=O)NC(=O)Nc1[n]c(cc([n]1)OC)OC

> <preferred_name>
Bensulfuron-methyl

> <dsstox_substance_id>
DTXSID7024164

> <dsstox_compound_id>
DTXCID004164

> <qc_level>
DSSTox_Low

> <Canonical_QSARr>
COC1=CC(=NC(NC(=O)NS(=O)(=O)CC2C=CC=CC=2C(=O)OC)=N1)OC

> <InChI_Code_QSARr>
InChI=1S/C16H18N4O7S/c1-25-12-8-13(26-2)18-15(17-12)19-16(22)20-28(23,24)9-10-6-4-5-7-11(10)14(21)27-3/h4-8H,9H2,1-3H3,(H2,17,18,19,20,22)

> <InChI Key_QSARr>
XMQFTWRPUQYINF-UHFFFAOYSA-N

> <Salt_Solvent>


> <Salt_Solvent_ID>
0

> <MPID>
99997

> <KocRef>
USDA Pest Prop DB

> <LogKOC>
2.5

> <Tr_1_Tst_0>
0

$$$$
100754
  Mrv171c012251911022D          

 22 24  0  0  0  0            999 V2000
    3.8411   -3.8635    0.0000 N   0  0  0  0  0  0  0  0  0  0  0  0
    4.5085   -4.3484    0.0000 C   0  0  0  0  0  0  0  0  0  0  0  0
    4.2536   -5.1330    0.0000 N   0  0  0  0  0  0  0  0  0  0  0  0
    3.4286   -5.1330    0.0000 C   0  0  0  0  0  0  0  0  0  0  0  0
    3.1736   -4.3484    0.0000 N   0  0  0  0  0  0  0  0  0  0  0  0
    3.8411   -3.0385    0.0000 C   0  0  0  0  0  0  0  0  0  0  0  0
    3.1266   -2.6260    0.0000 Si  0  0  0  0  0  0  0  0  0  0  0  0
    2.7141   -3.3405    0.0000 C   0  0  0  0  0  0  0  0  0  0  0  0
    3.5391   -1.9115    0.0000 C   0  0  0  0  0  0  0  0  0  0  0  0
    4.3641   -1.9115    0.0000 C   0  0  0  0  0  0  0  0  0  0  0  0
    4.7766   -1.1971    0.0000 C   0  0  0  0  0  0  0  0  0  0  0  0
    4.3641   -0.4826    0.0000 C   0  0  0  0  0  0  0  0  0  0  0  0
    4.7766    0.2319    0.0000 F   0  0  0  0  0  0  0  0  0  0  0  0
    3.5391   -0.4826    0.0000 C   0  0  0  0  0  0  0  0  0  0  0  0
    3.1266   -1.1971    0.0000 C   0  0  0  0  0  0  0  0  0  0  0  0
    2.4121   -2.2135    0.0000 C   0  0  0  0  0  0  0  0  0  0  0  0
    2.4121   -1.3885    0.0000 C   0  0  0  0  0  0  0  0  0  0  0  0
    1.6976   -0.9760    0.0000 C   0  0  0  0  0  0  0  0  0  0  0  0
    0.9832   -1.3885    0.0000 C   0  0  0  0  0  0  0  0  0  0  0  0
    0.2687   -0.9760    0.0000 F   0  0  0  0  0  0  0  0  0  0  0  0
    0.9832   -2.2135    0.0000 C   0  0  0  0  0  0  0  0  0  0  0  0
    1.6976   -2.6260    0.0000 C   0  0  0  0  0  0  0  0  0  0  0  0
  2  1  1  0  0  0  0
  3  2  2  0  0  0  0
  4  3  1  0  0  0  0
  5  4  2  0  0  0  0
  1  5  1  0  0  0  0
  1  6  1  0  0  0  0
  6  7  1  0  0  0  0
  7  8  1  0  0  0  0
  7  9  1  0  0  0  0
 10  9  1  0  0  0  0
 11 10  2  0  0  0  0
 12 11  1  0  0  0  0
 12 13  1  0  0  0  0
 14 12  2  0  0  0  0
 15 14  1  0  0  0  0
  9 15  2  0  0  0  0
  7 16  1  0  0  0  0
 17 16  1  0  0  0  0
 18 17  2  0  0  0  0
 19 18  1  0  0  0  0
 19 20  1  0  0  0  0
 21 19  2  0  0  0  0
 22 21  1  0  0  0  0
 16 22  2  0  0  0  0
M  END
> <ChemID>
100754

> <CAS>
85509-19-9

> <Original_SMILES>
C[Si](C[n]1c[n]c[n]1)(c1ccc(F)cc1)c1ccc(F)cc1

> <preferred_name>
Flusilazole

> <dsstox_substance_id>
DTXSID3024235

> <dsstox_compound_id>
DTXCID704235

> <qc_level>
DSSTox_Low

> <Canonical_QSARr>
C[Si](CN1C=NC=N1)(C1C=CC(F)=CC=1)C1C=CC(F)=CC=1

> <InChI_Code_QSARr>
InChI=1S/C16H15F2N3Si/c1-22(12-21-11-19-10-20-21,15-6-2-13(17)3-7-15)16-8-4-14(18)5-9-16/h2-11H,12H2,1H3

> <InChI Key_QSARr>
FQKUGOMFVDPBIZ-UHFFFAOYSA-N

> <Salt_Solvent>


> <Salt_Solvent_ID>
0

> <MPID>
99998

> <KocRef>
USDA Pest Prop DB

> <LogKOC>
3.22

> <Tr_1_Tst_0>
1

$$$$
100755
  Mrv171c012251911022D          

 31 32  0  0  0  0            999 V2000
    3.6570   -4.3340    0.0000 C   0  0  0  0  0  0  0  0  0  0  0  0
    2.9425   -4.7465    0.0000 O   0  0  0  0  0  0  0  0  0  0  0  0
    2.2280   -4.3340    0.0000 C   0  0  0  0  0  0  0  0  0  0  0  0
    4.3715   -4.7465    0.0000 C   0  0  0  0  0  0  0  0  0  0  0  0
    4.3715   -5.5715    0.0000 C   0  0  0  0  0  0  0  0  0  0  0  0
    5.0859   -5.9840    0.0000 C   0  0  0  0  0  0  0  0  0  0  0  0
    5.8004   -5.5715    0.0000 C   0  0  0  0  0  0  0  0  0  0  0  0
    5.8004   -4.7465    0.0000 C   0  0  0  0  0  0  0  0  0  0  0  0
    5.0859   -4.3340    0.0000 C   0  0  0  0  0  0  0  0  0  0  0  0
    5.0859   -3.5090    0.0000 S   0  0  0  0  0  0  0  0  0  0  0  0
    5.0859   -2.6840    0.0000 N   0  0  0  0  0  0  0  0  0  0  0  0
    4.3715   -2.2715    0.0000 C   0  0  0  0  0  0  0  0  0  0  0  0
    4.3715   -1.4465    0.0000 N   0  0  0  0  0  0  0  0  0  0  0  0
    3.6570   -1.0340    0.0000 C   0  0  0  0  0  0  0  0  0  0  0  0
    3.6570   -0.2090    0.0000 N   0  0  0  0  0  0  0  0  0  0  0  0
    2.9425    0.2035    0.0000 C   0  0  0  0  0  0  0  0  0  0  0  0
    2.9425    1.0285    0.0000 O   0  0  0  0  0  0  0  0  0  0  0  0
    3.6570    1.4410    0.0000 C   0  0  0  0  0  0  0  0  0  0  0  0
    3.6570    2.2660    0.0000 F   0  0  0  0  0  0  0  0  0  0  0  0
    4.3715    1.0285    0.0000 F   0  0  0  0  0  0  0  0  0  0  0  0
    2.2280   -0.2090    0.0000 C   0  0  0  0  0  0  0  0  0  0  0  0
    2.2280   -1.0340    0.0000 C   0  0  0  0  0  0  0  0  0  0  0  0
    1.5136   -1.4465    0.0000 O   0  0  0  0  0  0  0  0  0  0  0  0
    1.5136   -2.2715    0.0000 C   0  0  0  0  0  0  0  0  0  0  0  0
    2.2280   -2.6840    0.0000 F   0  0  0  0  0  0  0  0  0  0  0  0
    0.7991   -2.6840    0.0000 F   0  0  0  0  0  0  0  0  0  0  0  0
    2.9425   -1.4465    0.0000 N   0  0  0  0  0  0  0  0  0  0  0  0
    3.6570   -2.6840    0.0000 O   0  0  0  0  0  0  0  0  0  0  0  0
    5.9109   -3.5090    0.0000 O   0  0  0  0  0  0  0  0  0  0  0  0
    4.2609   -3.5090    0.0000 O   0  0  0  0  0  0  0  0  0  0  0  0
    3.6570   -3.5090    0.0000 O   0  0  0  0  0  0  0  0  0  0  0  0
  1  2  1  0  0  0  0
  2  3  1  0  0  0  0
  1  4  1  0  0  0  0
  5  4  1  0  0  0  0
  6  5  2  0  0  0  0
  7  6  1  0  0  0  0
  8  7  2  0  0  0  0
  9  8  1  0  0  0  0
  4  9  2  0  0  0  0
  9 10  1  0  0  0  0
 10 11  1  0  0  0  0
 11 12  1  0  0  0  0
 12 13  1  0  0  0  0
 13 14  1  0  0  0  0
 15 14  1  0  0  0  0
 16 15  2  0  0  0  0
 16 17  1  0  0  0  0
 17 18  1  0  0  0  0
 18 19  1  0  0  0  0
 18 20  1  0  0  0  0
 21 16  1  0  0  0  0
 22 21  2  0  0  0  0
 22 23  1  0  0  0  0
 23 24  1  0  0  0  0
 24 25  1  0  0  0  0
 24 26  1  0  0  0  0
 27 22  1  0  0  0  0
 14 27  2  0  0  0  0
 12 28  2  0  0  0  0
 10 29  2  0  0  0  0
 10 30  2  0  0  0  0
  1 31  2  0  0  0  0
M  END
> <ChemID>
100755

> <CAS>
86209-51-0

> <Original_SMILES>
COC(=O)c1ccccc1S(=O)(=O)NC(=O)Nc1[n]c(cc([n]1)OC(F)F)OC(F)F

> <preferred_name>
Primisulfuron-methyl

> <dsstox_substance_id>
DTXSID8032463

> <dsstox_compound_id>
DTXCID6012463

> <qc_level>
DSSTox_Low

> <Canonical_QSARr>
COC(=O)C1C=CC=CC=1S(=O)(=O)NC(=O)NC1N=C(C=C(N=1)OC(F)F)OC(F)F

> <InChI_Code_QSARr>
InChI=1S/C15H12F4N4O7S/c1-28-11(24)7-4-2-3-5-8(7)31(26,27)23-15(25)22-14-20-9(29-12(16)17)6-10(21-14)30-13(18)19/h2-6,12-13H,1H3,(H2,20,21,22,23,25)

> <InChI Key_QSARr>
ZTYVMAQSHCZXLF-UHFFFAOYSA-N

> <Salt_Solvent>


> <Salt_Solvent_ID>
0

> <MPID>
99999

> <KocRef>
USDA Pest Prop DB

> <LogKOC>
1.08

> <Tr_1_Tst_0>
1

$$$$
100756
  Mrv171c012251911022D          

 20 22  0  0  0  0            999 V2000
    0.6916   -0.2257    0.0000 C   0  0  0  0  0  0  0  0  0  0  0  0
    1.4060    0.1868    0.0000 C   0  0  0  0  0  0  0  0  0  0  0  0
    1.4060    1.0118    0.0000 C   0  0  0  0  0  0  0  0  0  0  0  0
    2.1205    1.4243    0.0000 C   0  0  0  0  0  0  0  0  0  0  0  0
    0.6916    1.4243    0.0000 C   0  0  0  0  0  0  0  0  0  0  0  0
    2.1205   -0.2257    0.0000 C   0  0  0  0  0  0  0  0  0  0  0  0
    2.1205   -1.0507    0.0000 C   0  0  0  0  0  0  0  0  0  0  0  0
    2.8350   -1.4632    0.0000 O   0  0  0  0  0  0  0  0  0  0  0  0
    2.8350   -2.2882    0.0000 C   0  0  0  0  0  0  0  0  0  0  0  0
    3.5494   -2.7007    0.0000 C   0  0  0  0  0  0  0  0  0  0  0  0
    3.5494   -3.5257    0.0000 C   0  0  0  0  0  0  0  0  0  0  0  0
    2.8350   -3.9382    0.0000 C   0  0  0  0  0  0  0  0  0  0  0  0
    4.2639   -3.9382    0.0000 C   0  0  0  0  0  0  0  0  0  0  0  0
    4.9784   -3.5257    0.0000 C   0  0  0  0  0  0  0  0  0  0  0  0
    4.9784   -2.7007    0.0000 C   0  0  0  0  0  0  0  0  0  0  0  0
    4.2639   -2.2882    0.0000 C   0  0  0  0  0  0  0  0  0  0  0  0
    1.4060   -1.4632    0.0000 C   0  0  0  0  0  0  0  0  0  0  0  0
    1.4060   -2.2882    0.0000 C   0  0  0  0  0  0  0  0  0  0  0  0
    1.1998   -0.6382    0.0000 O   0  0  0  0  0  0  0  0  0  0  0  0
    0.6916   -1.0507    0.0000 C   0  0  0  0  0  0  0  0  0  0  0  0
  2  1  1  0  0  0  0
  2  3  1  0  0  0  0
  3  4  1  0  0  0  0
  3  5  1  0  0  0  0
  2  6  1  0  0  0  0
  6  7  1  0  0  0  0
  7  8  1  0  0  0  0
  8  9  1  0  0  0  0
  9 10  1  0  0  0  0
 11 10  2  0  0  0  0
 11 12  1  0  0  0  0
 13 11  1  0  0  0  0
 14 13  2  0  0  0  0
 15 14  1  0  0  0  0
 16 15  2  0  0  0  0
 10 16  1  0  0  0  0
  7 17  1  0  0  0  0
 17 18  1  0  0  0  0
 17 19  1  0  0  0  0
 19  2  1  0  0  0  0
 20 17  1  0  0  0  0
  1 20  1  0  0  0  0
M  END
> <ChemID>
100756

> <CAS>
87818-31-3

> <Original_SMILES>
C[C@@]12CC[C@@](C[C@@H]1OCc1ccccc1C)(O2)C(C)C

> <preferred_name>
Cinmethylin

> <dsstox_substance_id>
DTXSID3034456

> <dsstox_compound_id>
DTXCID60196478

> <qc_level>
DSSTox_High

> <Canonical_QSARr>
CC12CCC(CC1OCC1C=CC=CC=1C)(O2)C(C)C

> <InChI_Code_QSARr>
InChI=1S/C18H26O2/c1-13(2)18-10-9-17(4,20-18)16(11-18)19-12-15-8-6-5-7-14(15)3/h5-8,13,16H,9-12H2,1-4H3

> <InChI Key_QSARr>
QMTNOLKHSWIQBE-UHFFFAOYSA-N

> <Salt_Solvent>


> <Salt_Solvent_ID>
0

> <MPID>
100000

> <KocRef>
Schuurmann-Main

> <LogKOC>
2.6

> <Tr_1_Tst_0>
1

$$$$
100757
  Mrv171c012251911022D          

 20 21  0  0  0  0            999 V2000
    2.6920   -2.9570    0.0000 C   0  0  0  0  0  0  0  0  0  0  0  0
    2.2795   -3.6715    0.0000 C   0  0  0  0  0  0  0  0  0  0  0  0
    1.4545   -3.6715    0.0000 C   0  0  0  0  0  0  0  0  0  0  0  0
    1.0420   -4.3859    0.0000 C   0  0  0  0  0  0  0  0  0  0  0  0
    0.2170   -4.3859    0.0000 C   0  0  0  0  0  0  0  0  0  0  0  0
    3.1045   -2.2425    0.0000 C   0  0  0  0  0  0  0  0  0  0  0  0
    3.9295   -2.2425    0.0000 C   0  0  0  0  0  0  0  0  0  0  0  0
    4.3420   -1.5281    0.0000 C   0  0  0  0  0  0  0  0  0  0  0  0
    3.9295   -0.8136    0.0000 C   0  0  0  0  0  0  0  0  0  0  0  0
    4.3420   -0.0991    0.0000 Cl  0  0  0  0  0  0  0  0  0  0  0  0
    3.1045   -0.8136    0.0000 C   0  0  0  0  0  0  0  0  0  0  0  0
    2.6920   -1.5281    0.0000 C   0  0  0  0  0  0  0  0  0  0  0  0
    3.4065   -3.3695    0.0000 C   0  0  0  0  0  0  0  0  0  0  0  0
    3.4065   -4.1945    0.0000 N   0  0  0  0  0  0  0  0  0  0  0  0
    4.0739   -4.6794    0.0000 C   0  0  0  0  0  0  0  0  0  0  0  0
    3.8190   -5.4641    0.0000 N   0  0  0  0  0  0  0  0  0  0  0  0
    2.9940   -5.4641    0.0000 C   0  0  0  0  0  0  0  0  0  0  0  0
    2.7390   -4.6794    0.0000 N   0  0  0  0  0  0  0  0  0  0  0  0
    1.9775   -2.5445    0.0000 C   0  0  0  0  0  0  0  0  0  0  0  0
    1.2631   -2.1320    0.0000 N   0  0  0  0  0  0  0  0  0  0  0  0
  1  2  1  0  0  0  0
  2  3  1  0  0  0  0
  3  4  1  0  0  0  0
  4  5  1  0  0  0  0
  1  6  1  0  0  0  0
  7  6  2  0  0  0  0
  8  7  1  0  0  0  0
  9  8  2  0  0  0  0
  9 10  1  0  0  0  0
 11  9  1  0  0  0  0
 12 11  2  0  0  0  0
  6 12  1  0  0  0  0
  1 13  1  0  0  0  0
 13 14  1  0  0  0  0
 15 14  1  0  0  0  0
 16 15  2  0  0  0  0
 17 16  1  0  0  0  0
 18 17  2  0  0  0  0
 14 18  1  0  0  0  0
  1 19  1  0  0  0  0
 19 20  3  0  0  0  0
M  END
> <ChemID>
100757

> <CAS>
88671-89-0

> <Original_SMILES>
CCCCC(C[n]1c[n]c[n]1)(C#N)c1ccc(Cl)cc1

> <preferred_name>
Myclobutanil

> <dsstox_substance_id>
DTXSID8024315

> <dsstox_compound_id>
DTXCID304315

> <qc_level>
DSSTox_Low

> <Canonical_QSARr>
CCCCC(CN1C=NC=N1)(C#N)C1C=CC(Cl)=CC=1

> <InChI_Code_QSARr>
InChI=1S/C15H17ClN4/c1-2-3-8-15(9-17,10-20-12-18-11-19-20)13-4-6-14(16)7-5-13/h4-7,11-12H,2-3,8,10H2,1H3

> <InChI Key_QSARr>
HZJKXKUJVSEEFU-UHFFFAOYSA-N

> <Salt_Solvent>


> <Salt_Solvent_ID>
0

> <MPID>
100001

> <KocRef>
USDA Pest Prop DB

> <LogKOC>
2.7

> <Tr_1_Tst_0>
0

$$$$
100758
  Mrv171c012251911022D          

 27 28  0  0  0  0            999 V2000
    5.8051   -1.8398    0.0000 S   0  0  0  0  0  0  0  0  0  0  0  0
    6.2176   -1.1254    0.0000 O   0  0  0  0  0  0  0  0  0  0  0  0
    5.3926   -2.5543    0.0000 O   0  0  0  0  0  0  0  0  0  0  0  0
    6.5195   -2.2523    0.0000 C   0  0  0  0  0  0  0  0  0  0  0  0
    6.5195   -3.0773    0.0000 C   0  0  0  0  0  0  0  0  0  0  0  0
    7.2340   -3.4898    0.0000 C   0  0  0  0  0  0  0  0  0  0  0  0
    7.9485   -3.0773    0.0000 C   0  0  0  0  0  0  0  0  0  0  0  0
    7.9485   -2.2523    0.0000 C   0  0  0  0  0  0  0  0  0  0  0  0
    7.2340   -1.8398    0.0000 C   0  0  0  0  0  0  0  0  0  0  0  0
    7.2340   -1.0148    0.0000 C   0  0  0  0  0  0  0  0  0  0  0  0
    7.9485   -0.6023    0.0000 O   0  0  0  0  0  0  0  0  0  0  0  0
    7.9485    0.2227    0.0000 C   0  0  0  0  0  0  0  0  0  0  0  0
    8.6629    0.6352    0.0000 C   0  0  0  0  0  0  0  0  0  0  0  0
    6.5195   -0.6023    0.0000 O   0  0  0  0  0  0  0  0  0  0  0  0
    5.0906   -1.4273    0.0000 N   0  0  0  0  0  0  0  0  0  0  0  0
    4.3761   -1.8398    0.0000 C   0  0  0  0  0  0  0  0  0  0  0  0
    4.3761   -2.6648    0.0000 O   0  0  0  0  0  0  0  0  0  0  0  0
    3.6616   -1.4273    0.0000 N   0  0  0  0  0  0  0  0  0  0  0  0
    2.9472   -1.8398    0.0000 C   0  0  0  0  0  0  0  0  0  0  0  0
    2.2327   -1.4273    0.0000 N   0  0  0  0  0  0  0  0  0  0  0  0
    1.5182   -1.8398    0.0000 C   0  0  0  0  0  0  0  0  0  0  0  0
    0.8038   -1.4273    0.0000 O   0  0  0  0  0  0  0  0  0  0  0  0
    0.0893   -1.8398    0.0000 C   0  0  0  0  0  0  0  0  0  0  0  0
    1.5182   -2.6648    0.0000 C   0  0  0  0  0  0  0  0  0  0  0  0
    2.2327   -3.0773    0.0000 C   0  0  0  0  0  0  0  0  0  0  0  0
    2.2327   -3.9023    0.0000 Cl  0  0  0  0  0  0  0  0  0  0  0  0
    2.9472   -2.6648    0.0000 N   0  0  0  0  0  0  0  0  0  0  0  0
  1  2  2  0  0  0  0
  1  3  2  0  0  0  0
  1  4  1  0  0  0  0
  5  4  2  0  0  0  0
  6  5  1  0  0  0  0
  7  6  2  0  0  0  0
  8  7  1  0  0  0  0
  9  8  2  0  0  0  0
  4  9  1  0  0  0  0
  9 10  1  0  0  0  0
 10 11  1  0  0  0  0
 11 12  1  0  0  0  0
 12 13  1  0  0  0  0
 10 14  2  0  0  0  0
  1 15  1  0  0  0  0
 15 16  1  0  0  0  0
 16 17  2  0  0  0  0
 16 18  1  0  0  0  0
 18 19  1  0  0  0  0
 20 19  2  0  0  0  0
 21 20  1  0  0  0  0
 21 22  1  0  0  0  0
 22 23  1  0  0  0  0
 24 21  2  0  0  0  0
 25 24  1  0  0  0  0
 25 26  1  0  0  0  0
 27 25  2  0  0  0  0
 19 27  1  0  0  0  0
M  END
> <ChemID>
100758

> <CAS>
90982-32-4

> <Original_SMILES>
COc1cc(Cl)[n]c(NC(=O)NS(=O)(=O)c2ccccc2C(=O)OCC)[n]1

> <preferred_name>
Chlorimuron-ethyl

> <dsstox_substance_id>
DTXSID0023955

> <dsstox_compound_id>
DTXCID603955

> <qc_level>
DSSTox_Low

> <Canonical_QSARr>
COC1=CC(Cl)=NC(NC(=O)NS(=O)(=O)C2=CC=CC=C2C(=O)OCC)=N1

> <InChI_Code_QSARr>
InChI=1S/C15H15ClN4O6S/c1-3-26-13(21)9-6-4-5-7-10(9)27(23,24)20-15(22)19-14-17-11(16)8-12(18-14)25-2/h4-8H,3H2,1-2H3,(H2,17,18,19,20,22)

> <InChI Key_QSARr>
NSWAMPCUPHPTTC-UHFFFAOYSA-N

> <Salt_Solvent>


> <Salt_Solvent_ID>
0

> <MPID>
100002

> <KocRef>
Schuurmann-Main

> <LogKOC>
2.04

> <Tr_1_Tst_0>
1

$$$$
100760
  Mrv171c012251911022D          

 28 29  0  0  0  0            999 V2000
    3.8832   -4.7102    0.0000 C   0  0  0  0  0  0  0  0  0  0  0  0
    3.1688   -5.1227    0.0000 O   0  0  0  0  0  0  0  0  0  0  0  0
    2.4543   -4.7102    0.0000 C   0  0  0  0  0  0  0  0  0  0  0  0
    4.5977   -5.1227    0.0000 C   0  0  0  0  0  0  0  0  0  0  0  0
    4.5977   -5.9477    0.0000 C   0  0  0  0  0  0  0  0  0  0  0  0
    5.3122   -6.3602    0.0000 C   0  0  0  0  0  0  0  0  0  0  0  0
    6.0266   -5.9477    0.0000 C   0  0  0  0  0  0  0  0  0  0  0  0
    6.0266   -5.1227    0.0000 C   0  0  0  0  0  0  0  0  0  0  0  0
    5.3122   -4.7102    0.0000 C   0  0  0  0  0  0  0  0  0  0  0  0
    5.3122   -3.8852    0.0000 S   0  0  0  0  0  0  0  0  0  0  0  0
    5.3122   -3.0602    0.0000 N   0  0  0  0  0  0  0  0  0  0  0  0
    4.5977   -2.6477    0.0000 C   0  0  0  0  0  0  0  0  0  0  0  0
    4.5977   -1.8227    0.0000 N   0  0  0  0  0  0  0  0  0  0  0  0
    3.8832   -1.4102    0.0000 C   0  0  0  0  0  0  0  0  0  0  0  0
    3.8832   -0.5852    0.0000 N   0  0  0  0  0  0  0  0  0  0  0  0
    3.1688   -0.1727    0.0000 C   0  0  0  0  0  0  0  0  0  0  0  0
    3.1688    0.6523    0.0000 O   0  0  0  0  0  0  0  0  0  0  0  0
    3.8832    1.0648    0.0000 C   0  0  0  0  0  0  0  0  0  0  0  0
    3.8832    1.8898    0.0000 C   0  0  0  0  0  0  0  0  0  0  0  0
    2.4543   -0.5852    0.0000 N   0  0  0  0  0  0  0  0  0  0  0  0
    2.4543   -1.4102    0.0000 C   0  0  0  0  0  0  0  0  0  0  0  0
    1.7398   -1.8227    0.0000 N   0  0  0  0  0  0  0  0  0  0  0  0
    1.7398   -2.6477    0.0000 C   0  0  0  0  0  0  0  0  0  0  0  0
    3.1688   -1.8227    0.0000 N   0  0  0  0  0  0  0  0  0  0  0  0
    3.8832   -3.0602    0.0000 O   0  0  0  0  0  0  0  0  0  0  0  0
    6.1372   -3.8852    0.0000 O   0  0  0  0  0  0  0  0  0  0  0  0
    4.4872   -3.8852    0.0000 O   0  0  0  0  0  0  0  0  0  0  0  0
    3.8832   -3.8852    0.0000 O   0  0  0  0  0  0  0  0  0  0  0  0
  1  2  1  0  0  0  0
  2  3  1  0  0  0  0
  1  4  1  0  0  0  0
  5  4  1  0  0  0  0
  6  5  2  0  0  0  0
  7  6  1  0  0  0  0
  8  7  2  0  0  0  0
  9  8  1  0  0  0  0
  4  9  2  0  0  0  0
  9 10  1  0  0  0  0
 10 11  1  0  0  0  0
 11 12  1  0  0  0  0
 12 13  1  0  0  0  0
 13 14  1  0  0  0  0
 15 14  2  0  0  0  0
 16 15  1  0  0  0  0
 16 17  1  0  0  0  0
 17 18  1  0  0  0  0
 18 19  1  0  0  0  0
 20 16  2  0  0  0  0
 21 20  1  0  0  0  0
 21 22  1  0  0  0  0
 22 23  1  0  0  0  0
 24 21  2  0  0  0  0
 14 24  1  0  0  0  0
 12 25  2  0  0  0  0
 10 26  2  0  0  0  0
 10 27  2  0  0  0  0
  1 28  2  0  0  0  0
M  END
> <ChemID>
100760

> <CAS>
97780-06-8

> <Original_SMILES>
COC(=O)c1ccccc1S(=O)(=O)NC(=O)Nc1[n]c(NC)[n]c([n]1)OCC

> <preferred_name>
Ethametsulfuron-methyl

> <dsstox_substance_id>
DTXSID9034573

> <dsstox_compound_id>
DTXCID7014573

> <qc_level>
DSSTox_Low

> <Canonical_QSARr>
COC(=O)C1C=CC=CC=1S(=O)(=O)NC(=O)NC1N=C(NC)N=C(N=1)OCC

> <InChI_Code_QSARr>
InChI=1S/C15H18N6O6S/c1-4-27-15-19-12(16-2)17-13(20-15)18-14(23)21-28(24,25)10-8-6-5-7-9(10)11(22)26-3/h5-8H,4H2,1-3H3,(H3,16,17,18,19,20,21,23)

> <InChI Key_QSARr>
ZINJLDJMHCUBIP-UHFFFAOYSA-N

> <Salt_Solvent>


> <Salt_Solvent_ID>
0

> <MPID>
100004

> <KocRef>
USDA Pest Prop DB

> <LogKOC>
1.93

> <Tr_1_Tst_0>
1

$$$$
100761
  Mrv171c012251911022D          

 22 24  0  0  0  0            999 V2000
   -0.2199   -1.5343    0.0000 F   0  0  0  0  0  0  0  0  0  0  0  0
    0.1926   -2.2488    0.0000 C   0  0  0  0  0  0  0  0  0  0  0  0
   -0.2199   -2.9633    0.0000 C   0  0  0  0  0  0  0  0  0  0  0  0
    0.1926   -3.6777    0.0000 C   0  0  0  0  0  0  0  0  0  0  0  0
    1.0176   -3.6777    0.0000 C   0  0  0  0  0  0  0  0  0  0  0  0
    1.4301   -2.9633    0.0000 C   0  0  0  0  0  0  0  0  0  0  0  0
    2.2551   -2.9633    0.0000 F   0  0  0  0  0  0  0  0  0  0  0  0
    1.0176   -2.2488    0.0000 C   0  0  0  0  0  0  0  0  0  0  0  0
    1.4301   -1.5343    0.0000 N   0  0  0  0  0  0  0  0  0  0  0  0
    2.2551   -1.5343    0.0000 S   0  0  0  0  0  0  0  0  0  0  0  0
    3.0801   -1.5343    0.0000 C   0  0  0  0  0  0  0  0  0  0  0  0
    3.5650   -0.8669    0.0000 N   0  0  0  0  0  0  0  0  0  0  0  0
    4.3496   -1.1218    0.0000 C   0  0  0  0  0  0  0  0  0  0  0  0
    5.0641   -0.7093    0.0000 N   0  0  0  0  0  0  0  0  0  0  0  0
    5.7785   -1.1218    0.0000 C   0  0  0  0  0  0  0  0  0  0  0  0
    6.4930   -0.7093    0.0000 C   0  0  0  0  0  0  0  0  0  0  0  0
    5.7785   -1.9468    0.0000 C   0  0  0  0  0  0  0  0  0  0  0  0
    5.0641   -2.3593    0.0000 C   0  0  0  0  0  0  0  0  0  0  0  0
    4.3496   -1.9468    0.0000 N   0  0  0  0  0  0  0  0  0  0  0  0
    3.5650   -2.2018    0.0000 N   0  0  0  0  0  0  0  0  0  0  0  0
    2.2551   -2.3593    0.0000 O   0  0  0  0  0  0  0  0  0  0  0  0
    2.2551   -0.7093    0.0000 O   0  0  0  0  0  0  0  0  0  0  0  0
  1  2  1  0  0  0  0
  3  2  2  0  0  0  0
  4  3  1  0  0  0  0
  5  4  2  0  0  0  0
  6  5  1  0  0  0  0
  6  7  1  0  0  0  0
  8  6  2  0  0  0  0
  2  8  1  0  0  0  0
  8  9  1  0  0  0  0
  9 10  1  0  0  0  0
 10 11  1  0  0  0  0
 12 11  1  0  0  0  0
 13 12  2  0  0  0  0
 13 14  1  0  0  0  0
 14 15  2  0  0  0  0
 15 16  1  0  0  0  0
 15 17  1  0  0  0  0
 17 18  2  0  0  0  0
 18 19  1  0  0  0  0
 19 13  1  0  0  0  0
 20 19  1  0  0  0  0
 11 20  2  0  0  0  0
 10 21  2  0  0  0  0
 10 22  2  0  0  0  0
M  END
> <ChemID>
100761

> <CAS>
98967-40-9

> <Original_SMILES>
Cc1cc[n]2[n]c([n]c2[n]1)S(=O)(=O)Nc1c(F)cccc1F

> <preferred_name>
Flumetsulam

> <dsstox_substance_id>
DTXSID4032615

> <dsstox_compound_id>
DTXCID2012615

> <qc_level>
DSSTox_Low

> <Canonical_QSARr>
CC1C=CN2N=C(N=C2N=1)S(=O)(=O)NC1C(F)=CC=CC=1F

> <InChI_Code_QSARr>
InChI=1S/C12H9F2N5O2S/c1-7-5-6-19-11(15-7)16-12(17-19)22(20,21)18-10-8(13)3-2-4-9(10)14/h2-6,18H,1H3

> <InChI Key_QSARr>
RXCPQSJAVKGONC-UHFFFAOYSA-N

> <Salt_Solvent>


> <Salt_Solvent_ID>
0

> <MPID>
100005

> <KocRef>
USDA Pest Prop DB

> <LogKOC>
1.45

> <Tr_1_Tst_0>
1

$$$$
100763
  Mrv171c012251911022D          

 27 28  0  0  0  0            999 V2000
    4.2835   -4.0261    0.0000 C   0  0  0  0  0  0  0  0  0  0  0  0
    4.2835   -4.8511    0.0000 C   0  0  0  0  0  0  0  0  0  0  0  0
    4.9980   -5.2636    0.0000 C   0  0  0  0  0  0  0  0  0  0  0  0
    5.7124   -4.8511    0.0000 C   0  0  0  0  0  0  0  0  0  0  0  0
    5.7124   -4.0261    0.0000 C   0  0  0  0  0  0  0  0  0  0  0  0
    4.9980   -3.6136    0.0000 C   0  0  0  0  0  0  0  0  0  0  0  0
    4.9980   -2.7886    0.0000 C   0  0  0  0  0  0  0  0  0  0  0  0
    4.2835   -2.3761    0.0000 O   0  0  0  0  0  0  0  0  0  0  0  0
    5.7124   -2.3761    0.0000 O   0  0  0  0  0  0  0  0  0  0  0  0
    5.7124   -1.5511    0.0000 C   0  0  0  0  0  0  0  0  0  0  0  0
    3.5690   -3.6136    0.0000 S   0  0  0  0  0  0  0  0  0  0  0  0
    3.9815   -2.8991    0.0000 O   0  0  0  0  0  0  0  0  0  0  0  0
    3.1565   -4.3280    0.0000 O   0  0  0  0  0  0  0  0  0  0  0  0
    2.8546   -3.2011    0.0000 N   0  0  0  0  0  0  0  0  0  0  0  0
    2.8546   -2.3761    0.0000 C   0  0  0  0  0  0  0  0  0  0  0  0
    3.5690   -1.9636    0.0000 O   0  0  0  0  0  0  0  0  0  0  0  0
    2.1401   -1.9636    0.0000 N   0  0  0  0  0  0  0  0  0  0  0  0
    1.4256   -2.3761    0.0000 C   0  0  0  0  0  0  0  0  0  0  0  0
    2.1401   -1.1386    0.0000 C   0  0  0  0  0  0  0  0  0  0  0  0
    2.8546   -0.7261    0.0000 N   0  0  0  0  0  0  0  0  0  0  0  0
    2.8546    0.0989    0.0000 C   0  0  0  0  0  0  0  0  0  0  0  0
    3.5690    0.5114    0.0000 C   0  0  0  0  0  0  0  0  0  0  0  0
    2.1401    0.5114    0.0000 N   0  0  0  0  0  0  0  0  0  0  0  0
    1.4256    0.0989    0.0000 C   0  0  0  0  0  0  0  0  0  0  0  0
    0.7111    0.5114    0.0000 O   0  0  0  0  0  0  0  0  0  0  0  0
   -0.0033    0.0989    0.0000 C   0  0  0  0  0  0  0  0  0  0  0  0
    1.4256   -0.7261    0.0000 N   0  0  0  0  0  0  0  0  0  0  0  0
  2  1  2  0  0  0  0
  3  2  1  0  0  0  0
  4  3  2  0  0  0  0
  5  4  1  0  0  0  0
  6  5  2  0  0  0  0
  1  6  1  0  0  0  0
  6  7  1  0  0  0  0
  7  8  2  0  0  0  0
  7  9  1  0  0  0  0
  9 10  1  0  0  0  0
  1 11  1  0  0  0  0
 11 12  2  0  0  0  0
 11 13  2  0  0  0  0
 11 14  1  0  0  0  0
 14 15  1  0  0  0  0
 15 16  2  0  0  0  0
 15 17  1  0  0  0  0
 17 18  1  0  0  0  0
 17 19  1  0  0  0  0
 20 19  1  0  0  0  0
 21 20  2  0  0  0  0
 21 22  1  0  0  0  0
 23 21  1  0  0  0  0
 24 23  2  0  0  0  0
 24 25  1  0  0  0  0
 25 26  1  0  0  0  0
 27 24  1  0  0  0  0
 19 27  2  0  0  0  0
M  END
> <ChemID>
100763

> <CAS>
101200-48-0

> <Original_SMILES>
Cc1[n]c([n]c([n]1)OC)N(C)C(=O)NS(=O)(=O)c1ccccc1C(=O)OC

> <preferred_name>
Tribenuron-methyl

> <dsstox_substance_id>
DTXSID8024101

> <dsstox_compound_id>
DTXCID004101

> <qc_level>
DSSTox_Low

> <Canonical_QSARr>
CC1N=C(N=C(N=1)N(C)C(=O)NS(=O)(=O)C1=CC=CC=C1C(=O)OC)OC

> <InChI_Code_QSARr>
InChI=1S/C15H17N5O6S/c1-9-16-13(18-14(17-9)26-4)20(2)15(22)19-27(23,24)11-8-6-5-7-10(11)12(21)25-3/h5-8H,1-4H3,(H,19,22)

> <InChI Key_QSARr>
VLCQZHSMCYCDJL-UHFFFAOYSA-N

> <Salt_Solvent>


> <Salt_Solvent_ID>
0

> <MPID>
100006

> <KocRef>
USDA Pest Prop DB

> <LogKOC>
1.72

> <Tr_1_Tst_0>
0

$$$$
100765
  Mrv171c012251911022D          

 28 29  0  0  0  0            999 V2000
    3.7144   -4.2358    0.0000 S   0  0  0  0  0  0  0  0  0  0  0  0
    2.8894   -4.2358    0.0000 O   0  0  0  0  0  0  0  0  0  0  0  0
    4.5394   -4.2358    0.0000 O   0  0  0  0  0  0  0  0  0  0  0  0
    3.7144   -3.4108    0.0000 N   0  0  0  0  0  0  0  0  0  0  0  0
    2.9999   -2.9983    0.0000 C   0  0  0  0  0  0  0  0  0  0  0  0
    2.2854   -3.4108    0.0000 O   0  0  0  0  0  0  0  0  0  0  0  0
    2.9999   -2.1733    0.0000 N   0  0  0  0  0  0  0  0  0  0  0  0
    2.2854   -1.7608    0.0000 C   0  0  0  0  0  0  0  0  0  0  0  0
    2.2854   -0.9358    0.0000 N   0  0  0  0  0  0  0  0  0  0  0  0
    1.5709   -0.5233    0.0000 C   0  0  0  0  0  0  0  0  0  0  0  0
    1.5709    0.3017    0.0000 O   0  0  0  0  0  0  0  0  0  0  0  0
    0.8565    0.7142    0.0000 C   0  0  0  0  0  0  0  0  0  0  0  0
    0.8565   -0.9358    0.0000 C   0  0  0  0  0  0  0  0  0  0  0  0
    0.8565   -1.7608    0.0000 C   0  0  0  0  0  0  0  0  0  0  0  0
    0.1420   -2.1733    0.0000 O   0  0  0  0  0  0  0  0  0  0  0  0
    0.1420   -2.9983    0.0000 C   0  0  0  0  0  0  0  0  0  0  0  0
    1.5709   -2.1733    0.0000 N   0  0  0  0  0  0  0  0  0  0  0  0
    3.7144   -5.0608    0.0000 C   0  0  0  0  0  0  0  0  0  0  0  0
    2.9999   -5.4733    0.0000 N   0  0  0  0  0  0  0  0  0  0  0  0
    2.9999   -6.2983    0.0000 C   0  0  0  0  0  0  0  0  0  0  0  0
    3.7144   -6.7108    0.0000 C   0  0  0  0  0  0  0  0  0  0  0  0
    4.4288   -6.2983    0.0000 C   0  0  0  0  0  0  0  0  0  0  0  0
    4.4288   -5.4733    0.0000 C   0  0  0  0  0  0  0  0  0  0  0  0
    5.1433   -5.0608    0.0000 C   0  0  0  0  0  0  0  0  0  0  0  0
    5.1433   -4.2358    0.0000 O   0  0  0  0  0  0  0  0  0  0  0  0
    5.8578   -5.4733    0.0000 N   0  0  0  0  0  0  0  0  0  0  0  0
    6.5722   -5.0608    0.0000 C   0  0  0  0  0  0  0  0  0  0  0  0
    5.8578   -6.2983    0.0000 C   0  0  0  0  0  0  0  0  0  0  0  0
  1  2  2  0  0  0  0
  1  3  2  0  0  0  0
  1  4  1  0  0  0  0
  4  5  1  0  0  0  0
  5  6  2  0  0  0  0
  5  7  1  0  0  0  0
  7  8  1  0  0  0  0
  9  8  2  0  0  0  0
 10  9  1  0  0  0  0
 10 11  1  0  0  0  0
 11 12  1  0  0  0  0
 13 10  2  0  0  0  0
 14 13  1  0  0  0  0
 14 15  1  0  0  0  0
 15 16  1  0  0  0  0
 17 14  2  0  0  0  0
  8 17  1  0  0  0  0
  1 18  1  0  0  0  0
 19 18  2  0  0  0  0
 20 19  1  0  0  0  0
 21 20  2  0  0  0  0
 22 21  1  0  0  0  0
 23 22  2  0  0  0  0
 18 23  1  0  0  0  0
 23 24  1  0  0  0  0
 24 25  2  0  0  0  0
 24 26  1  0  0  0  0
 26 27  1  0  0  0  0
 26 28  1  0  0  0  0
M  END
> <ChemID>
100765

> <CAS>
111991-09-4

> <Original_SMILES>
CN(C)C(=O)c1ccc[n]c1S(=O)(=O)NC(=O)Nc1[n]c(cc([n]1)OC)OC

> <preferred_name>
Nicosulfuron

> <dsstox_substance_id>
DTXSID6034764

> <dsstox_compound_id>
DTXCID4014764

> <qc_level>
DSSTox_Low

> <Canonical_QSARr>
COC1=CC(=NC(NC(=O)NS(=O)(=O)C2=NC=CC=C2C(=O)N(C)C)=N1)OC

> <InChI_Code_QSARr>
InChI=1S/C15H18N6O6S/c1-21(2)13(22)9-6-5-7-16-12(9)28(24,25)20-15(23)19-14-17-10(26-3)8-11(18-14)27-4/h5-8H,1-4H3,(H2,17,18,19,20,23)

> <InChI Key_QSARr>
RTCOGUMHFFWOJV-UHFFFAOYSA-N

> <Salt_Solvent>


> <Salt_Solvent_ID>
0

> <MPID>
100008

> <KocRef>
USDA Pest Prop DB

> <LogKOC>
1.48

> <Tr_1_Tst_0>
1

$$$$
100766
  Mrv171c012251911022D          

 29 31  0  0  0  0            999 V2000
    3.6155   -2.6136    0.0000 C   0  0  0  0  0  0  0  0  0  0  0  0
    3.4440   -3.4206    0.0000 N   0  0  0  0  0  0  0  0  0  0  0  0
    2.6593   -3.6755    0.0000 S   0  0  0  0  0  0  0  0  0  0  0  0
    1.8747   -3.9305    0.0000 C   0  0  0  0  0  0  0  0  0  0  0  0
    1.2073   -3.4456    0.0000 C   0  0  0  0  0  0  0  0  0  0  0  0
    1.2073   -2.6206    0.0000 C   0  0  0  0  0  0  0  0  0  0  0  0
    1.8747   -2.1356    0.0000 N   0  0  0  0  0  0  0  0  0  0  0  0
    1.6198   -1.3510    0.0000 N   0  0  0  0  0  0  0  0  0  0  0  0
    0.7948   -1.3510    0.0000 N   0  0  0  0  0  0  0  0  0  0  0  0
    0.3099   -0.6836    0.0000 C   0  0  0  0  0  0  0  0  0  0  0  0
    0.5398   -2.1356    0.0000 N   0  0  0  0  0  0  0  0  0  0  0  0
    0.5398   -3.9305    0.0000 C   0  0  0  0  0  0  0  0  0  0  0  0
    0.7948   -4.7151    0.0000 N   0  0  0  0  0  0  0  0  0  0  0  0
    1.6198   -4.7151    0.0000 N   0  0  0  0  0  0  0  0  0  0  0  0
    2.1047   -5.3825    0.0000 C   0  0  0  0  0  0  0  0  0  0  0  0
    2.9143   -4.4602    0.0000 O   0  0  0  0  0  0  0  0  0  0  0  0
    2.4044   -2.8909    0.0000 O   0  0  0  0  0  0  0  0  0  0  0  0
    4.4001   -2.3587    0.0000 N   0  0  0  0  0  0  0  0  0  0  0  0
    4.5716   -1.5517    0.0000 C   0  0  0  0  0  0  0  0  0  0  0  0
    5.3563   -1.2968    0.0000 N   0  0  0  0  0  0  0  0  0  0  0  0
    5.5278   -0.4898    0.0000 C   0  0  0  0  0  0  0  0  0  0  0  0
    6.3124   -0.2349    0.0000 O   0  0  0  0  0  0  0  0  0  0  0  0
    6.4839    0.5721    0.0000 C   0  0  0  0  0  0  0  0  0  0  0  0
    4.9147    0.0622    0.0000 C   0  0  0  0  0  0  0  0  0  0  0  0
    4.1301   -0.1927    0.0000 C   0  0  0  0  0  0  0  0  0  0  0  0
    3.5170    0.3593    0.0000 O   0  0  0  0  0  0  0  0  0  0  0  0
    2.7323    0.1044    0.0000 C   0  0  0  0  0  0  0  0  0  0  0  0
    3.9585   -0.9997    0.0000 N   0  0  0  0  0  0  0  0  0  0  0  0
    3.0024   -2.0616    0.0000 O   0  0  0  0  0  0  0  0  0  0  0  0
  1  2  1  0  0  0  0
  2  3  1  0  0  0  0
  3  4  1  0  0  0  0
  5  4  2  0  0  0  0
  5  6  1  0  0  0  0
  7  6  1  0  0  0  0
  8  7  2  0  0  0  0
  9  8  1  0  0  0  0
  9 10  1  0  0  0  0
 11  9  1  0  0  0  0
  6 11  2  0  0  0  0
 12  5  1  0  0  0  0
 13 12  2  0  0  0  0
 14 13  1  0  0  0  0
  4 14  1  0  0  0  0
 14 15  1  0  0  0  0
  3 16  2  0  0  0  0
  3 17  2  0  0  0  0
  1 18  1  0  0  0  0
 18 19  1  0  0  0  0
 20 19  1  0  0  0  0
 21 20  2  0  0  0  0
 21 22  1  0  0  0  0
 22 23  1  0  0  0  0
 24 21  1  0  0  0  0
 25 24  2  0  0  0  0
 25 26  1  0  0  0  0
 26 27  1  0  0  0  0
 28 25  1  0  0  0  0
 19 28  2  0  0  0  0
  1 29  2  0  0  0  0
M  END
> <ChemID>
100766

> <CAS>
120162-55-2

> <Original_SMILES>
C[n]1[n][n]c([n]1)-c1c[n][n](C)c1S(=O)(=O)NC(=O)Nc1[n]c(cc([n]1)OC)OC

> <preferred_name>
Azimsulfuron

> <dsstox_substance_id>
DTXSID8041614

> <dsstox_compound_id>
DTXCID6021614

> <qc_level>
DSSTox_Low

> <Canonical_QSARr>
CN1N=NC(=N1)C1C=NN(C)C=1S(=O)(=O)NC(=O)NC1N=C(C=C(N=1)OC)OC

> <InChI_Code_QSARr>
InChI=1S/C13H16N10O5S/c1-22-11(7(6-14-22)10-18-21-23(2)19-10)29(25,26)20-13(24)17-12-15-8(27-3)5-9(16-12)28-4/h5-6H,1-4H3,(H2,15,16,17,20,24)

> <InChI Key_QSARr>
MAHPNPYYQAIOJN-UHFFFAOYSA-N

> <Salt_Solvent>


> <Salt_Solvent_ID>
0

> <MPID>
100009

> <KocRef>
USDA Pest Prop DB

> <LogKOC>
1.89

> <Tr_1_Tst_0>
1

$$$$
100767
  Mrv171c012251911022D          

 28 29  0  0  0  0            999 V2000
    5.3276   -2.9629    0.0000 C   0  0  0  0  0  0  0  0  0  0  0  0
    6.0420   -2.5504    0.0000 C   0  0  0  0  0  0  0  0  0  0  0  0
    6.0420   -1.7254    0.0000 S   0  0  0  0  0  0  0  0  0  0  0  0
    5.2170   -1.7254    0.0000 O   0  0  0  0  0  0  0  0  0  0  0  0
    6.8670   -1.7254    0.0000 O   0  0  0  0  0  0  0  0  0  0  0  0
    6.0420   -0.9004    0.0000 C   0  0  0  0  0  0  0  0  0  0  0  0
    5.3276   -0.4879    0.0000 C   0  0  0  0  0  0  0  0  0  0  0  0
    6.7565   -2.9629    0.0000 C   0  0  0  0  0  0  0  0  0  0  0  0
    6.7565   -3.7879    0.0000 C   0  0  0  0  0  0  0  0  0  0  0  0
    6.0420   -4.2004    0.0000 C   0  0  0  0  0  0  0  0  0  0  0  0
    5.3276   -3.7879    0.0000 N   0  0  0  0  0  0  0  0  0  0  0  0
    4.6131   -2.5504    0.0000 S   0  0  0  0  0  0  0  0  0  0  0  0
    4.7846   -1.7434    0.0000 O   0  0  0  0  0  0  0  0  0  0  0  0
    4.2006   -3.2649    0.0000 O   0  0  0  0  0  0  0  0  0  0  0  0
    3.8986   -2.1379    0.0000 N   0  0  0  0  0  0  0  0  0  0  0  0
    3.1841   -2.5504    0.0000 C   0  0  0  0  0  0  0  0  0  0  0  0
    3.1841   -3.3754    0.0000 O   0  0  0  0  0  0  0  0  0  0  0  0
    2.4697   -2.1379    0.0000 N   0  0  0  0  0  0  0  0  0  0  0  0
    1.7552   -2.5504    0.0000 C   0  0  0  0  0  0  0  0  0  0  0  0
    1.0407   -2.1379    0.0000 N   0  0  0  0  0  0  0  0  0  0  0  0
    0.3263   -2.5504    0.0000 C   0  0  0  0  0  0  0  0  0  0  0  0
   -0.3882   -2.1379    0.0000 O   0  0  0  0  0  0  0  0  0  0  0  0
   -1.1027   -2.5504    0.0000 C   0  0  0  0  0  0  0  0  0  0  0  0
    0.3263   -3.3754    0.0000 C   0  0  0  0  0  0  0  0  0  0  0  0
    1.0407   -3.7879    0.0000 C   0  0  0  0  0  0  0  0  0  0  0  0
    1.0407   -4.6129    0.0000 O   0  0  0  0  0  0  0  0  0  0  0  0
    0.3263   -5.0254    0.0000 C   0  0  0  0  0  0  0  0  0  0  0  0
    1.7552   -3.3754    0.0000 N   0  0  0  0  0  0  0  0  0  0  0  0
  2  1  1  0  0  0  0
  2  3  1  0  0  0  0
  3  4  2  0  0  0  0
  3  5  2  0  0  0  0
  3  6  1  0  0  0  0
  6  7  1  0  0  0  0
  8  2  2  0  0  0  0
  9  8  1  0  0  0  0
 10  9  2  0  0  0  0
 11 10  1  0  0  0  0
  1 11  2  0  0  0  0
  1 12  1  0  0  0  0
 12 13  2  0  0  0  0
 12 14  2  0  0  0  0
 12 15  1  0  0  0  0
 15 16  1  0  0  0  0
 16 17  2  0  0  0  0
 16 18  1  0  0  0  0
 18 19  1  0  0  0  0
 20 19  2  0  0  0  0
 21 20  1  0  0  0  0
 21 22  1  0  0  0  0
 22 23  1  0  0  0  0
 24 21  2  0  0  0  0
 25 24  1  0  0  0  0
 25 26  1  0  0  0  0
 26 27  1  0  0  0  0
 28 25  2  0  0  0  0
 19 28  1  0  0  0  0
M  END
> <ChemID>
100767

> <CAS>
122931-48-0

> <Original_SMILES>
CCS(=O)(=O)c1ccc[n]c1S(=O)(=O)NC(=O)Nc1[n]c(cc([n]1)OC)OC

> <preferred_name>
Rimsulfuron

> <dsstox_substance_id>
DTXSID1032642

> <dsstox_compound_id>
DTXCID9012642

> <qc_level>
DSSTox_Low

> <Canonical_QSARr>
CCS(=O)(=O)C1=CC=CN=C1S(=O)(=O)NC(=O)NC1=NC(=CC(=N1)OC)OC

> <InChI_Code_QSARr>
InChI=1S/C14H17N5O7S2/c1-4-27(21,22)9-6-5-7-15-12(9)28(23,24)19-14(20)18-13-16-10(25-2)8-11(17-13)26-3/h5-8H,4H2,1-3H3,(H2,16,17,18,19,20)

> <InChI Key_QSARr>
MEFOUWRMVYJCQC-UHFFFAOYSA-N

> <Salt_Solvent>


> <Salt_Solvent_ID>
0

> <MPID>
100010

> <KocRef>
USDA Pest Prop DB

> <LogKOC>
1.71

> <Tr_1_Tst_0>
1

$$$$
100768
  Mrv171c012251911022D          

 21 22  0  0  0  0            999 V2000
    1.0377   -0.7296    0.0000 O   0  0  0  0  0  0  0  0  0  0  0  0
    0.3233   -0.3171    0.0000 C   0  0  0  0  0  0  0  0  0  0  0  0
   -0.3912   -0.7296    0.0000 C   0  0  0  0  0  0  0  0  0  0  0  0
   -1.1057   -0.3171    0.0000 C   0  0  0  0  0  0  0  0  0  0  0  0
   -1.1057    0.5079    0.0000 S   0  0  0  0  0  0  0  0  0  0  0  0
   -1.8201    0.9204    0.0000 C   0  0  0  0  0  0  0  0  0  0  0  0
   -1.8201    1.7454    0.0000 N   0  0  0  0  0  0  0  0  0  0  0  0
   -2.5346    2.1579    0.0000 C   0  0  0  0  0  0  0  0  0  0  0  0
   -2.5346    2.9829    0.0000 O   0  0  0  0  0  0  0  0  0  0  0  0
   -3.2491    3.3954    0.0000 C   0  0  0  0  0  0  0  0  0  0  0  0
   -3.2491    1.7454    0.0000 C   0  0  0  0  0  0  0  0  0  0  0  0
   -3.2491    0.9204    0.0000 C   0  0  0  0  0  0  0  0  0  0  0  0
   -3.9636    0.5079    0.0000 O   0  0  0  0  0  0  0  0  0  0  0  0
   -3.9636   -0.3171    0.0000 C   0  0  0  0  0  0  0  0  0  0  0  0
   -2.5346    0.5079    0.0000 N   0  0  0  0  0  0  0  0  0  0  0  0
   -1.8201   -0.7296    0.0000 C   0  0  0  0  0  0  0  0  0  0  0  0
   -1.8201   -1.5546    0.0000 C   0  0  0  0  0  0  0  0  0  0  0  0
   -1.1057   -1.9671    0.0000 C   0  0  0  0  0  0  0  0  0  0  0  0
   -0.3912   -1.5546    0.0000 C   0  0  0  0  0  0  0  0  0  0  0  0
    0.3233   -1.9671    0.0000 Cl  0  0  0  0  0  0  0  0  0  0  0  0
    0.3233    0.5079    0.0000 O   0  0  0  0  0  0  0  0  0  0  0  0
  1  2  1  0  0  0  0
  2  3  1  0  0  0  0
  4  3  1  0  0  0  0
  4  5  1  0  0  0  0
  5  6  1  0  0  0  0
  7  6  1  0  0  0  0
  8  7  2  0  0  0  0
  8  9  1  0  0  0  0
  9 10  1  0  0  0  0
 11  8  1  0  0  0  0
 12 11  2  0  0  0  0
 12 13  1  0  0  0  0
 13 14  1  0  0  0  0
 15 12  1  0  0  0  0
  6 15  2  0  0  0  0
 16  4  2  0  0  0  0
 17 16  1  0  0  0  0
 18 17  2  0  0  0  0
 19 18  1  0  0  0  0
  3 19  2  0  0  0  0
 19 20  1  0  0  0  0
  2 21  2  0  0  0  0
M  END
> <ChemID>
100768

> <CAS>
123343-16-8

> <Original_SMILES>
[Na+].COc1cc([n]c([n]1)Sc1cccc(Cl)c1C([O-])=O)OC

> <preferred_name>
Pyrithiobac-sodium

> <dsstox_substance_id>
DTXSID8032673

> <dsstox_compound_id>
DTXCID6012673

> <qc_level>
DSSTox_Low

> <Canonical_QSARr>
COC1=CC(=NC(=N1)SC1=CC=CC(Cl)=C1C(O)=O)OC

> <InChI_Code_QSARr>
InChI=1S/C13H11ClN2O4S/c1-19-9-6-10(20-2)16-13(15-9)21-8-5-3-4-7(14)11(8)12(17)18/h3-6H,1-2H3,(H,17,18)

> <InChI Key_QSARr>
QEGVVEOAVNHRAA-UHFFFAOYSA-N

> <Salt_Solvent>
[Na+]

> <Salt_Solvent_ID>
110

> <MPID>
100011

> <KocRef>
USDA Pest Prop DB

> <LogKOC>
1.15

> <Tr_1_Tst_0>
0

$$$$
100769
  Mrv171c012251911022D          

 33 34  0  0  0  0            999 V2000
    3.3152   -6.7498    0.0000 C   0  0  0  0  0  0  0  0  0  0  0  0
    3.3152   -7.5748    0.0000 O   0  0  0  0  0  0  0  0  0  0  0  0
    2.6007   -7.9873    0.0000 C   0  0  0  0  0  0  0  0  0  0  0  0
    4.0296   -6.3373    0.0000 C   0  0  0  0  0  0  0  0  0  0  0  0
    4.7441   -6.7498    0.0000 C   0  0  0  0  0  0  0  0  0  0  0  0
    5.4586   -6.3373    0.0000 C   0  0  0  0  0  0  0  0  0  0  0  0
    5.4586   -5.5123    0.0000 C   0  0  0  0  0  0  0  0  0  0  0  0
    4.7441   -5.0998    0.0000 C   0  0  0  0  0  0  0  0  0  0  0  0
    4.7441   -4.2748    0.0000 C   0  0  0  0  0  0  0  0  0  0  0  0
    4.0296   -5.5123    0.0000 C   0  0  0  0  0  0  0  0  0  0  0  0
    3.3152   -5.0998    0.0000 S   0  0  0  0  0  0  0  0  0  0  0  0
    2.6007   -4.6873    0.0000 N   0  0  0  0  0  0  0  0  0  0  0  0
    2.6007   -3.8623    0.0000 C   0  0  0  0  0  0  0  0  0  0  0  0
    1.8862   -3.4498    0.0000 N   0  0  0  0  0  0  0  0  0  0  0  0
    1.8862   -2.6248    0.0000 C   0  0  0  0  0  0  0  0  0  0  0  0
    2.6007   -2.2123    0.0000 N   0  0  0  0  0  0  0  0  0  0  0  0
    2.6007   -1.3873    0.0000 C   0  0  0  0  0  0  0  0  0  0  0  0
    3.3152   -0.9748    0.0000 N   0  0  0  0  0  0  0  0  0  0  0  0
    3.3152   -0.1498    0.0000 C   0  0  0  0  0  0  0  0  0  0  0  0
    4.0296   -1.3873    0.0000 C   0  0  0  0  0  0  0  0  0  0  0  0
    1.8862   -0.9748    0.0000 N   0  0  0  0  0  0  0  0  0  0  0  0
    1.1718   -1.3873    0.0000 C   0  0  0  0  0  0  0  0  0  0  0  0
    0.4573   -0.9748    0.0000 O   0  0  0  0  0  0  0  0  0  0  0  0
    0.4573   -0.1498    0.0000 C   0  0  0  0  0  0  0  0  0  0  0  0
   -0.2572    0.2627    0.0000 C   0  0  0  0  0  0  0  0  0  0  0  0
   -0.9716    0.6752    0.0000 F   0  0  0  0  0  0  0  0  0  0  0  0
    0.1553    0.9772    0.0000 F   0  0  0  0  0  0  0  0  0  0  0  0
   -0.6697   -0.4517    0.0000 F   0  0  0  0  0  0  0  0  0  0  0  0
    1.1718   -2.2123    0.0000 N   0  0  0  0  0  0  0  0  0  0  0  0
    3.3152   -3.4498    0.0000 O   0  0  0  0  0  0  0  0  0  0  0  0
    3.7277   -4.3853    0.0000 O   0  0  0  0  0  0  0  0  0  0  0  0
    2.9027   -5.8142    0.0000 O   0  0  0  0  0  0  0  0  0  0  0  0
    2.6007   -6.3373    0.0000 O   0  0  0  0  0  0  0  0  0  0  0  0
  1  2  1  0  0  0  0
  2  3  1  0  0  0  0
  1  4  1  0  0  0  0
  5  4  1  0  0  0  0
  6  5  2  0  0  0  0
  7  6  1  0  0  0  0
  8  7  2  0  0  0  0
  8  9  1  0  0  0  0
 10  8  1  0  0  0  0
  4 10  2  0  0  0  0
 10 11  1  0  0  0  0
 11 12  1  0  0  0  0
 12 13  1  0  0  0  0
 13 14  1  0  0  0  0
 14 15  1  0  0  0  0
 16 15  2  0  0  0  0
 17 16  1  0  0  0  0
 17 18  1  0  0  0  0
 18 19  1  0  0  0  0
 18 20  1  0  0  0  0
 21 17  2  0  0  0  0
 22 21  1  0  0  0  0
 22 23  1  0  0  0  0
 23 24  1  0  0  0  0
 24 25  1  0  0  0  0
 25 26  1  0  0  0  0
 25 27  1  0  0  0  0
 25 28  1  0  0  0  0
 29 22  2  0  0  0  0
 15 29  1  0  0  0  0
 13 30  2  0  0  0  0
 11 31  2  0  0  0  0
 11 32  2  0  0  0  0
  1 33  2  0  0  0  0
M  END
> <ChemID>
100769

> <CAS>
126535-15-7

> <Original_SMILES>
Cc1cccc(c1S(=O)(=O)NC(=O)Nc1[n]c([n]c([n]1)OCC(F)(F)F)N(C)C)C(=O)OC

> <preferred_name>
Triflusulfuron-methyl

> <dsstox_substance_id>
DTXSID2032502

> <dsstox_compound_id>
DTXCID0012502

> <qc_level>
DSSTox_Low

> <Canonical_QSARr>
CC1=CC=CC(=C1S(=O)(=O)NC(=O)NC1=NC(=NC(=N1)OCC(F)(F)F)N(C)C)C(=O)OC

> <InChI_Code_QSARr>
InChI=1S/C17H19F3N6O6S/c1-9-6-5-7-10(12(27)31-4)11(9)33(29,30)25-15(28)22-13-21-14(26(2)3)24-16(23-13)32-8-17(18,19)20/h5-7H,8H2,1-4H3,(H2,21,22,23,24,25,28)

> <InChI Key_QSARr>
IMEVJVISCHQJRM-UHFFFAOYSA-N

> <Salt_Solvent>


> <Salt_Solvent_ID>
0

> <MPID>
100012

> <KocRef>
USDA Pest Prop DB

> <LogKOC>
1.84

> <Tr_1_Tst_0>
0

$$$$
100770
  Mrv171c012251911022D          

 31 32  0  0  0  0            999 V2000
    1.6594    0.4790    0.0000 O   0  0  0  0  0  0  0  0  0  0  0  0
    2.3739    0.0665    0.0000 C   0  0  0  0  0  0  0  0  0  0  0  0
    2.3739   -0.7585    0.0000 N   0  0  0  0  0  0  0  0  0  0  0  0
    1.6594   -1.1710    0.0000 S   0  0  0  0  0  0  0  0  0  0  0  0
    2.0719   -1.8854    0.0000 O   0  0  0  0  0  0  0  0  0  0  0  0
    1.2469   -0.4565    0.0000 O   0  0  0  0  0  0  0  0  0  0  0  0
    0.9449   -1.5835    0.0000 C   0  0  0  0  0  0  0  0  0  0  0  0
    0.2305   -1.1710    0.0000 C   0  0  0  0  0  0  0  0  0  0  0  0
    0.2305   -0.3460    0.0000 C   0  0  0  0  0  0  0  0  0  0  0  0
    0.9449    0.0665    0.0000 O   0  0  0  0  0  0  0  0  0  0  0  0
   -0.4840    0.0665    0.0000 O   0  0  0  0  0  0  0  0  0  0  0  0
   -0.4840    0.8915    0.0000 C   0  0  0  0  0  0  0  0  0  0  0  0
   -0.4840   -1.5835    0.0000 C   0  0  0  0  0  0  0  0  0  0  0  0
   -0.4840   -2.4085    0.0000 C   0  0  0  0  0  0  0  0  0  0  0  0
    0.2305   -2.8210    0.0000 C   0  0  0  0  0  0  0  0  0  0  0  0
    0.2305   -3.6460    0.0000 C   0  0  0  0  0  0  0  0  0  0  0  0
    0.2305   -4.4710    0.0000 F   0  0  0  0  0  0  0  0  0  0  0  0
    1.0555   -3.6460    0.0000 F   0  0  0  0  0  0  0  0  0  0  0  0
   -0.5945   -3.6460    0.0000 F   0  0  0  0  0  0  0  0  0  0  0  0
    0.9449   -2.4085    0.0000 N   0  0  0  0  0  0  0  0  0  0  0  0
    3.0884    0.4790    0.0000 N   0  0  0  0  0  0  0  0  0  0  0  0
    3.0884    1.3040    0.0000 C   0  0  0  0  0  0  0  0  0  0  0  0
    3.8028    1.7165    0.0000 N   0  0  0  0  0  0  0  0  0  0  0  0
    3.8028    2.5415    0.0000 C   0  0  0  0  0  0  0  0  0  0  0  0
    4.5173    2.9540    0.0000 O   0  0  0  0  0  0  0  0  0  0  0  0
    4.5173    3.7790    0.0000 C   0  0  0  0  0  0  0  0  0  0  0  0
    3.0884    2.9540    0.0000 C   0  0  0  0  0  0  0  0  0  0  0  0
    2.3739    2.5415    0.0000 C   0  0  0  0  0  0  0  0  0  0  0  0
    1.6594    2.9540    0.0000 O   0  0  0  0  0  0  0  0  0  0  0  0
    0.9449    2.5415    0.0000 C   0  0  0  0  0  0  0  0  0  0  0  0
    2.3739    1.7165    0.0000 N   0  0  0  0  0  0  0  0  0  0  0  0
  1  2  1  0  0  0  0
  2  3  1  0  0  0  0
  3  4  1  0  0  0  0
  4  5  2  0  0  0  0
  4  6  2  0  0  0  0
  4  7  1  0  0  0  0
  8  7  1  0  0  0  0
  8  9  1  0  0  0  0
  9 10  2  0  0  0  0
  9 11  1  0  0  0  0
 11 12  1  0  0  0  0
 13  8  2  0  0  0  0
 14 13  1  0  0  0  0
 15 14  2  0  0  0  0
 15 16  1  0  0  0  0
 16 17  1  0  0  0  0
 16 18  1  0  0  0  0
 16 19  1  0  0  0  0
 20 15  1  0  0  0  0
  7 20  2  0  0  0  0
  2 21  2  0  0  0  0
 21 22  1  0  0  0  0
 23 22  1  0  0  0  0
 24 23  2  0  0  0  0
 24 25  1  0  0  0  0
 25 26  1  0  0  0  0
 27 24  1  0  0  0  0
 28 27  2  0  0  0  0
 28 29  1  0  0  0  0
 29 30  1  0  0  0  0
 31 28  1  0  0  0  0
 22 31  2  0  0  0  0
M  END
> <ChemID>
100770

> <CAS>
144740-54-5

> <Original_SMILES>
[Na+].COC(=O)c1ccc([n]c1S(=O)(=O)N/C(/[O-])=N/c1[n]c(cc([n]1)OC)OC)C(F)(F)F

> <preferred_name>
Flupyrsulfuron-methyl-sodium

> <dsstox_substance_id>
DTXSID9058311

> <dsstox_compound_id>
DTXCID4032033

> <qc_level>
DSSTox_High

> <Canonical_QSARr>
COC1=CC(=NC(=N1)/N=C(\O)/NS(=O)(=O)C1=NC(=CC=C1C(=O)OC)C(F)(F)F)OC

> <InChI_Code_QSARr>
InChI=1S/C15H14F3N5O7S/c1-28-9-6-10(29-2)21-13(20-9)22-14(25)23-31(26,27)11-7(12(24)30-3)4-5-8(19-11)15(16,17)18/h4-6H,1-3H3,(H2,20,21,22,23,25)

> <InChI Key_QSARr>
DTVOKYWXACGVGO-UHFFFAOYSA-N

> <Salt_Solvent>
[Na+]

> <Salt_Solvent_ID>
110

> <MPID>
100013

> <KocRef>
USDA Pest Prop DB

> <LogKOC>
1.46

> <Tr_1_Tst_0>
1

$$$$
100771
  Mrv171c012251911022D          

 13 14  0  0  0  0            999 V2000
    0.2890   -1.6806    0.0000 N   0  0  0  0  0  0  0  0  0  0  0  0
    1.0736   -1.9356    0.0000 C   0  0  0  0  0  0  0  0  0  0  0  0
    1.7880   -1.5231    0.0000 C   0  0  0  0  0  0  0  0  0  0  0  0
    1.7880   -0.6981    0.0000 C   0  0  0  0  0  0  0  0  0  0  0  0
    2.5025   -0.2856    0.0000 C   0  0  0  0  0  0  0  0  0  0  0  0
    2.5025    0.5394    0.0000 C   0  0  0  0  0  0  0  0  0  0  0  0
    3.2170    0.9519    0.0000 C   0  0  0  0  0  0  0  0  0  0  0  0
    2.5025   -1.9356    0.0000 C   0  0  0  0  0  0  0  0  0  0  0  0
    2.5025   -2.7606    0.0000 C   0  0  0  0  0  0  0  0  0  0  0  0
    1.7880   -3.1731    0.0000 C   0  0  0  0  0  0  0  0  0  0  0  0
    1.0736   -2.7606    0.0000 C   0  0  0  0  0  0  0  0  0  0  0  0
    0.2890   -3.0155    0.0000 N   0  0  0  0  0  0  0  0  0  0  0  0
   -0.1960   -2.3481    0.0000 N   0  0  0  0  0  0  0  0  0  0  0  0
  2  1  1  0  0  0  0
  2  3  1  0  0  0  0
  3  4  1  0  0  0  0
  4  5  1  0  0  0  0
  5  6  1  0  0  0  0
  6  7  1  0  0  0  0
  3  8  2  0  0  0  0
  8  9  1  0  0  0  0
  9 10  2  0  0  0  0
 10 11  1  0  0  0  0
 11  2  2  0  0  0  0
 12 11  1  0  0  0  0
 13 12  1  0  0  0  0
  1 13  2  0  0  0  0
M  END
> <ChemID>
100771

> <CAS>
NOCAS_876006

> <Original_SMILES>
CCCCc1cccc2[nH][n][n]c21

> <preferred_name>


> <dsstox_substance_id>
DTXSID60876006

> <dsstox_compound_id>
DTXCID701014120

> <qc_level>


> <Canonical_QSARr>
CCCCC1=CC=CC2NN=NC=21

> <InChI_Code_QSARr>
InChI=1S/C10H13N3/c1-2-3-5-8-6-4-7-9-10(8)12-13-11-9/h4,6-7H,2-3,5H2,1H3,(H,11,12,13)

> <InChI Key_QSARr>
IPIVUPVIFPKFTG-UHFFFAOYSA-N

> <Salt_Solvent>


> <Salt_Solvent_ID>
0

> <MPID>
100014

> <KocRef>
Schuurmann-Main

> <LogKOC>
2.16

> <Tr_1_Tst_0>
1

$$$$
100773
  Mrv171c012251911022D          

 10 11  0  0  0  0            999 V2000
    0.1938   -0.4796    0.0000 N   0  0  0  0  0  0  0  0  0  0  0  0
    0.9785   -0.7346    0.0000 C   0  0  0  0  0  0  0  0  0  0  0  0
    1.6929   -0.3221    0.0000 C   0  0  0  0  0  0  0  0  0  0  0  0
    1.6929    0.5029    0.0000 F   0  0  0  0  0  0  0  0  0  0  0  0
    2.4074   -0.7346    0.0000 C   0  0  0  0  0  0  0  0  0  0  0  0
    2.4074   -1.5596    0.0000 C   0  0  0  0  0  0  0  0  0  0  0  0
    1.6929   -1.9721    0.0000 C   0  0  0  0  0  0  0  0  0  0  0  0
    0.9785   -1.5596    0.0000 C   0  0  0  0  0  0  0  0  0  0  0  0
    0.1938   -1.8145    0.0000 N   0  0  0  0  0  0  0  0  0  0  0  0
   -0.2911   -1.1471    0.0000 N   0  0  0  0  0  0  0  0  0  0  0  0
  2  1  1  0  0  0  0
  2  3  1  0  0  0  0
  3  4  1  0  0  0  0
  3  5  2  0  0  0  0
  5  6  1  0  0  0  0
  6  7  2  0  0  0  0
  7  8  1  0  0  0  0
  8  2  2  0  0  0  0
  9  8  1  0  0  0  0
 10  9  1  0  0  0  0
  1 10  2  0  0  0  0
M  END
> <ChemID>
100773

> <CAS>
NOCAS_878864

> <Original_SMILES>
Fc1cccc2[nH][n][n]c21

> <preferred_name>


> <dsstox_substance_id>
DTXSID20878864

> <dsstox_compound_id>
DTXCID301016893

> <qc_level>


> <Canonical_QSARr>
FC1=CC=CC2NN=NC=21

> <InChI_Code_QSARr>
InChI=1S/C6H4FN3/c7-4-2-1-3-5-6(4)9-10-8-5/h1-3H,(H,8,9,10)

> <InChI Key_QSARr>
ALDDXGSQUCGTDT-UHFFFAOYSA-N

> <Salt_Solvent>


> <Salt_Solvent_ID>
0

> <MPID>
100015

> <KocRef>
Schuurmann-Main

> <LogKOC>
1.87

> <Tr_1_Tst_0>
1

$$$$
100774
  Mrv171c012251911022D          

 10 11  0  0  0  0            999 V2000
    0.1938   -0.4796    0.0000 N   0  0  0  0  0  0  0  0  0  0  0  0
    0.9785   -0.7346    0.0000 C   0  0  0  0  0  0  0  0  0  0  0  0
    1.6929   -0.3221    0.0000 C   0  0  0  0  0  0  0  0  0  0  0  0
    1.6929    0.5029    0.0000 Cl  0  0  0  0  0  0  0  0  0  0  0  0
    2.4074   -0.7346    0.0000 C   0  0  0  0  0  0  0  0  0  0  0  0
    2.4074   -1.5596    0.0000 C   0  0  0  0  0  0  0  0  0  0  0  0
    1.6929   -1.9721    0.0000 C   0  0  0  0  0  0  0  0  0  0  0  0
    0.9785   -1.5596    0.0000 C   0  0  0  0  0  0  0  0  0  0  0  0
    0.1938   -1.8145    0.0000 N   0  0  0  0  0  0  0  0  0  0  0  0
   -0.2911   -1.1471    0.0000 N   0  0  0  0  0  0  0  0  0  0  0  0
  2  1  1  0  0  0  0
  2  3  1  0  0  0  0
  3  4  1  0  0  0  0
  3  5  2  0  0  0  0
  5  6  1  0  0  0  0
  6  7  2  0  0  0  0
  7  8  1  0  0  0  0
  8  2  2  0  0  0  0
  9  8  1  0  0  0  0
 10  9  1  0  0  0  0
  1 10  2  0  0  0  0
M  END
> <ChemID>
100774

> <CAS>
NOCAS_878862

> <Original_SMILES>
Clc1cccc2[nH][n][n]c21

> <preferred_name>


> <dsstox_substance_id>
DTXSID00878862

> <dsstox_compound_id>
DTXCID901016891

> <qc_level>


> <Canonical_QSARr>
ClC1=CC=CC2NN=NC=21

> <InChI_Code_QSARr>
InChI=1S/C6H4ClN3/c7-4-2-1-3-5-6(4)9-10-8-5/h1-3H,(H,8,9,10)

> <InChI Key_QSARr>
NGKNMHFWZMHABQ-UHFFFAOYSA-N

> <Salt_Solvent>


> <Salt_Solvent_ID>
0

> <MPID>
100016

> <KocRef>
Schuurmann-Main

> <LogKOC>
1.98

> <Tr_1_Tst_0>
0

$$$$
