100001
  Mrv171c012241911322D          

 19 20  0  0  0  0            999 V2000
    1.3190   -2.0632    0.0000 Cl  0  0  0  0  0  0  0  0  0  0  0  0
    1.7315   -2.7776    0.0000 C   0  0  0  0  0  0  0  0  0  0  0  0
    2.1440   -3.4921    0.0000 Cl  0  0  0  0  0  0  0  0  0  0  0  0
    1.0170   -3.1901    0.0000 Cl  0  0  0  0  0  0  0  0  0  0  0  0
    2.4459   -2.3651    0.0000 C   0  0  0  0  0  0  0  0  0  0  0  0
    2.4459   -1.5401    0.0000 C   0  0  0  0  0  0  0  0  0  0  0  0
    3.1604   -1.1276    0.0000 C   0  0  0  0  0  0  0  0  0  0  0  0
    3.1604   -0.3026    0.0000 C   0  0  0  0  0  0  0  0  0  0  0  0
    2.4459    0.1099    0.0000 C   0  0  0  0  0  0  0  0  0  0  0  0
    2.4459    0.9349    0.0000 Cl  0  0  0  0  0  0  0  0  0  0  0  0
    1.7315   -0.3026    0.0000 C   0  0  0  0  0  0  0  0  0  0  0  0
    1.7315   -1.1276    0.0000 C   0  0  0  0  0  0  0  0  0  0  0  0
    3.1604   -2.7776    0.0000 C   0  0  0  0  0  0  0  0  0  0  0  0
    3.1604   -3.6026    0.0000 C   0  0  0  0  0  0  0  0  0  0  0  0
    3.8749   -4.0151    0.0000 C   0  0  0  0  0  0  0  0  0  0  0  0
    4.5894   -3.6026    0.0000 C   0  0  0  0  0  0  0  0  0  0  0  0
    5.3038   -4.0151    0.0000 Cl  0  0  0  0  0  0  0  0  0  0  0  0
    4.5894   -2.7776    0.0000 C   0  0  0  0  0  0  0  0  0  0  0  0
    3.8749   -2.3651    0.0000 C   0  0  0  0  0  0  0  0  0  0  0  0
  1  2  1  0  0  0  0
  2  3  1  0  0  0  0
  2  4  1  0  0  0  0
  2  5  1  0  0  0  0
  5  6  1  0  0  0  0
  7  6  1  0  0  0  0
  8  7  2  0  0  0  0
  9  8  1  0  0  0  0
  9 10  1  0  0  0  0
 11  9  2  0  0  0  0
 12 11  1  0  0  0  0
  6 12  2  0  0  0  0
  5 13  1  0  0  0  0
 14 13  1  0  0  0  0
 15 14  2  0  0  0  0
 16 15  1  0  0  0  0
 16 17  1  0  0  0  0
 18 16  2  0  0  0  0
 19 18  1  0  0  0  0
 13 19  2  0  0  0  0
M  END
> <ChemID>
100001

> <CAS>
50-29-3

> <Original_SMILES>
ClC(Cl)(Cl)C(c1ccc(Cl)cc1)c1ccc(Cl)cc1

> <preferred_name>
p,p'-DDT

> <dsstox_substance_id>
DTXSID4020375

> <dsstox_compound_id>
DTXCID20375

> <qc_level>
DSSTox_High

> <Canonical_QSARr>
ClC(Cl)(Cl)C(C1C=CC(Cl)=CC=1)C1C=CC(Cl)=CC=1

> <InChI_Code_QSARr>
InChI=1S/C14H9Cl5/c15-11-5-1-9(2-6-11)13(14(17,18)19)10-3-7-12(16)8-4-10/h1-8,13H

> <InChI Key_QSARr>
YVGGHNCTFXOJCH-UHFFFAOYSA-N

> <Salt_Solvent>


> <Salt_Solvent_ID>
0

> <MPID>
97934

> <LogBCF>
4.29

> <Tr_1_Tst_0>
1

$$$$
100002
  Mrv171c012241911322D          

 11 11  0  0  0  0            999 V2000
    2.2306   -0.9411    0.0000 C   0  0  0  0  0  0  0  0  0  0  0  0
    1.5161   -1.3536    0.0000 C   0  0  0  0  0  0  0  0  0  0  0  0
    0.8016   -0.9411    0.0000 C   0  0  0  0  0  0  0  0  0  0  0  0
    0.8016   -0.1161    0.0000 Cl  0  0  0  0  0  0  0  0  0  0  0  0
    0.0871   -1.3536    0.0000 C   0  0  0  0  0  0  0  0  0  0  0  0
    0.0871   -2.1786    0.0000 C   0  0  0  0  0  0  0  0  0  0  0  0
    0.8016   -2.5911    0.0000 C   0  0  0  0  0  0  0  0  0  0  0  0
    1.5161   -2.1786    0.0000 C   0  0  0  0  0  0  0  0  0  0  0  0
    2.2306   -2.5911    0.0000 Cl  0  0  0  0  0  0  0  0  0  0  0  0
    2.2306   -0.1161    0.0000 O   0  0  0  0  0  0  0  0  0  0  0  0
    2.9450   -1.3536    0.0000 O   0  0  0  0  0  0  0  0  0  0  0  0
  1  2  1  0  0  0  0
  3  2  1  0  0  0  0
  3  4  1  0  0  0  0
  5  3  2  0  0  0  0
  6  5  1  0  0  0  0
  7  6  2  0  0  0  0
  8  7  1  0  0  0  0
  2  8  2  0  0  0  0
  8  9  1  0  0  0  0
  1 10  1  0  0  0  0
  1 11  2  0  0  0  0
M  END
> <ChemID>
100002

> <CAS>
50-30-6

> <Original_SMILES>
OC(=O)c1c(Cl)cccc1Cl

> <preferred_name>
2,6-Dichlorobenzoic acid

> <dsstox_substance_id>
DTXSID0024979

> <dsstox_compound_id>
DTXCID904979

> <qc_level>
DSSTox_Low

> <Canonical_QSARr>
OC(=O)C1C(Cl)=CC=CC=1Cl

> <InChI_Code_QSARr>
InChI=1S/C7H4Cl2O2/c8-4-2-1-3-5(9)6(4)7(10)11/h1-3H,(H,10,11)

> <InChI Key_QSARr>
MRUDNSFOFOQZDA-UHFFFAOYSA-N

> <Salt_Solvent>


> <Salt_Solvent_ID>
0

> <MPID>
97935

> <LogBCF>
0.26

> <Tr_1_Tst_0>
1

$$$$
100003
  Mrv171c012241911322D          

 12 12  0  0  0  0            999 V2000
    2.7353   -0.6225    0.0000 C   0  0  0  0  0  0  0  0  0  0  0  0
    3.4497   -1.0350    0.0000 O   0  0  0  0  0  0  0  0  0  0  0  0
    2.0208   -1.0350    0.0000 C   0  0  0  0  0  0  0  0  0  0  0  0
    1.3063   -0.6225    0.0000 C   0  0  0  0  0  0  0  0  0  0  0  0
    1.3063    0.2025    0.0000 Cl  0  0  0  0  0  0  0  0  0  0  0  0
    0.5918   -1.0350    0.0000 C   0  0  0  0  0  0  0  0  0  0  0  0
    0.5918   -1.8600    0.0000 C   0  0  0  0  0  0  0  0  0  0  0  0
    1.3063   -2.2725    0.0000 C   0  0  0  0  0  0  0  0  0  0  0  0
    1.3063   -3.0975    0.0000 Cl  0  0  0  0  0  0  0  0  0  0  0  0
    2.0208   -1.8600    0.0000 C   0  0  0  0  0  0  0  0  0  0  0  0
    2.7353   -2.2725    0.0000 Cl  0  0  0  0  0  0  0  0  0  0  0  0
    2.7353    0.2025    0.0000 O   0  0  0  0  0  0  0  0  0  0  0  0
  1  2  1  0  0  0  0
  1  3  1  0  0  0  0
  4  3  1  0  0  0  0
  4  5  1  0  0  0  0
  6  4  2  0  0  0  0
  7  6  1  0  0  0  0
  8  7  2  0  0  0  0
  8  9  1  0  0  0  0
 10  8  1  0  0  0  0
  3 10  2  0  0  0  0
 10 11  1  0  0  0  0
  1 12  2  0  0  0  0
M  END
> <ChemID>
100003

> <CAS>
50-31-7

> <Original_SMILES>
OC(=O)c1c(Cl)c(Cl)ccc1Cl

> <preferred_name>
2,3,6-Trichlorobenzoic acid

> <dsstox_substance_id>
DTXSID6040296

> <dsstox_compound_id>
DTXCID4020296

> <qc_level>
DSSTox_Low

> <Canonical_QSARr>
OC(=O)C1=C(Cl)C(Cl)=CC=C1Cl

> <InChI_Code_QSARr>
InChI=1S/C7H3Cl3O2/c8-3-1-2-4(9)6(10)5(3)7(11)12/h1-2H,(H,11,12)

> <InChI Key_QSARr>
XZIDTOHMJBOSOX-UHFFFAOYSA-N

> <Salt_Solvent>


> <Salt_Solvent_ID>
0

> <MPID>
97936

> <LogBCF>
0.54

> <Tr_1_Tst_0>
1

$$$$
100004
  Mrv171c012241911322D          

 13 13  0  0  0  0            999 V2000
    2.6359   -2.9487    0.0000 O   0  0  0  0  0  0  0  0  0  0  0  0
    2.6359   -2.1237    0.0000 C   0  0  0  0  0  0  0  0  0  0  0  0
    3.3504   -1.7112    0.0000 C   0  0  0  0  0  0  0  0  0  0  0  0
    3.3504   -0.8862    0.0000 C   0  0  0  0  0  0  0  0  0  0  0  0
    2.6359   -0.4737    0.0000 C   0  0  0  0  0  0  0  0  0  0  0  0
    2.6359    0.3513    0.0000 N   0  3  0  0  0  0  0  0  0  0  0  0
    1.9215    0.7638    0.0000 O   0  5  0  0  0  0  0  0  0  0  0  0
    3.3504    0.7638    0.0000 O   0  0  0  0  0  0  0  0  0  0  0  0
    1.9215   -0.8862    0.0000 C   0  0  0  0  0  0  0  0  0  0  0  0
    1.9215   -1.7112    0.0000 C   0  0  0  0  0  0  0  0  0  0  0  0
    1.2070   -2.1237    0.0000 N   0  3  0  0  0  0  0  0  0  0  0  0
    1.2070   -2.9487    0.0000 O   0  5  0  0  0  0  0  0  0  0  0  0
    0.4925   -1.7112    0.0000 O   0  0  0  0  0  0  0  0  0  0  0  0
  1  2  1  0  0  0  0
  3  2  1  0  0  0  0
  4  3  2  0  0  0  0
  5  4  1  0  0  0  0
  5  6  1  0  0  0  0
  6  7  1  0  0  0  0
  6  8  2  0  0  0  0
  9  5  2  0  0  0  0
 10  9  1  0  0  0  0
  2 10  2  0  0  0  0
 10 11  1  0  0  0  0
 11 12  1  0  0  0  0
 11 13  2  0  0  0  0
M  CHG  4   6   1   7  -1  11   1  12  -1
M  END
> <ChemID>
100004

> <CAS>
51-28-5

> <Original_SMILES>
[O-][N+](=O)c1cc(ccc1O)[N+]([O-])=O

> <preferred_name>
2,4-Dinitrophenol

> <dsstox_substance_id>
DTXSID0020523

> <dsstox_compound_id>
DTXCID80523

> <qc_level>
DSSTox_Low

> <Canonical_QSARr>
[O-][N+](=O)C1C=C(C=CC=1O)[N+]([O-])=O

> <InChI_Code_QSARr>
InChI=1S/C6H4N2O5/c9-6-2-1-4(7(10)11)3-5(6)8(12)13/h1-3,9H

> <InChI Key_QSARr>
UFBJCMHMOXMLKC-UHFFFAOYSA-N

> <Salt_Solvent>


> <Salt_Solvent_ID>
0

> <MPID>
97937

> <LogBCF>
0.57

> <Tr_1_Tst_0>
1

$$$$
100005
  Mrv171c012241911322D          

 11 11  0  0  0  0            999 V2000
    3.0507   -2.0835    0.0000 C   0  0  0  0  0  0  0  0  0  0  0  0
    2.3362   -1.6710    0.0000 C   0  0  0  0  0  0  0  0  0  0  0  0
    2.3362   -0.8460    0.0000 C   0  0  0  0  0  0  0  0  0  0  0  0
    1.6217   -0.4335    0.0000 C   0  0  0  0  0  0  0  0  0  0  0  0
    1.6217    0.3915    0.0000 Cl  0  0  0  0  0  0  0  0  0  0  0  0
    0.9073   -0.8460    0.0000 C   0  0  0  0  0  0  0  0  0  0  0  0
    0.1928   -0.4335    0.0000 Cl  0  0  0  0  0  0  0  0  0  0  0  0
    0.9073   -1.6710    0.0000 C   0  0  0  0  0  0  0  0  0  0  0  0
    1.6217   -2.0835    0.0000 C   0  0  0  0  0  0  0  0  0  0  0  0
    3.7651   -1.6710    0.0000 O   0  0  0  0  0  0  0  0  0  0  0  0
    3.0507   -2.9085    0.0000 O   0  0  0  0  0  0  0  0  0  0  0  0
  1  2  1  0  0  0  0
  3  2  1  0  0  0  0
  4  3  2  0  0  0  0
  4  5  1  0  0  0  0
  6  4  1  0  0  0  0
  6  7  1  0  0  0  0
  8  6  2  0  0  0  0
  9  8  1  0  0  0  0
  2  9  2  0  0  0  0
  1 10  1  0  0  0  0
  1 11  2  0  0  0  0
M  END
> <ChemID>
100005

> <CAS>
51-44-5

> <Original_SMILES>
OC(=O)c1cc(Cl)c(Cl)cc1

> <preferred_name>
3,4-Dichlorobenzoic acid

> <dsstox_substance_id>
DTXSID9024980

> <dsstox_compound_id>
DTXCID604980

> <qc_level>
DSSTox_Low

> <Canonical_QSARr>
OC(=O)C1C=C(Cl)C(Cl)=CC=1

> <InChI_Code_QSARr>
InChI=1S/C7H4Cl2O2/c8-5-2-1-4(7(10)11)3-6(5)9/h1-3H,(H,10,11)

> <InChI Key_QSARr>
VPHHJAOJUJHJKD-UHFFFAOYSA-N

> <Salt_Solvent>


> <Salt_Solvent_ID>
0

> <MPID>
97938

> <LogBCF>
0.36

> <Tr_1_Tst_0>
0

$$$$
100006
  Mrv171c012241911322D          

 16 16  0  0  0  0            999 V2000
    3.9709   -2.3001    0.0000 S   0  0  0  0  0  0  0  0  0  0  0  0
    4.3834   -3.0146    0.0000 P   0  0  0  0  0  0  0  0  0  0  0  0
    3.6690   -3.4271    0.0000 O   0  0  0  0  0  0  0  0  0  0  0  0
    3.6690   -4.2521    0.0000 C   0  0  0  0  0  0  0  0  0  0  0  0
    4.7959   -3.7291    0.0000 O   0  0  0  0  0  0  0  0  0  0  0  0
    4.3834   -4.4436    0.0000 C   0  0  0  0  0  0  0  0  0  0  0  0
    5.0979   -2.6021    0.0000 O   0  0  0  0  0  0  0  0  0  0  0  0
    5.0979   -1.7771    0.0000 C   0  0  0  0  0  0  0  0  0  0  0  0
    5.8124   -1.3646    0.0000 C   0  0  0  0  0  0  0  0  0  0  0  0
    5.8124   -0.5396    0.0000 C   0  0  0  0  0  0  0  0  0  0  0  0
    5.0979   -0.1271    0.0000 C   0  0  0  0  0  0  0  0  0  0  0  0
    5.0979    0.6979    0.0000 S   0  0  0  0  0  0  0  0  0  0  0  0
    4.3834    1.1104    0.0000 C   0  0  0  0  0  0  0  0  0  0  0  0
    4.3834   -0.5396    0.0000 C   0  0  0  0  0  0  0  0  0  0  0  0
    3.6690   -0.1271    0.0000 C   0  0  0  0  0  0  0  0  0  0  0  0
    4.3834   -1.3646    0.0000 C   0  0  0  0  0  0  0  0  0  0  0  0
  1  2  2  0  0  0  0
  2  3  1  0  0  0  0
  3  4  1  0  0  0  0
  2  5  1  0  0  0  0
  5  6  1  0  0  0  0
  2  7  1  0  0  0  0
  7  8  1  0  0  0  0
  9  8  1  0  0  0  0
 10  9  2  0  0  0  0
 11 10  1  0  0  0  0
 11 12  1  0  0  0  0
 12 13  1  0  0  0  0
 14 11  2  0  0  0  0
 14 15  1  0  0  0  0
 16 14  1  0  0  0  0
  8 16  2  0  0  0  0
M  END
> <ChemID>
100006

> <CAS>
55-38-9

> <Original_SMILES>
Cc1cc(ccc1SC)OP(=S)(OC)OC

> <preferred_name>
Fenthion

> <dsstox_substance_id>
DTXSID8020620

> <dsstox_compound_id>
DTXCID00620

> <qc_level>
DSSTox_High

> <Canonical_QSARr>
CC1C=C(C=CC=1SC)OP(=S)(OC)OC

> <InChI_Code_QSARr>
InChI=1S/C10H15O3PS2/c1-8-7-9(5-6-10(8)16-4)13-14(15,11-2)12-3/h5-7H,1-4H3

> <InChI Key_QSARr>
PNVJTZOFSHSLTO-UHFFFAOYSA-N

> <Salt_Solvent>


> <Salt_Solvent_ID>
0

> <MPID>
97939

> <LogBCF>
2.52

> <Tr_1_Tst_0>
1

$$$$
100007
  Mrv171c012241911322D          

  5  4  0  0  0  0            999 V2000
    0.8250   -1.6500    0.0000 Cl  0  0  0  0  0  0  0  0  0  0  0  0
    0.8250   -0.8250    0.0000 C   0  0  0  0  0  0  0  0  0  0  0  0
    0.8250    0.0000    0.0000 Cl  0  0  0  0  0  0  0  0  0  0  0  0
    1.6500   -0.8250    0.0000 Cl  0  0  0  0  0  0  0  0  0  0  0  0
    0.0000   -0.8250    0.0000 Cl  0  0  0  0  0  0  0  0  0  0  0  0
  1  2  1  0  0  0  0
  2  3  1  0  0  0  0
  2  4  1  0  0  0  0
  2  5  1  0  0  0  0
M  END
> <ChemID>
100007

> <CAS>
56-23-5

> <Original_SMILES>
ClC(Cl)(Cl)Cl

> <preferred_name>
Carbon tetrachloride

> <dsstox_substance_id>
DTXSID8020250

> <dsstox_compound_id>
DTXCID20250

> <qc_level>
DSSTox_Low

> <Canonical_QSARr>
ClC(Cl)(Cl)Cl

> <InChI_Code_QSARr>
InChI=1S/CCl4/c2-1(3,4)5

> <InChI Key_QSARr>
VZGDMQKNWNREIO-UHFFFAOYSA-N

> <Salt_Solvent>


> <Salt_Solvent_ID>
0

> <MPID>
97940

> <LogBCF>
0.87

> <Tr_1_Tst_0>
1

$$$$
100008
  Mrv171c012241911322D          

 18 18  0  0  0  0            999 V2000
    2.3786   -1.4485    0.0000 S   0  0  0  0  0  0  0  0  0  0  0  0
    2.7911   -2.1629    0.0000 P   0  0  0  0  0  0  0  0  0  0  0  0
    2.0766   -2.5754    0.0000 O   0  0  0  0  0  0  0  0  0  0  0  0
    2.0766   -3.4004    0.0000 C   0  0  0  0  0  0  0  0  0  0  0  0
    1.3621   -3.8129    0.0000 C   0  0  0  0  0  0  0  0  0  0  0  0
    3.2036   -2.8774    0.0000 O   0  0  0  0  0  0  0  0  0  0  0  0
    2.7911   -3.5919    0.0000 C   0  0  0  0  0  0  0  0  0  0  0  0
    3.2036   -4.3063    0.0000 C   0  0  0  0  0  0  0  0  0  0  0  0
    3.5055   -1.7504    0.0000 O   0  0  0  0  0  0  0  0  0  0  0  0
    3.5055   -0.9254    0.0000 C   0  0  0  0  0  0  0  0  0  0  0  0
    4.2200   -0.5129    0.0000 C   0  0  0  0  0  0  0  0  0  0  0  0
    4.2200    0.3121    0.0000 C   0  0  0  0  0  0  0  0  0  0  0  0
    3.5055    0.7246    0.0000 C   0  0  0  0  0  0  0  0  0  0  0  0
    3.5055    1.5496    0.0000 N   0  3  0  0  0  0  0  0  0  0  0  0
    2.7911    1.9621    0.0000 O   0  5  0  0  0  0  0  0  0  0  0  0
    4.2200    1.9621    0.0000 O   0  0  0  0  0  0  0  0  0  0  0  0
    2.7911    0.3121    0.0000 C   0  0  0  0  0  0  0  0  0  0  0  0
    2.7911   -0.5129    0.0000 C   0  0  0  0  0  0  0  0  0  0  0  0
  1  2  2  0  0  0  0
  2  3  1  0  0  0  0
  3  4  1  0  0  0  0
  4  5  1  0  0  0  0
  2  6  1  0  0  0  0
  6  7  1  0  0  0  0
  7  8  1  0  0  0  0
  2  9  1  0  0  0  0
  9 10  1  0  0  0  0
 11 10  1  0  0  0  0
 12 11  2  0  0  0  0
 13 12  1  0  0  0  0
 13 14  1  0  0  0  0
 14 15  1  0  0  0  0
 14 16  2  0  0  0  0
 17 13  2  0  0  0  0
 18 17  1  0  0  0  0
 10 18  2  0  0  0  0
M  CHG  2  14   1  15  -1
M  END
> <ChemID>
100008

> <CAS>
56-38-2

> <Original_SMILES>
CCOP(=S)(Oc1ccc(cc1)[N+]([O-])=O)OCC

> <preferred_name>
Parathion

> <dsstox_substance_id>
DTXSID7021100

> <dsstox_compound_id>
DTXCID301100

> <qc_level>
DSSTox_Low

> <Canonical_QSARr>
CCOP(=S)(OC1C=CC(=CC=1)[N+]([O-])=O)OCC

> <InChI_Code_QSARr>
InChI=1S/C10H14NO5PS/c1-3-14-17(18,15-4-2)16-10-7-5-9(6-8-10)11(12)13/h5-8H,3-4H2,1-2H3

> <InChI Key_QSARr>
LCCNCVORNKJIRZ-UHFFFAOYSA-N

> <Salt_Solvent>


> <Salt_Solvent_ID>
0

> <MPID>
97941

> <LogBCF>
1.99

> <Tr_1_Tst_0>
1

$$$$
100009
  Mrv171c012241911322D          

 18 21  0  0  0  0            999 V2000
    2.8633   -1.7226    0.0000 C   0  0  0  0  0  0  0  0  0  0  0  0
    3.6734   -1.5667    0.0000 C   0  0  0  0  0  0  0  0  0  0  0  0
    3.9434   -0.7872    0.0000 C   0  0  0  0  0  0  0  0  0  0  0  0
    4.7536   -0.6313    0.0000 C   0  0  0  0  0  0  0  0  0  0  0  0
    5.2937   -1.2549    0.0000 C   0  0  0  0  0  0  0  0  0  0  0  0
    5.0236   -2.0345    0.0000 C   0  0  0  0  0  0  0  0  0  0  0  0
    4.2135   -2.1904    0.0000 C   0  0  0  0  0  0  0  0  0  0  0  0
    3.9434   -2.9699    0.0000 C   0  0  0  0  0  0  0  0  0  0  0  0
    3.1333   -3.1258    0.0000 C   0  0  0  0  0  0  0  0  0  0  0  0
    2.5932   -2.5022    0.0000 C   0  0  0  0  0  0  0  0  0  0  0  0
    1.7831   -2.6581    0.0000 C   0  0  0  0  0  0  0  0  0  0  0  0
    1.2430   -2.0345    0.0000 C   0  0  0  0  0  0  0  0  0  0  0  0
    0.4329   -2.1904    0.0000 C   0  0  0  0  0  0  0  0  0  0  0  0
   -0.1072   -1.5667    0.0000 C   0  0  0  0  0  0  0  0  0  0  0  0
    0.1628   -0.7872    0.0000 C   0  0  0  0  0  0  0  0  0  0  0  0
    0.9730   -0.6313    0.0000 C   0  0  0  0  0  0  0  0  0  0  0  0
    1.5130   -1.2549    0.0000 C   0  0  0  0  0  0  0  0  0  0  0  0
    2.3232   -1.0990    0.0000 C   0  0  0  0  0  0  0  0  0  0  0  0
  2  1  1  0  0  0  0
  2  3  1  0  0  0  0
  3  4  2  0  0  0  0
  4  5  1  0  0  0  0
  5  6  2  0  0  0  0
  6  7  1  0  0  0  0
  7  2  2  0  0  0  0
  8  7  1  0  0  0  0
  9  8  2  0  0  0  0
 10  9  1  0  0  0  0
 10  1  1  0  0  0  0
 11 10  2  0  0  0  0
 12 11  1  0  0  0  0
 12 13  1  0  0  0  0
 13 14  2  0  0  0  0
 14 15  1  0  0  0  0
 15 16  2  0  0  0  0
 16 17  1  0  0  0  0
 17 12  2  0  0  0  0
 18 17  1  0  0  0  0
  1 18  2  0  0  0  0
M  END
> <ChemID>
100009

> <CAS>
56-55-3

> <Original_SMILES>
c1c2c3ccccc3ccc2cc2ccccc21

> <preferred_name>
Benz(a)anthracene

> <dsstox_substance_id>
DTXSID5023902

> <dsstox_compound_id>
DTXCID903902

> <qc_level>
DSSTox_Low

> <Canonical_QSARr>
C1=C2C3C=CC=CC=3C=CC2=CC2C=CC=CC=21

> <InChI_Code_QSARr>
InChI=1S/C18H12/c1-2-7-15-12-18-16(11-14(15)6-1)10-9-13-5-3-4-8-17(13)18/h1-12H

> <InChI Key_QSARr>
DXBHBZVCASKNBY-UHFFFAOYSA-N

> <Salt_Solvent>


> <Salt_Solvent_ID>
0

> <MPID>
97942

> <LogBCF>
2.41

> <Tr_1_Tst_0>
0

$$$$
100011
  Mrv171c012241911322D          

  8  7  0  0  0  0            999 V2000
    1.2425   -1.2375    0.0000 C   0  0  0  0  0  0  0  0  0  0  0  0
    1.2425   -2.0625    0.0000 Cl  0  0  0  0  0  0  0  0  0  0  0  0
    2.0675   -1.2375    0.0000 Cl  0  0  0  0  0  0  0  0  0  0  0  0
    0.4175   -1.2375    0.0000 Cl  0  0  0  0  0  0  0  0  0  0  0  0
    1.2425   -0.4125    0.0000 C   0  0  0  0  0  0  0  0  0  0  0  0
    1.2425    0.4125    0.0000 C   0  0  0  0  0  0  0  0  0  0  0  0
    2.0675   -0.4125    0.0000 C   0  0  0  0  0  0  0  0  0  0  0  0
    0.4175   -0.4125    0.0000 O   0  0  0  0  0  0  0  0  0  0  0  0
  1  2  1  0  0  0  0
  1  3  1  0  0  0  0
  1  4  1  0  0  0  0
  1  5  1  0  0  0  0
  5  6  1  0  0  0  0
  5  7  1  0  0  0  0
  5  8  1  0  0  0  0
M  END
> <ChemID>
100011

> <CAS>
57-15-8

> <Original_SMILES>
CC(C)(O)C(Cl)(Cl)Cl

> <preferred_name>
1,1,1-Trichloro-2-methyl-2-propanol

> <dsstox_substance_id>
DTXSID1041217

> <dsstox_compound_id>
DTXCID9021217

> <qc_level>
DSSTox_Low

> <Canonical_QSARr>
CC(C)(O)C(Cl)(Cl)Cl

> <InChI_Code_QSARr>
InChI=1S/C4H7Cl3O/c1-3(2,8)4(5,6)7/h8H,1-2H3

> <InChI Key_QSARr>
OSASVXMJTNOKOY-UHFFFAOYSA-N

> <Salt_Solvent>


> <Salt_Solvent_ID>
0

> <MPID>
97943

> <LogBCF>
0.23

> <Tr_1_Tst_0>
1

$$$$
100012
  Mrv171c012241911322D          

 18 20  0  0  0  0            999 V2000
    1.3175   -1.5147    0.0000 C   0  0  0  0  0  0  0  0  0  0  0  0
    0.4609   -1.4936    0.0000 Cl  0  0  0  0  0  0  0  0  0  0  0  0
    1.7956   -2.1870    0.0000 C   0  0  0  0  0  0  0  0  0  0  0  0
    1.3151   -2.9094    0.0000 Cl  0  0  0  0  0  0  0  0  0  0  0  0
    2.4995   -2.0217    0.0000 C   0  0  0  0  0  0  0  0  0  0  0  0
    3.2930   -2.3598    0.0000 C   0  0  0  0  0  0  0  0  0  0  0  0
    3.5861   -3.1936    0.0000 Cl  0  0  0  0  0  0  0  0  0  0  0  0
    3.5077   -1.5369    0.0000 C   0  0  0  0  0  0  0  0  0  0  0  0
    2.8824   -2.3390    0.0000 Cl  0  0  0  0  0  0  0  0  0  0  0  0
    2.8734   -0.6796    0.0000 Cl  0  0  0  0  0  0  0  0  0  0  0  0
    3.3098   -0.7099    0.0000 C   0  0  0  0  0  0  0  0  0  0  0  0
    3.5557    0.1537    0.0000 Cl  0  0  0  0  0  0  0  0  0  0  0  0
    2.5912   -1.1151    0.0000 C   0  0  0  0  0  0  0  0  0  0  0  0
    1.8092   -0.8522    0.0000 C   0  0  0  0  0  0  0  0  0  0  0  0
    4.0200   -1.1296    0.0000 C   0  0  0  0  0  0  0  0  0  0  0  0
    4.7861   -0.7240    0.0000 Cl  0  0  0  0  0  0  0  0  0  0  0  0
    4.0117   -1.9546    0.0000 C   0  0  0  0  0  0  0  0  0  0  0  0
    4.7785   -2.3615    0.0000 Cl  0  0  0  0  0  0  0  0  0  0  0  0
  1  2  1  0  0  0  0
  3  1  1  0  0  0  0
  3  4  1  0  0  0  0
  5  3  1  0  0  0  0
  5  6  1  0  0  0  0
  6  7  1  0  0  0  0
  8  6  1  0  0  0  0
  8  9  1  0  0  0  0
  8 10  1  0  0  0  0
 11  8  1  0  0  0  0
 11 12  1  0  0  0  0
 11 13  1  0  0  0  0
 13  5  1  0  0  0  0
 14 13  1  0  0  0  0
  1 14  1  0  0  0  0
 15 11  1  0  0  0  0
 15 16  1  0  0  0  0
 17 15  2  0  0  0  0
  6 17  1  0  0  0  0
 17 18  1  0  0  0  0
M  END
> <ChemID>
100012

> <CAS>
57-74-9|5103-71-9

> <Original_SMILES>
ClC1(Cl)C2(Cl)C3CC(Cl)C(Cl)C3C1(Cl)C(Cl)=C2Cl

> <preferred_name>
Chlordane|cis-Chlordane

> <dsstox_substance_id>
DTXSID7020267|DTXSID6038326

> <dsstox_compound_id>
DTXCID0028117|DTXCID90809620

> <qc_level>
DSSTox_High

> <Canonical_QSARr>
ClC1(Cl)C2(Cl)C3CC(Cl)C(Cl)C3C1(Cl)C(Cl)=C2Cl

> <InChI_Code_QSARr>
InChI=1S/C10H6Cl8/c11-3-1-2-4(5(3)12)9(16)7(14)6(13)8(2,15)10(9,17)18/h2-5H,1H2

> <InChI Key_QSARr>
BIWJNBZANLAXMG-UHFFFAOYSA-N

> <Salt_Solvent>


> <Salt_Solvent_ID>
0

> <MPID>
97944|98439|98457

> <LogBCF>
4.35333333333333

> <Tr_1_Tst_0>
1

$$$$
100013
  Mrv171c012241911322D          

 12 12  0  0  0  0            999 V2000
    2.1693   -1.2482    0.0000 C   0  0  0  0  0  0  0  0  0  0  0  0
    2.8837   -0.8357    0.0000 Cl  0  0  0  0  0  0  0  0  0  0  0  0
    1.4548   -0.8357    0.0000 C   0  0  0  0  0  0  0  0  0  0  0  0
    1.4548   -0.0107    0.0000 Cl  0  0  0  0  0  0  0  0  0  0  0  0
    0.7403   -1.2482    0.0000 C   0  0  0  0  0  0  0  0  0  0  0  0
    0.0258   -0.8357    0.0000 Cl  0  0  0  0  0  0  0  0  0  0  0  0
    0.7403   -2.0732    0.0000 C   0  0  0  0  0  0  0  0  0  0  0  0
    0.0258   -2.4857    0.0000 Cl  0  0  0  0  0  0  0  0  0  0  0  0
    1.4548   -2.4857    0.0000 C   0  0  0  0  0  0  0  0  0  0  0  0
    1.4548   -3.3107    0.0000 Cl  0  0  0  0  0  0  0  0  0  0  0  0
    2.1693   -2.0732    0.0000 C   0  0  0  0  0  0  0  0  0  0  0  0
    2.8837   -2.4857    0.0000 Cl  0  0  0  0  0  0  0  0  0  0  0  0
  1  2  1  0  0  0  0
  3  1  1  0  0  0  0
  3  4  1  0  0  0  0
  5  3  1  0  0  0  0
  5  6  1  0  0  0  0
  7  5  1  0  0  0  0
  7  8  1  0  0  0  0
  9  7  1  0  0  0  0
  9 10  1  0  0  0  0
 11  9  1  0  0  0  0
  1 11  1  0  0  0  0
 11 12  1  0  0  0  0
M  END
> <ChemID>
100013

> <CAS>
58-89-9|319-84-6|319-85-7|319-86-8|608-73-1

> <Original_SMILES>
Cl[C@@H]1[C@@H](Cl)[C@H](Cl)[C@H](Cl)[C@@H](Cl)[C@@H]1Cl

> <preferred_name>
Lindane|alpha-1,2,3,4,5,6-Hexachlorocyclohexane|beta-Hexachlorocyclohexane|delta-Hexachlorocyclohexane|1,2,3,4,5,6-Hexachlorocyclohexane

> <dsstox_substance_id>
DTXSID2020686|DTXSID2020684|DTXSID7020685|DTXSID5024134|DTXSID7020687

> <dsstox_compound_id>
DTXCID40196532|DTXCID00196533|DTXCID20196535|DTXCID60196534|DTXCID30687

> <qc_level>
DSSTox_High

> <Canonical_QSARr>
ClC1C(Cl)C(Cl)C(Cl)C(Cl)C1Cl

> <InChI_Code_QSARr>
InChI=1S/C6H6Cl6/c7-1-2(8)4(10)6(12)5(11)3(1)9/h1-6H

> <InChI Key_QSARr>
JLYXXMFPNIAWKQ-UHFFFAOYSA-N

> <Salt_Solvent>


> <Salt_Solvent_ID>
0

> <MPID>
97945|98262|98263|98264|98308

> <LogBCF>
3.0400000000000005

> <Tr_1_Tst_0>
1

$$$$
100014
  Mrv171c012241911322D          

 11 11  0  0  0  0            999 V2000
    2.8003   -0.5297    0.0000 O   0  0  0  0  0  0  0  0  0  0  0  0
    2.0858   -0.9422    0.0000 C   0  0  0  0  0  0  0  0  0  0  0  0
    1.3713   -0.5297    0.0000 C   0  0  0  0  0  0  0  0  0  0  0  0
    1.3713    0.2953    0.0000 Cl  0  0  0  0  0  0  0  0  0  0  0  0
    0.6569   -0.9422    0.0000 C   0  0  0  0  0  0  0  0  0  0  0  0
    0.6569   -1.7672    0.0000 C   0  0  0  0  0  0  0  0  0  0  0  0
   -0.0576   -2.1797    0.0000 Cl  0  0  0  0  0  0  0  0  0  0  0  0
    1.3713   -2.1797    0.0000 C   0  0  0  0  0  0  0  0  0  0  0  0
    1.3713   -3.0047    0.0000 Cl  0  0  0  0  0  0  0  0  0  0  0  0
    2.0858   -1.7672    0.0000 C   0  0  0  0  0  0  0  0  0  0  0  0
    2.8003   -2.1797    0.0000 Cl  0  0  0  0  0  0  0  0  0  0  0  0
  1  2  1  0  0  0  0
  3  2  1  0  0  0  0
  3  4  1  0  0  0  0
  5  3  2  0  0  0  0
  6  5  1  0  0  0  0
  6  7  1  0  0  0  0
  8  6  2  0  0  0  0
  8  9  1  0  0  0  0
 10  8  1  0  0  0  0
  2 10  2  0  0  0  0
 10 11  1  0  0  0  0
M  END
> <ChemID>
100014

> <CAS>
58-90-2

> <Original_SMILES>
Oc1c(Cl)cc(Cl)c(Cl)c1Cl

> <preferred_name>
2,3,4,6-Tetrachlorophenol

> <dsstox_substance_id>
DTXSID9021716

> <dsstox_compound_id>
DTXCID201716

> <qc_level>
DSSTox_Low

> <Canonical_QSARr>
OC1C(Cl)=CC(Cl)=C(Cl)C=1Cl

> <InChI_Code_QSARr>
InChI=1S/C6H2Cl4O/c7-2-1-3(8)6(11)5(10)4(2)9/h1,11H

> <InChI Key_QSARr>
VGVRPFIJEJYOFN-UHFFFAOYSA-N

> <Salt_Solvent>


> <Salt_Solvent_ID>
0

> <MPID>
97946

> <LogBCF>
2.3

> <Tr_1_Tst_0>
0

$$$$
100015
  Mrv171c012241911322D          

  9  9  0  0  0  0            999 V2000
    1.4296   -2.6583    0.0000 O   0  0  0  0  0  0  0  0  0  0  0  0
    1.4296   -1.8333    0.0000 C   0  0  0  0  0  0  0  0  0  0  0  0
    2.1441   -1.4208    0.0000 C   0  0  0  0  0  0  0  0  0  0  0  0
    2.1441   -0.5958    0.0000 C   0  0  0  0  0  0  0  0  0  0  0  0
    1.4296   -0.1833    0.0000 C   0  0  0  0  0  0  0  0  0  0  0  0
    1.4296    0.6417    0.0000 Cl  0  0  0  0  0  0  0  0  0  0  0  0
    0.7151   -0.5958    0.0000 C   0  0  0  0  0  0  0  0  0  0  0  0
    0.0007   -0.1833    0.0000 C   0  0  0  0  0  0  0  0  0  0  0  0
    0.7151   -1.4208    0.0000 C   0  0  0  0  0  0  0  0  0  0  0  0
  1  2  1  0  0  0  0
  3  2  1  0  0  0  0
  4  3  2  0  0  0  0
  5  4  1  0  0  0  0
  5  6  1  0  0  0  0
  7  5  2  0  0  0  0
  7  8  1  0  0  0  0
  9  7  1  0  0  0  0
  2  9  2  0  0  0  0
M  END
> <ChemID>
100015

> <CAS>
59-50-7

> <Original_SMILES>
Cc1cc(O)ccc1Cl

> <preferred_name>
4-Chloro-3-methylphenol

> <dsstox_substance_id>
DTXSID4021717

> <dsstox_compound_id>
DTXCID601717

> <qc_level>
DSSTox_Low

> <Canonical_QSARr>
CC1C=C(O)C=CC=1Cl

> <InChI_Code_QSARr>
InChI=1S/C7H7ClO/c1-5-4-6(9)2-3-7(5)8/h2-4,9H,1H3

> <InChI Key_QSARr>
CFKMVGJGLGKFKI-UHFFFAOYSA-N

> <Salt_Solvent>


> <Salt_Solvent_ID>
0

> <MPID>
97947

> <LogBCF>
0.93

> <Tr_1_Tst_0>
1

$$$$
100016
  Mrv171c012241911322D          

  5  4  0  0  0  0            999 V2000
    1.3473   -0.3899    0.0000 O   0  0  0  0  0  0  0  0  0  0  0  0
    2.1723   -0.3899    0.0000 C   0  0  0  0  0  0  0  0  0  0  0  0
    2.5848   -1.1044    0.0000 C   0  0  0  0  0  0  0  0  0  0  0  0
    0.9348    0.3245    0.0000 C   0  0  0  0  0  0  0  0  0  0  0  0
    0.1098    0.3245    0.0000 C   0  0  0  0  0  0  0  0  0  0  0  0
  1  2  1  0  0  0  0
  2  3  1  0  0  0  0
  1  4  1  0  0  0  0
  4  5  1  0  0  0  0
M  END
> <ChemID>
100016

> <CAS>
60-29-7

> <Original_SMILES>
CCOCC

> <preferred_name>
Diethyl ether

> <dsstox_substance_id>
DTXSID3021720

> <dsstox_compound_id>
DTXCID101720

> <qc_level>
DSSTox_Low

> <Canonical_QSARr>
CCOCC

> <InChI_Code_QSARr>
InChI=1S/C4H10O/c1-3-5-4-2/h3-4H2,1-2H3

> <InChI Key_QSARr>
RTZKZFJDLAIYFH-UHFFFAOYSA-N

> <Salt_Solvent>


> <Salt_Solvent_ID>
0

> <MPID>
97948

> <LogBCF>
0.73

> <Tr_1_Tst_0>
1

$$$$
100017
  Mrv171c012241911322D          

 12 11  0  0  0  0            999 V2000
    0.9482   -3.3580    0.0000 S   0  0  0  0  0  0  0  0  0  0  0  0
    1.6627   -2.9455    0.0000 P   0  0  0  0  0  0  0  0  0  0  0  0
    2.0752   -3.6600    0.0000 O   0  0  0  0  0  0  0  0  0  0  0  0
    1.6627   -4.3744    0.0000 C   0  0  0  0  0  0  0  0  0  0  0  0
    2.3771   -2.5330    0.0000 O   0  0  0  0  0  0  0  0  0  0  0  0
    3.0916   -2.9455    0.0000 C   0  0  0  0  0  0  0  0  0  0  0  0
    1.2502   -2.2310    0.0000 S   0  0  0  0  0  0  0  0  0  0  0  0
    1.6627   -1.5165    0.0000 C   0  0  0  0  0  0  0  0  0  0  0  0
    1.2502   -0.8021    0.0000 C   0  0  0  0  0  0  0  0  0  0  0  0
    1.6627   -0.0876    0.0000 N   0  0  0  0  0  0  0  0  0  0  0  0
    1.2502    0.6269    0.0000 C   0  0  0  0  0  0  0  0  0  0  0  0
    0.4252   -0.8021    0.0000 O   0  0  0  0  0  0  0  0  0  0  0  0
  1  2  2  0  0  0  0
  2  3  1  0  0  0  0
  3  4  1  0  0  0  0
  2  5  1  0  0  0  0
  5  6  1  0  0  0  0
  2  7  1  0  0  0  0
  7  8  1  0  0  0  0
  8  9  1  0  0  0  0
  9 10  1  0  0  0  0
 10 11  1  0  0  0  0
  9 12  2  0  0  0  0
M  END
> <ChemID>
100017

> <CAS>
60-51-5

> <Original_SMILES>
CNC(=O)CSP(=S)(OC)OC

> <preferred_name>
Dimethoate

> <dsstox_substance_id>
DTXSID7020479

> <dsstox_compound_id>
DTXCID50479

> <qc_level>
DSSTox_Low

> <Canonical_QSARr>
CNC(=O)CSP(=S)(OC)OC

> <InChI_Code_QSARr>
InChI=1S/C5H12NO3PS2/c1-6-5(7)4-12-10(11,8-2)9-3/h4H2,1-3H3,(H,6,7)

> <InChI Key_QSARr>
MCWXGJITAZMZEV-UHFFFAOYSA-N

> <Salt_Solvent>


> <Salt_Solvent_ID>
0

> <MPID>
97949

> <LogBCF>
0.2

> <Tr_1_Tst_0>
1

$$$$
100018
  Mrv171c012241911322D          

 19 23  0  0  0  0            999 V2000
    0.8791   -2.2674    0.0000 C   0  0  0  0  0  0  0  0  0  0  0  0
    1.5936   -2.6799    0.0000 C   0  0  0  0  0  0  0  0  0  0  0  0
    1.7998   -1.8549    0.0000 C   0  0  0  0  0  0  0  0  0  0  0  0
    1.5936   -1.0299    0.0000 C   0  0  0  0  0  0  0  0  0  0  0  0
    2.1954   -1.4726    0.0000 C   0  0  0  0  0  0  0  0  0  0  0  0
    3.0225   -1.0299    0.0000 C   0  0  0  0  0  0  0  0  0  0  0  0
    3.2138   -0.1477    0.0000 Cl  0  0  0  0  0  0  0  0  0  0  0  0
    3.2288   -1.8549    0.0000 C   0  0  0  0  0  0  0  0  0  0  0  0
    2.5237   -0.9691    0.0000 Cl  0  0  0  0  0  0  0  0  0  0  0  0
    2.5404   -2.7583    0.0000 Cl  0  0  0  0  0  0  0  0  0  0  0  0
    3.0225   -2.6799    0.0000 C   0  0  0  0  0  0  0  0  0  0  0  0
    3.2450   -3.5556    0.0000 Cl  0  0  0  0  0  0  0  0  0  0  0  0
    3.7370   -2.2674    0.0000 C   0  0  0  0  0  0  0  0  0  0  0  0
    4.4962   -2.6868    0.0000 Cl  0  0  0  0  0  0  0  0  0  0  0  0
    3.7370   -1.4424    0.0000 C   0  0  0  0  0  0  0  0  0  0  0  0
    4.4973   -1.0254    0.0000 Cl  0  0  0  0  0  0  0  0  0  0  0  0
    2.3081   -2.2674    0.0000 C   0  0  0  0  0  0  0  0  0  0  0  0
    0.8791   -1.4424    0.0000 C   0  0  0  0  0  0  0  0  0  0  0  0
    0.1646   -1.8549    0.0000 O   0  0  0  0  0  0  0  0  0  0  0  0
  2  1  1  0  0  0  0
  2  3  1  0  0  0  0
  3  4  1  0  0  0  0
  4  5  1  0  0  0  0
  6  5  1  0  0  0  0
  6  7  1  0  0  0  0
  6  8  1  0  0  0  0
  8  9  1  0  0  0  0
  8 10  1  0  0  0  0
  8 11  1  0  0  0  0
 11 12  1  0  0  0  0
 11 13  1  0  0  0  0
 13 14  1  0  0  0  0
 13 15  2  0  0  0  0
 15  6  1  0  0  0  0
 15 16  1  0  0  0  0
 17 11  1  0  0  0  0
  5 17  1  0  0  0  0
 17  2  1  0  0  0  0
 18  4  1  0  0  0  0
 18  1  1  0  0  0  0
 19 18  1  0  0  0  0
  1 19  1  0  0  0  0
M  END
> <ChemID>
100018

> <CAS>
60-57-1|72-20-8

> <Original_SMILES>
ClC1(Cl)[C@@]2(Cl)[C@@H]3[C@@H]4C[C@@H]([C@H]5O[C@H]54)[C@@H]3[C@]1(Cl)C(Cl)=C2Cl

> <preferred_name>
Dieldrin|Endrin

> <dsstox_substance_id>
DTXSID9020453|DTXSID6020561

> <dsstox_compound_id>
DTXCID30196607|DTXCID90196608

> <qc_level>
DSSTox_High

> <Canonical_QSARr>
ClC1(Cl)C2(Cl)C3C4CC(C5OC54)C3C1(Cl)C(Cl)=C2Cl

> <InChI_Code_QSARr>
InChI=1S/C12H8Cl6O/c13-8-9(14)11(16)5-3-1-2(6-7(3)19-6)4(5)10(8,15)12(11,17)18/h2-7H,1H2

> <InChI Key_QSARr>
DFBKLUNHFCTMDC-UHFFFAOYSA-N

> <Salt_Solvent>


> <Salt_Solvent_ID>
0

> <MPID>
97950|97965

> <LogBCF>
3.91

> <Tr_1_Tst_0>
0

$$$$
100019
  Mrv171c012241911322D          

  6  6  0  0  0  0            999 V2000
    1.2717   -0.2189    0.0000 C   0  0  0  0  0  0  0  0  0  0  0  0
    1.2717    0.6061    0.0000 N   0  0  0  0  0  0  0  0  0  0  0  0
    0.6043   -0.7038    0.0000 N   0  0  0  0  0  0  0  0  0  0  0  0
    0.8592   -1.4885    0.0000 N   0  0  0  0  0  0  0  0  0  0  0  0
    1.6842   -1.4885    0.0000 C   0  0  0  0  0  0  0  0  0  0  0  0
    1.9392   -0.7038    0.0000 N   0  0  0  0  0  0  0  0  0  0  0  0
  1  2  1  0  0  0  0
  3  1  2  0  0  0  0
  4  3  1  0  0  0  0
  5  4  1  0  0  0  0
  6  5  2  0  0  0  0
  1  6  1  0  0  0  0
M  END
> <ChemID>
100019

> <CAS>
61-82-5

> <Original_SMILES>
Nc1[n]c[nH][n]1

> <preferred_name>
Amitrole

> <dsstox_substance_id>
DTXSID0020076

> <dsstox_compound_id>
DTXCID9076

> <qc_level>
DSSTox_Low

> <Canonical_QSARr>
NC1N=CNN=1

> <InChI_Code_QSARr>
InChI=1S/C2H4N4/c3-2-4-1-5-6-2/h1H,(H3,3,4,5,6)

> <InChI Key_QSARr>
KLSJWNVTNUYHDU-UHFFFAOYSA-N

> <Salt_Solvent>


> <Salt_Solvent_ID>
0

> <MPID>
97951

> <LogBCF>
0.49

> <Tr_1_Tst_0>
1

$$$$
100020
  Mrv171c012241911322D          

 13 13  0  0  0  0            999 V2000
    2.4199   -3.6189    0.0000 C   0  0  0  0  0  0  0  0  0  0  0  0
    2.4199   -2.7939    0.0000 C   0  0  0  0  0  0  0  0  0  0  0  0
    3.1344   -2.3814    0.0000 N   0  0  0  0  0  0  0  0  0  0  0  0
    3.1344   -1.5564    0.0000 C   0  0  0  0  0  0  0  0  0  0  0  0
    3.8488   -1.1439    0.0000 C   0  0  0  0  0  0  0  0  0  0  0  0
    3.8488   -0.3189    0.0000 C   0  0  0  0  0  0  0  0  0  0  0  0
    3.1344    0.0936    0.0000 C   0  0  0  0  0  0  0  0  0  0  0  0
    3.1344    0.9186    0.0000 O   0  0  0  0  0  0  0  0  0  0  0  0
    3.8488    1.3311    0.0000 C   0  0  0  0  0  0  0  0  0  0  0  0
    3.8488    2.1561    0.0000 C   0  0  0  0  0  0  0  0  0  0  0  0
    2.4199   -0.3189    0.0000 C   0  0  0  0  0  0  0  0  0  0  0  0
    2.4199   -1.1439    0.0000 C   0  0  0  0  0  0  0  0  0  0  0  0
    1.7054   -2.3814    0.0000 O   0  0  0  0  0  0  0  0  0  0  0  0
  1  2  1  0  0  0  0
  2  3  1  0  0  0  0
  3  4  1  0  0  0  0
  5  4  1  0  0  0  0
  6  5  2  0  0  0  0
  7  6  1  0  0  0  0
  7  8  1  0  0  0  0
  8  9  1  0  0  0  0
  9 10  1  0  0  0  0
 11  7  2  0  0  0  0
 12 11  1  0  0  0  0
  4 12  2  0  0  0  0
  2 13  2  0  0  0  0
M  END
> <ChemID>
100020

> <CAS>
62-44-2

> <Original_SMILES>
CC(=O)Nc1ccc(cc1)OCC

> <preferred_name>
Phenacetin

> <dsstox_substance_id>
DTXSID1021116

> <dsstox_compound_id>
DTXCID001116

> <qc_level>
DSSTox_Low

> <Canonical_QSARr>
CC(=O)NC1C=CC(=CC=1)OCC

> <InChI_Code_QSARr>
InChI=1S/C10H13NO2/c1-3-13-10-6-4-9(5-7-10)11-8(2)12/h4-7H,3H2,1-2H3,(H,11,12)

> <InChI Key_QSARr>
CPJSUEIXXCENMM-UHFFFAOYSA-N

> <Salt_Solvent>


> <Salt_Solvent_ID>
0

> <MPID>
97952

> <LogBCF>
1.48

> <Tr_1_Tst_0>
1

$$$$
100021
  Mrv171c012241911322D          

  7  7  0  0  0  0            999 V2000
    1.4153    0.7000    0.0000 N   0  0  0  0  0  0  0  0  0  0  0  0
    1.4153   -0.1250    0.0000 C   0  0  0  0  0  0  0  0  0  0  0  0
    0.7009   -0.5375    0.0000 C   0  0  0  0  0  0  0  0  0  0  0  0
    0.7009   -1.3625    0.0000 C   0  0  0  0  0  0  0  0  0  0  0  0
    1.4153   -1.7750    0.0000 C   0  0  0  0  0  0  0  0  0  0  0  0
    2.1298   -1.3625    0.0000 C   0  0  0  0  0  0  0  0  0  0  0  0
    2.1298   -0.5375    0.0000 C   0  0  0  0  0  0  0  0  0  0  0  0
  1  2  1  0  0  0  0
  3  2  1  0  0  0  0
  4  3  2  0  0  0  0
  5  4  1  0  0  0  0
  6  5  2  0  0  0  0
  7  6  1  0  0  0  0
  2  7  2  0  0  0  0
M  END
> <ChemID>
100021

> <CAS>
62-53-3

> <Original_SMILES>
Nc1ccccc1

> <preferred_name>
Aniline

> <dsstox_substance_id>
DTXSID8020090

> <dsstox_compound_id>
DTXCID9090

> <qc_level>
DSSTox_High

> <Canonical_QSARr>
NC1C=CC=CC=1

> <InChI_Code_QSARr>
InChI=1S/C6H7N/c7-6-4-2-1-3-5-6/h1-5H,7H2

> <InChI Key_QSARr>
PAYRUJLWNCNPSJ-UHFFFAOYSA-N

> <Salt_Solvent>


> <Salt_Solvent_ID>
0

> <MPID>
97953

> <LogBCF>
0.21

> <Tr_1_Tst_0>
1

$$$$
100022
  Mrv171c012241911322D          

  4  3  0  0  0  0            999 V2000
    1.2371    0.0002    0.0000 N   0  0  0  0  0  0  0  0  0  0  0  0
    0.8246   -0.7143    0.0000 C   0  0  0  0  0  0  0  0  0  0  0  0
    1.2371   -1.4287    0.0000 N   0  0  0  0  0  0  0  0  0  0  0  0
   -0.0004   -0.7143    0.0000 S   0  0  0  0  0  0  0  0  0  0  0  0
  1  2  1  0  0  0  0
  2  3  1  0  0  0  0
  2  4  2  0  0  0  0
M  END
> <ChemID>
100022

> <CAS>
62-56-6

> <Original_SMILES>
NC(N)=S

> <preferred_name>
Thiourea

> <dsstox_substance_id>
DTXSID9021348

> <dsstox_compound_id>
DTXCID101348

> <qc_level>
DSSTox_Low

> <Canonical_QSARr>
NC(N)=S

> <InChI_Code_QSARr>
InChI=1S/CH4N2S/c2-1(3)4/h(H4,2,3,4)

> <InChI Key_QSARr>
UMGDCJDMYOKAJW-UHFFFAOYSA-N

> <Salt_Solvent>


> <Salt_Solvent_ID>
0

> <MPID>
97954

> <LogBCF>
0.3

> <Tr_1_Tst_0>
0

$$$$
100023
  Mrv171c012241911322D          

 11 10  0  0  0  0            999 V2000
    2.0236   -3.0743    0.0000 O   0  0  0  0  0  0  0  0  0  0  0  0
    2.0236   -2.2493    0.0000 P   0  0  0  0  0  0  0  0  0  0  0  0
    2.8486   -2.2493    0.0000 O   0  0  0  0  0  0  0  0  0  0  0  0
    3.2611   -2.9637    0.0000 C   0  0  0  0  0  0  0  0  0  0  0  0
    2.0236   -1.4243    0.0000 O   0  0  0  0  0  0  0  0  0  0  0  0
    2.7380   -1.0118    0.0000 C   0  0  0  0  0  0  0  0  0  0  0  0
    1.1986   -2.2493    0.0000 O   0  0  0  0  0  0  0  0  0  0  0  0
    0.7861   -1.5348    0.0000 C   0  0  0  0  0  0  0  0  0  0  0  0
   -0.0389   -1.5348    0.0000 C   0  0  0  0  0  0  0  0  0  0  0  0
   -0.4514   -2.2493    0.0000 Cl  0  0  0  0  0  0  0  0  0  0  0  0
   -0.4514   -0.8203    0.0000 Cl  0  0  0  0  0  0  0  0  0  0  0  0
  1  2  2  0  0  0  0
  2  3  1  0  0  0  0
  3  4  1  0  0  0  0
  2  5  1  0  0  0  0
  5  6  1  0  0  0  0
  2  7  1  0  0  0  0
  7  8  1  0  0  0  0
  8  9  2  0  0  0  0
  9 10  1  0  0  0  0
  9 11  1  0  0  0  0
M  END
> <ChemID>
100023

> <CAS>
62-73-7

> <Original_SMILES>
COP(=O)(OC=C(Cl)Cl)OC

> <preferred_name>
Dichlorvos

> <dsstox_substance_id>
DTXSID5020449

> <dsstox_compound_id>
DTXCID90449

> <qc_level>
DSSTox_Low

> <Canonical_QSARr>
COP(=O)(OC=C(Cl)Cl)OC

> <InChI_Code_QSARr>
InChI=1S/C4H7Cl2O4P/c1-8-11(7,9-2)10-3-4(5)6/h3H,1-2H3

> <InChI Key_QSARr>
OEBRKCOSUFCWJD-UHFFFAOYSA-N

> <Salt_Solvent>


> <Salt_Solvent_ID>
0

> <MPID>
97955

> <LogBCF>
-0.3

> <Tr_1_Tst_0>
1

$$$$
100024
  Mrv171c012241911322D          

 15 16  0  0  0  0            999 V2000
    0.7124   -2.3379    0.0000 O   0  0  0  0  0  0  0  0  0  0  0  0
    1.4268   -2.7504    0.0000 C   0  0  0  0  0  0  0  0  0  0  0  0
    1.4268   -3.5754    0.0000 N   0  0  0  0  0  0  0  0  0  0  0  0
    0.7124   -3.9879    0.0000 C   0  0  0  0  0  0  0  0  0  0  0  0
    2.1413   -2.3379    0.0000 O   0  0  0  0  0  0  0  0  0  0  0  0
    2.1413   -1.5129    0.0000 C   0  0  0  0  0  0  0  0  0  0  0  0
    1.4268   -1.1004    0.0000 C   0  0  0  0  0  0  0  0  0  0  0  0
    1.4268   -0.2754    0.0000 C   0  0  0  0  0  0  0  0  0  0  0  0
    2.1413    0.1371    0.0000 C   0  0  0  0  0  0  0  0  0  0  0  0
    2.8558   -0.2754    0.0000 C   0  0  0  0  0  0  0  0  0  0  0  0
    3.5703    0.1371    0.0000 C   0  0  0  0  0  0  0  0  0  0  0  0
    4.2847   -0.2754    0.0000 C   0  0  0  0  0  0  0  0  0  0  0  0
    4.2847   -1.1004    0.0000 C   0  0  0  0  0  0  0  0  0  0  0  0
    3.5703   -1.5129    0.0000 C   0  0  0  0  0  0  0  0  0  0  0  0
    2.8558   -1.1004    0.0000 C   0  0  0  0  0  0  0  0  0  0  0  0
  1  2  2  0  0  0  0
  2  3  1  0  0  0  0
  3  4  1  0  0  0  0
  2  5  1  0  0  0  0
  5  6  1  0  0  0  0
  7  6  1  0  0  0  0
  8  7  2  0  0  0  0
  9  8  1  0  0  0  0
 10  9  2  0  0  0  0
 10 11  1  0  0  0  0
 11 12  2  0  0  0  0
 12 13  1  0  0  0  0
 13 14  2  0  0  0  0
 14 15  1  0  0  0  0
  6 15  2  0  0  0  0
 15 10  1  0  0  0  0
M  END
> <ChemID>
100024

> <CAS>
63-25-2

> <Original_SMILES>
CNC(=O)Oc1cccc2ccccc21

> <preferred_name>
Carbaryl

> <dsstox_substance_id>
DTXSID9020247

> <dsstox_compound_id>
DTXCID10247

> <qc_level>
DSSTox_Low

> <Canonical_QSARr>
CNC(=O)OC1C=CC=C2C=CC=CC2=1

> <InChI_Code_QSARr>
InChI=1S/C12H11NO2/c1-13-12(14)15-11-8-4-6-9-5-2-3-7-10(9)11/h2-8H,1H3,(H,13,14)

> <InChI Key_QSARr>
CVXBEEMKQHEXEN-UHFFFAOYSA-N

> <Salt_Solvent>


> <Salt_Solvent_ID>
0

> <MPID>
97956

> <LogBCF>
0.95

> <Tr_1_Tst_0>
1

$$$$
100025
  Mrv171c012241911322D          

 20 21  0  0  0  0            999 V2000
    3.4929   -3.6437    0.0000 C   0  0  0  0  0  0  0  0  0  0  0  0
    4.2074   -4.0562    0.0000 C   0  0  0  0  0  0  0  0  0  0  0  0
    3.4929   -2.8187    0.0000 C   0  0  0  0  0  0  0  0  0  0  0  0
    2.7785   -2.4062    0.0000 C   0  0  0  0  0  0  0  0  0  0  0  0
    2.7785   -1.5812    0.0000 C   0  0  0  0  0  0  0  0  0  0  0  0
    2.0640   -1.1687    0.0000 O   0  0  0  0  0  0  0  0  0  0  0  0
    3.4929   -1.1687    0.0000 C   0  0  0  0  0  0  0  0  0  0  0  0
    3.4929   -0.3437    0.0000 C   0  0  0  0  0  0  0  0  0  0  0  0
    4.2074    0.0688    0.0000 C   0  0  0  0  0  0  0  0  0  0  0  0
    4.2074    0.8938    0.0000 C   0  0  0  0  0  0  0  0  0  0  0  0
    4.9219    1.3063    0.0000 O   0  0  0  0  0  0  0  0  0  0  0  0
    3.4929    1.3063    0.0000 N   0  0  0  0  0  0  0  0  0  0  0  0
    2.7785    0.8938    0.0000 C   0  0  0  0  0  0  0  0  0  0  0  0
    2.0640    1.3063    0.0000 O   0  0  0  0  0  0  0  0  0  0  0  0
    2.7785    0.0688    0.0000 C   0  0  0  0  0  0  0  0  0  0  0  0
    2.0640   -2.8187    0.0000 C   0  0  0  0  0  0  0  0  0  0  0  0
    1.3495   -2.4062    0.0000 O   0  0  0  0  0  0  0  0  0  0  0  0
    2.0640   -3.6437    0.0000 C   0  0  0  0  0  0  0  0  0  0  0  0
    1.3495   -4.0562    0.0000 C   0  0  0  0  0  0  0  0  0  0  0  0
    2.7785   -4.0562    0.0000 C   0  0  0  0  0  0  0  0  0  0  0  0
  1  2  1  0  0  0  0
  3  1  1  0  0  0  0
  4  3  1  0  0  0  0
  4  5  1  0  0  0  0
  5  6  1  0  0  0  0
  5  7  1  0  0  0  0
  7  8  1  0  0  0  0
  9  8  1  0  0  0  0
 10  9  1  0  0  0  0
 10 11  2  0  0  0  0
 12 10  1  0  0  0  0
 13 12  1  0  0  0  0
 13 14  2  0  0  0  0
 15 13  1  0  0  0  0
  8 15  1  0  0  0  0
 16  4  1  0  0  0  0
 16 17  2  0  0  0  0
 18 16  1  0  0  0  0
 18 19  1  0  0  0  0
 20 18  1  0  0  0  0
  1 20  1  0  0  0  0
M  END
> <ChemID>
100025

> <CAS>
66-81-9

> <Original_SMILES>
C[C@@H]1C[C@@H]([C@H](O)CC2CC(=O)NC(=O)C2)C(=O)[C@@H](C)C1

> <preferred_name>
Cycloheximide

> <dsstox_substance_id>
DTXSID6024882

> <dsstox_compound_id>
DTXCID204882

> <qc_level>
DSSTox_Low

> <Canonical_QSARr>
CC1CC(C(O)CC2CC(=O)NC(=O)C2)C(=O)C(C)C1

> <InChI_Code_QSARr>
InChI=1S/C15H23NO4/c1-8-3-9(2)15(20)11(4-8)12(17)5-10-6-13(18)16-14(19)7-10/h8-12,17H,3-7H2,1-2H3,(H,16,18,19)

> <InChI Key_QSARr>
YPHMISFOHDHNIV-UHFFFAOYSA-N

> <Salt_Solvent>


> <Salt_Solvent_ID>
0

> <MPID>
97957

> <LogBCF>
0.45

> <Tr_1_Tst_0>
1

$$$$
100026
  Mrv171c012241911322D          

  4  3  0  0  0  0            999 V2000
    1.2371    0.0002    0.0000 Cl  0  0  0  0  0  0  0  0  0  0  0  0
    0.8246   -0.7143    0.0000 C   0  0  0  0  0  0  0  0  0  0  0  0
    1.2371   -1.4287    0.0000 Cl  0  0  0  0  0  0  0  0  0  0  0  0
   -0.0004   -0.7143    0.0000 Cl  0  0  0  0  0  0  0  0  0  0  0  0
  1  2  1  0  0  0  0
  2  3  1  0  0  0  0
  2  4  1  0  0  0  0
M  END
> <ChemID>
100026

> <CAS>
67-66-3

> <Original_SMILES>
ClC(Cl)Cl

> <preferred_name>
Chloroform

> <dsstox_substance_id>
DTXSID1020306

> <dsstox_compound_id>
DTXCID10306

> <qc_level>
DSSTox_Low

> <Canonical_QSARr>
ClC(Cl)Cl

> <InChI_Code_QSARr>
InChI=1S/CHCl3/c2-1(3)4/h1H

> <InChI Key_QSARr>
HEDRZPFGACZZDS-UHFFFAOYSA-N

> <Salt_Solvent>


> <Salt_Solvent_ID>
0

> <MPID>
97958

> <LogBCF>
1.11

> <Tr_1_Tst_0>
0

$$$$
100027
  Mrv171c012241911322D          

  4  3  0  0  0  0            999 V2000
    1.2371    0.0002    0.0000 C   0  0  0  0  0  0  0  0  0  0  0  0
    0.8246   -0.7143    0.0000 S   0  0  0  0  0  0  0  0  0  0  0  0
    1.2371   -1.4287    0.0000 C   0  0  0  0  0  0  0  0  0  0  0  0
   -0.0004   -0.7143    0.0000 O   0  0  0  0  0  0  0  0  0  0  0  0
  1  2  1  0  0  0  0
  2  3  1  0  0  0  0
  2  4  2  0  0  0  0
M  END
> <ChemID>
100027

> <CAS>
67-68-5

> <Original_SMILES>
CS(C)=O

> <preferred_name>
Dimethyl sulfoxide

> <dsstox_substance_id>
DTXSID2021735

> <dsstox_compound_id>
DTXCID401735

> <qc_level>
DSSTox_Low

> <Canonical_QSARr>
CS(C)=O

> <InChI_Code_QSARr>
InChI=1S/C2H6OS/c1-4(2)3/h1-2H3

> <InChI Key_QSARr>
IAZDPXIOMUYVGZ-UHFFFAOYSA-N

> <Salt_Solvent>


> <Salt_Solvent_ID>
0

> <MPID>
97959

> <LogBCF>
0.6

> <Tr_1_Tst_0>
1

$$$$
100028
  Mrv171c012241911322D          

  8  7  0  0  0  0            999 V2000
    0.8232   -2.4725    0.0000 Cl  0  0  0  0  0  0  0  0  0  0  0  0
    0.8232   -1.6475    0.0000 C   0  0  0  0  0  0  0  0  0  0  0  0
    1.6482   -1.6475    0.0000 Cl  0  0  0  0  0  0  0  0  0  0  0  0
   -0.0018   -1.6475    0.0000 Cl  0  0  0  0  0  0  0  0  0  0  0  0
    0.8232   -0.8225    0.0000 C   0  0  0  0  0  0  0  0  0  0  0  0
    0.8232    0.0025    0.0000 Cl  0  0  0  0  0  0  0  0  0  0  0  0
    1.6482   -0.8225    0.0000 Cl  0  0  0  0  0  0  0  0  0  0  0  0
   -0.0018   -0.8225    0.0000 Cl  0  0  0  0  0  0  0  0  0  0  0  0
  1  2  1  0  0  0  0
  2  3  1  0  0  0  0
  2  4  1  0  0  0  0
  2  5  1  0  0  0  0
  5  6  1  0  0  0  0
  5  7  1  0  0  0  0
  5  8  1  0  0  0  0
M  END
> <ChemID>
100028

> <CAS>
67-72-1

> <Original_SMILES>
ClC(Cl)(Cl)C(Cl)(Cl)Cl

> <preferred_name>
Hexachloroethane

> <dsstox_substance_id>
DTXSID7020689

> <dsstox_compound_id>
DTXCID90689

> <qc_level>
DSSTox_Low

> <Canonical_QSARr>
ClC(Cl)(Cl)C(Cl)(Cl)Cl

> <InChI_Code_QSARr>
InChI=1S/C2Cl6/c3-1(4,5)2(6,7)8

> <InChI Key_QSARr>
VHHHONWQHHHLTI-UHFFFAOYSA-N

> <Salt_Solvent>


> <Salt_Solvent_ID>
0

> <MPID>
97960

> <LogBCF>
2.71

> <Tr_1_Tst_0>
1

$$$$
100029
  Mrv171c012241911322D          

  5  4  0  0  0  0            999 V2000
    2.2164   -0.9681    0.0000 C   0  0  0  0  0  0  0  0  0  0  0  0
    1.3914   -0.9681    0.0000 N   0  0  0  0  0  0  0  0  0  0  0  0
    0.9789   -1.6826    0.0000 C   0  0  0  0  0  0  0  0  0  0  0  0
    0.9789   -0.2536    0.0000 C   0  0  0  0  0  0  0  0  0  0  0  0
    0.1539   -0.2536    0.0000 O   0  0  0  0  0  0  0  0  0  0  0  0
  1  2  1  0  0  0  0
  2  3  1  0  0  0  0
  2  4  1  0  0  0  0
  4  5  2  0  0  0  0
M  END
> <ChemID>
100029

> <CAS>
68-12-2

> <Original_SMILES>
CN(C)C=O

> <preferred_name>
N,N-Dimethylformamide

> <dsstox_substance_id>
DTXSID6020515

> <dsstox_compound_id>
DTXCID20515

> <qc_level>
DSSTox_High

> <Canonical_QSARr>
CN(C)C=O

> <InChI_Code_QSARr>
InChI=1S/C3H7NO/c1-4(2)3-5/h3H,1-2H3

> <InChI Key_QSARr>
ZMXDDKWLCZADIW-UHFFFAOYSA-N

> <Salt_Solvent>


> <Salt_Solvent_ID>
0

> <MPID>
97961

> <LogBCF>
-0.1

> <Tr_1_Tst_0>
1

$$$$
100030
  Mrv171c012241911322D          

 21 22  0  0  0  0            999 V2000
    0.9357   -2.1061    0.0000 O   0  0  0  0  0  0  0  0  0  0  0  0
    1.6502   -2.5186    0.0000 C   0  0  0  0  0  0  0  0  0  0  0  0
    2.3647   -2.1061    0.0000 C   0  0  0  0  0  0  0  0  0  0  0  0
    2.3647   -1.2811    0.0000 C   0  0  0  0  0  0  0  0  0  0  0  0
    3.0791   -0.8686    0.0000 C   0  0  0  0  0  0  0  0  0  0  0  0
    3.7936   -1.2811    0.0000 C   0  0  0  0  0  0  0  0  0  0  0  0
    3.7936   -2.1061    0.0000 Cl  0  0  0  0  0  0  0  0  0  0  0  0
    4.5081   -0.8686    0.0000 C   0  0  0  0  0  0  0  0  0  0  0  0
    5.2225   -1.2811    0.0000 Cl  0  0  0  0  0  0  0  0  0  0  0  0
    4.5081   -0.0436    0.0000 C   0  0  0  0  0  0  0  0  0  0  0  0
    3.7936    0.3689    0.0000 C   0  0  0  0  0  0  0  0  0  0  0  0
    3.7936    1.1939    0.0000 Cl  0  0  0  0  0  0  0  0  0  0  0  0
    3.0791   -0.0436    0.0000 C   0  0  0  0  0  0  0  0  0  0  0  0
    2.3647    0.3689    0.0000 O   0  0  0  0  0  0  0  0  0  0  0  0
    3.0791   -2.5186    0.0000 C   0  0  0  0  0  0  0  0  0  0  0  0
    3.8996   -2.6048    0.0000 Cl  0  0  0  0  0  0  0  0  0  0  0  0
    3.0791   -3.3436    0.0000 C   0  0  0  0  0  0  0  0  0  0  0  0
    3.7936   -3.7561    0.0000 Cl  0  0  0  0  0  0  0  0  0  0  0  0
    2.3647   -3.7561    0.0000 C   0  0  0  0  0  0  0  0  0  0  0  0
    1.6502   -3.3436    0.0000 C   0  0  0  0  0  0  0  0  0  0  0  0
    0.9357   -3.7561    0.0000 Cl  0  0  0  0  0  0  0  0  0  0  0  0
  1  2  1  0  0  0  0
  3  2  1  0  0  0  0
  3  4  1  0  0  0  0
  4  5  1  0  0  0  0
  6  5  1  0  0  0  0
  6  7  1  0  0  0  0
  8  6  2  0  0  0  0
  8  9  1  0  0  0  0
 10  8  1  0  0  0  0
 11 10  2  0  0  0  0
 11 12  1  0  0  0  0
 13 11  1  0  0  0  0
  5 13  2  0  0  0  0
 13 14  1  0  0  0  0
 15  3  2  0  0  0  0
 15 16  1  0  0  0  0
 17 15  1  0  0  0  0
 17 18  1  0  0  0  0
 19 17  2  0  0  0  0
 20 19  1  0  0  0  0
  2 20  2  0  0  0  0
 20 21  1  0  0  0  0
M  END
> <ChemID>
100030

> <CAS>
70-30-4

> <Original_SMILES>
Oc1c(Cc2c(Cl)c(Cl)cc(Cl)c2O)c(Cl)c(Cl)cc1Cl

> <preferred_name>
Hexachlorophene

> <dsstox_substance_id>
DTXSID6020690

> <dsstox_compound_id>
DTXCID40690

> <qc_level>
DSSTox_Low

> <Canonical_QSARr>
OC1C(CC2C(Cl)=C(Cl)C=C(Cl)C=2O)=C(Cl)C(Cl)=CC=1Cl

> <InChI_Code_QSARr>
InChI=1S/C13H6Cl6O2/c14-6-2-8(16)12(20)4(10(6)18)1-5-11(19)7(15)3-9(17)13(5)21/h2-3,20-21H,1H2

> <InChI Key_QSARr>
ACGUYXCXAPNIKK-UHFFFAOYSA-N

> <Salt_Solvent>


> <Salt_Solvent_ID>
0

> <MPID>
97962

> <LogBCF>
2.07

> <Tr_1_Tst_0>
0

$$$$
100031
  Mrv171c012241911322D          

  6  6  0  0  0  0            999 V2000
    1.4289   -0.4125    0.0000 C   0  0  0  0  0  0  0  0  0  0  0  0
    0.7145    0.0000    0.0000 C   0  0  0  0  0  0  0  0  0  0  0  0
    0.0000   -0.4125    0.0000 C   0  0  0  0  0  0  0  0  0  0  0  0
    0.0000   -1.2375    0.0000 C   0  0  0  0  0  0  0  0  0  0  0  0
    0.7145   -1.6500    0.0000 C   0  0  0  0  0  0  0  0  0  0  0  0
    1.4289   -1.2375    0.0000 C   0  0  0  0  0  0  0  0  0  0  0  0
  2  1  1  0  0  0  0
  3  2  2  0  0  0  0
  4  3  1  0  0  0  0
  5  4  2  0  0  0  0
  6  5  1  0  0  0  0
  1  6  2  0  0  0  0
M  END
> <ChemID>
100031

> <CAS>
71-43-2

> <Original_SMILES>
c1ccccc1

> <preferred_name>
Benzene

> <dsstox_substance_id>
DTXSID3039242

> <dsstox_compound_id>
DTXCID20135

> <qc_level>
DSSTox_Low

> <Canonical_QSARr>
C1C=CC=CC=1

> <InChI_Code_QSARr>
InChI=1S/C6H6/c1-2-4-6-5-3-1/h1-6H

> <InChI Key_QSARr>
UHOVQNZJYSORNB-UHFFFAOYSA-N

> <Salt_Solvent>


> <Salt_Solvent_ID>
0

> <MPID>
97963

> <LogBCF>
0.63

> <Tr_1_Tst_0>
1

$$$$
100032
  Mrv171c012241911322D          

  5  4  0  0  0  0            999 V2000
    0.8250   -1.6500    0.0000 C   0  0  0  0  0  0  0  0  0  0  0  0
    0.8250   -0.8250    0.0000 C   0  0  0  0  0  0  0  0  0  0  0  0
    0.8250    0.0000    0.0000 Cl  0  0  0  0  0  0  0  0  0  0  0  0
    1.6500   -0.8250    0.0000 Cl  0  0  0  0  0  0  0  0  0  0  0  0
    0.0000   -0.8250    0.0000 Cl  0  0  0  0  0  0  0  0  0  0  0  0
  1  2  1  0  0  0  0
  2  3  1  0  0  0  0
  2  4  1  0  0  0  0
  2  5  1  0  0  0  0
M  END
> <ChemID>
100032

> <CAS>
71-55-6

> <Original_SMILES>
CC(Cl)(Cl)Cl

> <preferred_name>
1,1,1-Trichloroethane

> <dsstox_substance_id>
DTXSID0021381

> <dsstox_compound_id>
DTXCID501381

> <qc_level>
DSSTox_Low

> <Canonical_QSARr>
CC(Cl)(Cl)Cl

> <InChI_Code_QSARr>
InChI=1S/C2H3Cl3/c1-2(3,4)5/h1H3

> <InChI Key_QSARr>
UOCLXMDMGBRAIB-UHFFFAOYSA-N

> <Salt_Solvent>


> <Salt_Solvent_ID>
0

> <MPID>
97964

> <LogBCF>
0.7

> <Tr_1_Tst_0>
1

$$$$
100034
  Mrv171c012241911322D          

 21 22  0  0  0  0            999 V2000
    1.9311   -2.2305    0.0000 Cl  0  0  0  0  0  0  0  0  0  0  0  0
    2.3436   -2.9449    0.0000 C   0  0  0  0  0  0  0  0  0  0  0  0
    2.7561   -3.6594    0.0000 Cl  0  0  0  0  0  0  0  0  0  0  0  0
    1.6292   -3.3574    0.0000 Cl  0  0  0  0  0  0  0  0  0  0  0  0
    3.0581   -2.5324    0.0000 C   0  0  0  0  0  0  0  0  0  0  0  0
    3.0581   -1.7074    0.0000 C   0  0  0  0  0  0  0  0  0  0  0  0
    3.7726   -1.2949    0.0000 C   0  0  0  0  0  0  0  0  0  0  0  0
    3.7726   -0.4699    0.0000 C   0  0  0  0  0  0  0  0  0  0  0  0
    3.0581   -0.0574    0.0000 C   0  0  0  0  0  0  0  0  0  0  0  0
    3.0581    0.7676    0.0000 O   0  0  0  0  0  0  0  0  0  0  0  0
    2.3436    1.1801    0.0000 C   0  0  0  0  0  0  0  0  0  0  0  0
    2.3436   -0.4699    0.0000 C   0  0  0  0  0  0  0  0  0  0  0  0
    2.3436   -1.2949    0.0000 C   0  0  0  0  0  0  0  0  0  0  0  0
    3.7726   -2.9449    0.0000 C   0  0  0  0  0  0  0  0  0  0  0  0
    3.7726   -3.7699    0.0000 C   0  0  0  0  0  0  0  0  0  0  0  0
    4.4871   -4.1824    0.0000 C   0  0  0  0  0  0  0  0  0  0  0  0
    5.2015   -3.7699    0.0000 C   0  0  0  0  0  0  0  0  0  0  0  0
    5.9160   -4.1824    0.0000 O   0  0  0  0  0  0  0  0  0  0  0  0
    6.6305   -3.7699    0.0000 C   0  0  0  0  0  0  0  0  0  0  0  0
    5.2015   -2.9449    0.0000 C   0  0  0  0  0  0  0  0  0  0  0  0
    4.4871   -2.5324    0.0000 C   0  0  0  0  0  0  0  0  0  0  0  0
  1  2  1  0  0  0  0
  2  3  1  0  0  0  0
  2  4  1  0  0  0  0
  2  5  1  0  0  0  0
  5  6  1  0  0  0  0
  7  6  1  0  0  0  0
  8  7  2  0  0  0  0
  9  8  1  0  0  0  0
  9 10  1  0  0  0  0
 10 11  1  0  0  0  0
 12  9  2  0  0  0  0
 13 12  1  0  0  0  0
  6 13  2  0  0  0  0
  5 14  1  0  0  0  0
 15 14  1  0  0  0  0
 16 15  2  0  0  0  0
 17 16  1  0  0  0  0
 17 18  1  0  0  0  0
 18 19  1  0  0  0  0
 20 17  2  0  0  0  0
 21 20  1  0  0  0  0
 14 21  2  0  0  0  0
M  END
> <ChemID>
100034

> <CAS>
72-43-5

> <Original_SMILES>
COc1ccc(cc1)C(c1ccc(cc1)OC)C(Cl)(Cl)Cl

> <preferred_name>
Methoxychlor

> <dsstox_substance_id>
DTXSID9020827

> <dsstox_compound_id>
DTXCID30827

> <qc_level>
DSSTox_Low

> <Canonical_QSARr>
COC1C=CC(=CC=1)C(C1C=CC(=CC=1)OC)C(Cl)(Cl)Cl

> <InChI_Code_QSARr>
InChI=1S/C16H15Cl3O2/c1-20-13-7-3-11(4-8-13)15(16(17,18)19)12-5-9-14(21-2)10-6-12/h3-10,15H,1-2H3

> <InChI Key_QSARr>
IAKOZHOLGAGEJT-UHFFFAOYSA-N

> <Salt_Solvent>


> <Salt_Solvent_ID>
0

> <MPID>
97966

> <LogBCF>
2.5

> <Tr_1_Tst_0>
1

$$$$
100035
  Mrv171c012241911322D          

 18 19  0  0  0  0            999 V2000
    4.7646   -2.0618    0.0000 Cl  0  0  0  0  0  0  0  0  0  0  0  0
    4.0501   -2.4743    0.0000 C   0  0  0  0  0  0  0  0  0  0  0  0
    4.0501   -3.2993    0.0000 Cl  0  0  0  0  0  0  0  0  0  0  0  0
    3.3357   -2.0618    0.0000 C   0  0  0  0  0  0  0  0  0  0  0  0
    3.3357   -1.2368    0.0000 C   0  0  0  0  0  0  0  0  0  0  0  0
    4.0501   -0.8243    0.0000 C   0  0  0  0  0  0  0  0  0  0  0  0
    4.0501    0.0007    0.0000 C   0  0  0  0  0  0  0  0  0  0  0  0
    3.3357    0.4132    0.0000 C   0  0  0  0  0  0  0  0  0  0  0  0
    3.3357    1.2382    0.0000 Cl  0  0  0  0  0  0  0  0  0  0  0  0
    2.6212    0.0007    0.0000 C   0  0  0  0  0  0  0  0  0  0  0  0
    2.6212   -0.8243    0.0000 C   0  0  0  0  0  0  0  0  0  0  0  0
    2.6212   -2.4743    0.0000 C   0  0  0  0  0  0  0  0  0  0  0  0
    1.9067   -2.0618    0.0000 C   0  0  0  0  0  0  0  0  0  0  0  0
    1.1922   -2.4743    0.0000 C   0  0  0  0  0  0  0  0  0  0  0  0
    1.1922   -3.2993    0.0000 C   0  0  0  0  0  0  0  0  0  0  0  0
    0.4778   -3.7118    0.0000 Cl  0  0  0  0  0  0  0  0  0  0  0  0
    1.9067   -3.7118    0.0000 C   0  0  0  0  0  0  0  0  0  0  0  0
    2.6212   -3.2993    0.0000 C   0  0  0  0  0  0  0  0  0  0  0  0
  1  2  1  0  0  0  0
  2  3  1  0  0  0  0
  2  4  2  0  0  0  0
  4  5  1  0  0  0  0
  6  5  1  0  0  0  0
  7  6  2  0  0  0  0
  8  7  1  0  0  0  0
  8  9  1  0  0  0  0
 10  8  2  0  0  0  0
 11 10  1  0  0  0  0
  5 11  2  0  0  0  0
  4 12  1  0  0  0  0
 13 12  1  0  0  0  0
 14 13  2  0  0  0  0
 15 14  1  0  0  0  0
 15 16  1  0  0  0  0
 17 15  2  0  0  0  0
 18 17  1  0  0  0  0
 12 18  2  0  0  0  0
M  END
> <ChemID>
100035

> <CAS>
72-55-9

> <Original_SMILES>
ClC(Cl)=C(c1ccc(Cl)cc1)c1ccc(Cl)cc1

> <preferred_name>
p,p'-DDE

> <dsstox_substance_id>
DTXSID9020374

> <dsstox_compound_id>
DTXCID90374

> <qc_level>
DSSTox_High

> <Canonical_QSARr>
ClC(Cl)=C(C1C=CC(Cl)=CC=1)C1C=CC(Cl)=CC=1

> <InChI_Code_QSARr>
InChI=1S/C14H8Cl4/c15-11-5-1-9(2-6-11)13(14(17)18)10-3-7-12(16)8-4-10/h1-8H

> <InChI Key_QSARr>
UCNVFOCBFJOQAL-UHFFFAOYSA-N

> <Salt_Solvent>


> <Salt_Solvent_ID>
0

> <MPID>
97967

> <LogBCF>
4.08

> <Tr_1_Tst_0>
0

$$$$
100036
  Mrv171c012241911322D          

 20 22  0  0  0  0            999 V2000
    5.4261   -0.9068    0.0000 N   0  0  0  0  0  0  0  0  0  0  0  0
    5.4261   -1.7318    0.0000 C   0  0  0  0  0  0  0  0  0  0  0  0
    4.7117   -2.1443    0.0000 C   0  0  0  0  0  0  0  0  0  0  0  0
    4.7117   -2.9693    0.0000 C   0  0  0  0  0  0  0  0  0  0  0  0
    5.4261   -3.3818    0.0000 C   0  0  0  0  0  0  0  0  0  0  0  0
    6.1406   -2.9693    0.0000 C   0  0  0  0  0  0  0  0  0  0  0  0
    6.1406   -2.1443    0.0000 C   0  0  0  0  0  0  0  0  0  0  0  0
    4.7117   -0.4943    0.0000 C   0  0  0  0  0  0  0  0  0  0  0  0
    4.7117    0.3307    0.0000 C   0  0  0  0  0  0  0  0  0  0  0  0
    3.9972    0.7432    0.0000 C   0  0  0  0  0  0  0  0  0  0  0  0
    3.2827    0.3307    0.0000 C   0  0  0  0  0  0  0  0  0  0  0  0
    2.5683    0.7432    0.0000 N   0  0  0  0  0  0  0  0  0  0  0  0
    1.8538    0.3307    0.0000 C   0  0  0  0  0  0  0  0  0  0  0  0
    1.1393    0.7432    0.0000 C   0  0  0  0  0  0  0  0  0  0  0  0
    0.4248    0.3307    0.0000 C   0  0  0  0  0  0  0  0  0  0  0  0
    0.4248   -0.4943    0.0000 C   0  0  0  0  0  0  0  0  0  0  0  0
    1.1393   -0.9068    0.0000 C   0  0  0  0  0  0  0  0  0  0  0  0
    1.8538   -0.4943    0.0000 C   0  0  0  0  0  0  0  0  0  0  0  0
    3.2827   -0.4943    0.0000 C   0  0  0  0  0  0  0  0  0  0  0  0
    3.9972   -0.9068    0.0000 C   0  0  0  0  0  0  0  0  0  0  0  0
  1  2  1  0  0  0  0
  3  2  1  0  0  0  0
  4  3  2  0  0  0  0
  5  4  1  0  0  0  0
  6  5  2  0  0  0  0
  7  6  1  0  0  0  0
  2  7  2  0  0  0  0
  1  8  1  0  0  0  0
  9  8  1  0  0  0  0
 10  9  2  0  0  0  0
 11 10  1  0  0  0  0
 11 12  1  0  0  0  0
 12 13  1  0  0  0  0
 14 13  1  0  0  0  0
 15 14  2  0  0  0  0
 16 15  1  0  0  0  0
 17 16  2  0  0  0  0
 18 17  1  0  0  0  0
 13 18  2  0  0  0  0
 19 11  2  0  0  0  0
 20 19  1  0  0  0  0
  8 20  2  0  0  0  0
M  END
> <ChemID>
100036

> <CAS>
74-31-7

> <Original_SMILES>
c1cc(ccc1Nc1ccccc1)Nc1ccccc1

> <preferred_name>
N,N'-Diphenyl-p-phenylenediamine

> <dsstox_substance_id>
DTXSID9020538

> <dsstox_compound_id>
DTXCID50538

> <qc_level>
DSSTox_Low

> <Canonical_QSARr>
C1=CC(=CC=C1NC1C=CC=CC=1)NC1C=CC=CC=1

> <InChI_Code_QSARr>
InChI=1S/C18H16N2/c1-3-7-15(8-4-1)19-17-11-13-18(14-12-17)20-16-9-5-2-6-10-16/h1-14,19-20H

> <InChI Key_QSARr>
UTGQNNCQYDRXCH-UHFFFAOYSA-N

> <Salt_Solvent>


> <Salt_Solvent_ID>
0

> <MPID>
97968

> <LogBCF>
3.12

> <Tr_1_Tst_0>
1

$$$$
100037
  Mrv171c012241911322D          

  3  2  0  0  0  0            999 V2000
   -0.0002   -0.1377    0.0000 Cl  0  0  0  0  0  0  0  0  0  0  0  0
    0.7143   -0.5502    0.0000 C   0  0  0  0  0  0  0  0  0  0  0  0
    1.4287   -0.1377    0.0000 Br  0  0  0  0  0  0  0  0  0  0  0  0
  1  2  1  0  0  0  0
  2  3  1  0  0  0  0
M  END
> <ChemID>
100037

> <CAS>
74-97-5

> <Original_SMILES>
ClCBr

> <preferred_name>
Bromochloromethane

> <dsstox_substance_id>
DTXSID4021503

> <dsstox_compound_id>
DTXCID301503

> <qc_level>
DSSTox_Low

> <Canonical_QSARr>
ClCBr

> <InChI_Code_QSARr>
InChI=1S/CH2BrCl/c2-1-3/h1H2

> <InChI Key_QSARr>
JPOXNPPZZKNXOV-UHFFFAOYSA-N

> <Salt_Solvent>


> <Salt_Solvent_ID>
0

> <MPID>
97969

> <LogBCF>
0.6

> <Tr_1_Tst_0>
1

$$$$
100038
  Mrv171c012241911322D          

  3  2  0  0  0  0            999 V2000
   -0.0002   -0.1377    0.0000 Cl  0  0  0  0  0  0  0  0  0  0  0  0
    0.7143   -0.5502    0.0000 C   0  0  0  0  0  0  0  0  0  0  0  0
    1.4287   -0.1377    0.0000 Cl  0  0  0  0  0  0  0  0  0  0  0  0
  1  2  1  0  0  0  0
  2  3  1  0  0  0  0
M  END
> <ChemID>
100038

> <CAS>
75-09-2

> <Original_SMILES>
ClCCl

> <preferred_name>
Dichloromethane

> <dsstox_substance_id>
DTXSID0020868

> <dsstox_compound_id>
DTXCID40868

> <qc_level>
DSSTox_Low

> <Canonical_QSARr>
ClCCl

> <InChI_Code_QSARr>
InChI=1S/CH2Cl2/c2-1-3/h1H2

> <InChI Key_QSARr>
YMWUJEATGCHHMB-UHFFFAOYSA-N

> <Salt_Solvent>


> <Salt_Solvent_ID>
0

> <MPID>
97970

> <LogBCF>
1.36

> <Tr_1_Tst_0>
1

$$$$
100039
  Mrv171c012241911322D          

  3  2  0  0  0  0            999 V2000
    0.7127   -0.4119    0.0000 C   0  0  0  0  0  0  0  0  0  0  0  0
   -0.1123   -0.4119    0.0000 S   0  0  0  0  0  0  0  0  0  0  0  0
    1.5377   -0.4119    0.0000 S   0  0  0  0  0  0  0  0  0  0  0  0
  1  2  2  0  0  0  0
  1  3  2  0  0  0  0
M  END
> <ChemID>
100039

> <CAS>
75-15-0

> <Original_SMILES>
S=C=S

> <preferred_name>
Carbon disulfide

> <dsstox_substance_id>
DTXSID6023947

> <dsstox_compound_id>
DTXCID103947

> <qc_level>
DSSTox_Low

> <Canonical_QSARr>
S=C=S

> <InChI_Code_QSARr>
InChI=1S/CS2/c2-1-3

> <InChI Key_QSARr>
QGJOPFRUJISHPQ-UHFFFAOYSA-N

> <Salt_Solvent>


> <Salt_Solvent_ID>
0

> <MPID>
97971

> <LogBCF>
1.29

> <Tr_1_Tst_0>
0

$$$$
100040
  Mrv171c012241911322D          

  4  3  0  0  0  0            999 V2000
    0.8246   -0.7143    0.0000 C   0  0  0  0  0  0  0  0  0  0  0  0
    1.2371    0.0002    0.0000 Br  0  0  0  0  0  0  0  0  0  0  0  0
    1.2371   -1.4287    0.0000 Br  0  0  0  0  0  0  0  0  0  0  0  0
   -0.0004   -0.7143    0.0000 Br  0  0  0  0  0  0  0  0  0  0  0  0
  1  2  1  0  0  0  0
  1  3  1  0  0  0  0
  1  4  1  0  0  0  0
M  END
> <ChemID>
100040

> <CAS>
75-25-2

> <Original_SMILES>
BrC(Br)Br

> <preferred_name>
Bromoform

> <dsstox_substance_id>
DTXSID1021374

> <dsstox_compound_id>
DTXCID401374

> <qc_level>
DSSTox_Low

> <Canonical_QSARr>
BrC(Br)Br

> <InChI_Code_QSARr>
InChI=1S/CHBr3/c2-1(3)4/h1H

> <InChI Key_QSARr>
DIKBFYAXUHHXCS-UHFFFAOYSA-N

> <Salt_Solvent>


> <Salt_Solvent_ID>
0

> <MPID>
97972

> <LogBCF>
1.13

> <Tr_1_Tst_0>
1

$$$$
100041
  Mrv171c012241911322D          

  4  3  0  0  0  0            999 V2000
    1.2371    0.0002    0.0000 C   0  0  0  0  0  0  0  0  0  0  0  0
    0.8246   -0.7143    0.0000 C   0  0  0  0  0  0  0  0  0  0  0  0
    1.2371   -1.4287    0.0000 Cl  0  0  0  0  0  0  0  0  0  0  0  0
   -0.0004   -0.7143    0.0000 Cl  0  0  0  0  0  0  0  0  0  0  0  0
  1  2  2  0  0  0  0
  2  3  1  0  0  0  0
  2  4  1  0  0  0  0
M  END
> <ChemID>
100041

> <CAS>
75-35-4

> <Original_SMILES>
C=C(Cl)Cl

> <preferred_name>
1,1-Dichloroethylene

> <dsstox_substance_id>
DTXSID8021438

> <dsstox_compound_id>
DTXCID001438

> <qc_level>
DSSTox_Low

> <Canonical_QSARr>
C=C(Cl)Cl

> <InChI_Code_QSARr>
InChI=1S/C2H2Cl2/c1-2(3)4/h1H2

> <InChI Key_QSARr>
LGXVIGDEPROXKC-UHFFFAOYSA-N

> <Salt_Solvent>


> <Salt_Solvent_ID>
0

> <MPID>
97973

> <LogBCF>
1.11

> <Tr_1_Tst_0>
1

$$$$
100042
  Mrv171c012241911322D          

  5  4  0  0  0  0            999 V2000
    0.8250   -0.8250    0.0000 C   0  0  0  0  0  0  0  0  0  0  0  0
    0.8250   -1.6500    0.0000 O   0  0  0  0  0  0  0  0  0  0  0  0
    0.8250    0.0000    0.0000 C   0  0  0  0  0  0  0  0  0  0  0  0
    1.6500   -0.8250    0.0000 C   0  0  0  0  0  0  0  0  0  0  0  0
    0.0000   -0.8250    0.0000 C   0  0  0  0  0  0  0  0  0  0  0  0
  1  2  1  0  0  0  0
  1  3  1  0  0  0  0
  1  4  1  0  0  0  0
  1  5  1  0  0  0  0
M  END
> <ChemID>
100042

> <CAS>
75-65-0

> <Original_SMILES>
CC(C)(C)O

> <preferred_name>
tert-Butyl alcohol

> <dsstox_substance_id>
DTXSID8020204

> <dsstox_compound_id>
DTXCID40204

> <qc_level>
DSSTox_Low

> <Canonical_QSARr>
CC(C)(C)O

> <InChI_Code_QSARr>
InChI=1S/C4H10O/c1-4(2,3)5/h5H,1-3H3

> <InChI Key_QSARr>
DKGAVHZHDRPRBM-UHFFFAOYSA-N

> <Salt_Solvent>


> <Salt_Solvent_ID>
0

> <MPID>
97974

> <LogBCF>
0.7

> <Tr_1_Tst_0>
1

$$$$
100043
  Mrv171c012241911322D          

  5  4  0  0  0  0            999 V2000
    0.8250   -1.6500    0.0000 F   0  0  0  0  0  0  0  0  0  0  0  0
    0.8250   -0.8250    0.0000 C   0  0  0  0  0  0  0  0  0  0  0  0
    0.8250    0.0000    0.0000 Cl  0  0  0  0  0  0  0  0  0  0  0  0
    1.6500   -0.8250    0.0000 Cl  0  0  0  0  0  0  0  0  0  0  0  0
    0.0000   -0.8250    0.0000 F   0  0  0  0  0  0  0  0  0  0  0  0
  1  2  1  0  0  0  0
  2  3  1  0  0  0  0
  2  4  1  0  0  0  0
  2  5  1  0  0  0  0
M  END
> <ChemID>
100043

> <CAS>
75-71-8

> <Original_SMILES>
FC(F)(Cl)Cl

> <preferred_name>
Dichlorodifluoromethane

> <dsstox_substance_id>
DTXSID6020436

> <dsstox_compound_id>
DTXCID80436

> <qc_level>
DSSTox_Low

> <Canonical_QSARr>
FC(F)(Cl)Cl

> <InChI_Code_QSARr>
InChI=1S/CCl2F2/c2-1(3,4)5

> <InChI Key_QSARr>
PXBRQCKWGAHEHS-UHFFFAOYSA-N

> <Salt_Solvent>


> <Salt_Solvent_ID>
0

> <MPID>
97975

> <LogBCF>
0.79

> <Tr_1_Tst_0>
0

$$$$
100044
  Mrv171c012241911322D          

  7  6  0  0  0  0            999 V2000
    1.1228   -1.5286    0.0000 C   0  0  0  0  0  0  0  0  0  0  0  0
    0.4084   -1.9411    0.0000 O   0  0  0  0  0  0  0  0  0  0  0  0
    1.8373   -1.9411    0.0000 O   0  0  0  0  0  0  0  0  0  0  0  0
    1.1228   -0.7036    0.0000 C   0  0  0  0  0  0  0  0  0  0  0  0
    1.1228    0.1214    0.0000 C   0  0  0  0  0  0  0  0  0  0  0  0
    1.9478   -0.7036    0.0000 C   0  0  0  0  0  0  0  0  0  0  0  0
    0.2978   -0.7036    0.0000 C   0  0  0  0  0  0  0  0  0  0  0  0
  1  2  2  0  0  0  0
  1  3  1  0  0  0  0
  1  4  1  0  0  0  0
  4  5  1  0  0  0  0
  4  6  1  0  0  0  0
  4  7  1  0  0  0  0
M  END
> <ChemID>
100044

> <CAS>
75-98-9

> <Original_SMILES>
CC(C)(C)C(O)=O

> <preferred_name>
2,2-Dimethylpropanoic acid

> <dsstox_substance_id>
DTXSID8026432

> <dsstox_compound_id>
DTXCID106432

> <qc_level>
DSSTox_Low

> <Canonical_QSARr>
CC(C)(C)C(O)=O

> <InChI_Code_QSARr>
InChI=1S/C5H10O2/c1-5(2,3)4(6)7/h1-3H3,(H,6,7)

> <InChI Key_QSARr>
IUGYQRQAERSCNH-UHFFFAOYSA-N

> <Salt_Solvent>


> <Salt_Solvent_ID>
0

> <MPID>
97976

> <LogBCF>
0.36

> <Tr_1_Tst_0>
1

$$$$
100045
  Mrv171c012241911322D          

  7  6  0  0  0  0            999 V2000
    1.4143    0.1367    0.0000 Cl  0  0  0  0  0  0  0  0  0  0  0  0
    1.0018   -0.5777    0.0000 C   0  0  0  0  0  0  0  0  0  0  0  0
    0.2873   -0.1652    0.0000 Cl  0  0  0  0  0  0  0  0  0  0  0  0
    1.7163   -0.9902    0.0000 Cl  0  0  0  0  0  0  0  0  0  0  0  0
    0.5893   -1.2922    0.0000 C   0  0  0  0  0  0  0  0  0  0  0  0
    1.0018   -2.0067    0.0000 O   0  0  0  0  0  0  0  0  0  0  0  0
   -0.2357   -1.2922    0.0000 O   0  0  0  0  0  0  0  0  0  0  0  0
  1  2  1  0  0  0  0
  2  3  1  0  0  0  0
  2  4  1  0  0  0  0
  2  5  1  0  0  0  0
  5  6  1  0  0  0  0
  5  7  2  0  0  0  0
M  END
> <ChemID>
100045

> <CAS>
76-03-9

> <Original_SMILES>
OC(=O)C(Cl)(Cl)Cl

> <preferred_name>
Trichloroacetic acid

> <dsstox_substance_id>
DTXSID1021378

> <dsstox_compound_id>
DTXCID001378

> <qc_level>
DSSTox_High

> <Canonical_QSARr>
OC(=O)C(Cl)(Cl)Cl

> <InChI_Code_QSARr>
InChI=1S/C2HCl3O2/c3-2(4,5)1(6)7/h(H,6,7)

> <InChI Key_QSARr>
YNJBWRMUSHSURL-UHFFFAOYSA-N

> <Salt_Solvent>


> <Salt_Solvent_ID>
0

> <MPID>
97977

> <LogBCF>
0.23

> <Tr_1_Tst_0>
1

$$$$
100046
  Mrv171c012241911322D          

  8  7  0  0  0  0            999 V2000
    0.8232   -2.4725    0.0000 F   0  0  0  0  0  0  0  0  0  0  0  0
    0.8232   -1.6475    0.0000 C   0  0  0  0  0  0  0  0  0  0  0  0
    1.6482   -1.6475    0.0000 Cl  0  0  0  0  0  0  0  0  0  0  0  0
   -0.0018   -1.6475    0.0000 Cl  0  0  0  0  0  0  0  0  0  0  0  0
    0.8232   -0.8225    0.0000 C   0  0  0  0  0  0  0  0  0  0  0  0
    0.8232    0.0025    0.0000 Cl  0  0  0  0  0  0  0  0  0  0  0  0
    1.6482   -0.8225    0.0000 Cl  0  0  0  0  0  0  0  0  0  0  0  0
   -0.0018   -0.8225    0.0000 F   0  0  0  0  0  0  0  0  0  0  0  0
  1  2  1  0  0  0  0
  2  3  1  0  0  0  0
  2  4  1  0  0  0  0
  2  5  1  0  0  0  0
  5  6  1  0  0  0  0
  5  7  1  0  0  0  0
  5  8  1  0  0  0  0
M  END
> <ChemID>
100046

> <CAS>
76-12-0

> <Original_SMILES>
FC(Cl)(Cl)C(F)(Cl)Cl

> <preferred_name>
1,2-Difluoro-1,1,2,2-tetrachloroethane

> <dsstox_substance_id>
DTXSID5026091

> <dsstox_compound_id>
DTXCID706091

> <qc_level>
DSSTox_Low

> <Canonical_QSARr>
FC(Cl)(Cl)C(F)(Cl)Cl

> <InChI_Code_QSARr>
InChI=1S/C2Cl4F2/c3-1(4,7)2(5,6)8

> <InChI Key_QSARr>
UGCSPKPEHQEOSR-UHFFFAOYSA-N

> <Salt_Solvent>


> <Salt_Solvent_ID>
0

> <MPID>
97978

> <LogBCF>
1.77

> <Tr_1_Tst_0>
1

$$$$
100047
  Mrv171c012241911322D          

  8  7  0  0  0  0            999 V2000
    0.8232   -1.6475    0.0000 C   0  0  0  0  0  0  0  0  0  0  0  0
    0.8232   -2.4725    0.0000 Cl  0  0  0  0  0  0  0  0  0  0  0  0
    1.6482   -1.6475    0.0000 F   0  0  0  0  0  0  0  0  0  0  0  0
   -0.0018   -1.6475    0.0000 F   0  0  0  0  0  0  0  0  0  0  0  0
    0.8232   -0.8225    0.0000 C   0  0  0  0  0  0  0  0  0  0  0  0
    0.8232    0.0025    0.0000 Cl  0  0  0  0  0  0  0  0  0  0  0  0
    1.6482   -0.8225    0.0000 Cl  0  0  0  0  0  0  0  0  0  0  0  0
   -0.0018   -0.8225    0.0000 F   0  0  0  0  0  0  0  0  0  0  0  0
  1  2  1  0  0  0  0
  1  3  1  0  0  0  0
  1  4  1  0  0  0  0
  1  5  1  0  0  0  0
  5  6  1  0  0  0  0
  5  7  1  0  0  0  0
  5  8  1  0  0  0  0
M  END
> <ChemID>
100047

> <CAS>
76-13-1

> <Original_SMILES>
FC(F)(Cl)C(F)(Cl)Cl

> <preferred_name>
1,1,2-Trichloro-1,2,2-trifluoroethane

> <dsstox_substance_id>
DTXSID6021377

> <dsstox_compound_id>
DTXCID601377

> <qc_level>
DSSTox_Low

> <Canonical_QSARr>
FC(F)(Cl)C(F)(Cl)Cl

> <InChI_Code_QSARr>
InChI=1S/C2Cl3F3/c3-1(4,6)2(5,7)8

> <InChI Key_QSARr>
AJDIZQLSFPQPEY-UHFFFAOYSA-N

> <Salt_Solvent>


> <Salt_Solvent_ID>
0

> <MPID>
97979

> <LogBCF>
1.7

> <Tr_1_Tst_0>
0

$$$$
100048
  Mrv171c012241911322D          

 17 19  0  0  0  0            999 V2000
    1.4056   -1.2261    0.0000 C   0  0  0  0  0  0  0  0  0  0  0  0
    1.3880   -0.3679    0.0000 Cl  0  0  0  0  0  0  0  0  0  0  0  0
    2.0376   -1.5561    0.0000 C   0  0  0  0  0  0  0  0  0  0  0  0
    2.9047   -1.3837    0.0000 C   0  0  0  0  0  0  0  0  0  0  0  0
    3.1554   -0.5320    0.0000 Cl  0  0  0  0  0  0  0  0  0  0  0  0
    3.3896   -2.0511    0.0000 C   0  0  0  0  0  0  0  0  0  0  0  0
    2.9047   -2.7186    0.0000 C   0  0  0  0  0  0  0  0  0  0  0  0
    2.0376   -2.5461    0.0000 C   0  0  0  0  0  0  0  0  0  0  0  0
    1.4056   -2.8761    0.0000 C   0  0  0  0  0  0  0  0  0  0  0  0
    0.6911   -2.4636    0.0000 C   0  0  0  0  0  0  0  0  0  0  0  0
   -0.0477   -2.8895    0.0000 Cl  0  0  0  0  0  0  0  0  0  0  0  0
    0.6911   -1.6386    0.0000 C   0  0  0  0  0  0  0  0  0  0  0  0
   -0.0476   -1.2129    0.0000 Cl  0  0  0  0  0  0  0  0  0  0  0  0
    1.3926   -3.7347    0.0000 Cl  0  0  0  0  0  0  0  0  0  0  0  0
    1.6118   -2.0511    0.0000 C   0  0  0  0  0  0  0  0  0  0  0  0
    2.5556   -1.7741    0.0000 Cl  0  0  0  0  0  0  0  0  0  0  0  0
    2.5548   -2.3315    0.0000 Cl  0  0  0  0  0  0  0  0  0  0  0  0
  1  2  1  0  0  0  0
  3  1  1  0  0  0  0
  3  4  1  0  0  0  0
  4  5  1  0  0  0  0
  4  6  1  0  0  0  0
  6  7  2  0  0  0  0
  7  8  1  0  0  0  0
  8  3  1  0  0  0  0
  9  8  1  0  0  0  0
  9 10  1  0  0  0  0
 10 11  1  0  0  0  0
 10 12  2  0  0  0  0
 12  1  1  0  0  0  0
 12 13  1  0  0  0  0
  9 14  1  0  0  0  0
 15  9  1  0  0  0  0
  1 15  1  0  0  0  0
 15 16  1  0  0  0  0
 15 17  1  0  0  0  0
M  END
> <ChemID>
100048

> <CAS>
76-44-8

> <Original_SMILES>
ClC1(Cl)C2(Cl)C3C=CC(Cl)C3C1(Cl)C(Cl)=C2Cl

> <preferred_name>
Heptachlor

> <dsstox_substance_id>
DTXSID3020679

> <dsstox_compound_id>
DTXCID70679

> <qc_level>
DSSTox_Low

> <Canonical_QSARr>
ClC1(Cl)C2(Cl)C3C=CC(Cl)C3C1(Cl)C(Cl)=C2Cl

> <InChI_Code_QSARr>
InChI=1S/C10H5Cl7/c11-4-2-1-3-5(4)9(15)7(13)6(12)8(3,14)10(9,16)17/h1-5H

> <InChI Key_QSARr>
FRCCEHPWNOQAEU-UHFFFAOYSA-N

> <Salt_Solvent>


> <Salt_Solvent_ID>
0

> <MPID>
97980

> <LogBCF>
3.94

> <Tr_1_Tst_0>
1

$$$$
100049
  Mrv171c012241911322D          

 20 22  0  0  0  0            999 V2000
    1.6832   -2.5143    0.0000 C   0  0  0  0  0  0  0  0  0  0  0  0
    0.8582   -2.5143    0.0000 Cl  0  0  0  0  0  0  0  0  0  0  0  0
    1.6832   -3.3393    0.0000 C   0  0  0  0  0  0  0  0  0  0  0  0
    0.9688   -3.7518    0.0000 C   0  0  0  0  0  0  0  0  0  0  0  0
    0.9688   -4.5768    0.0000 C   0  0  0  0  0  0  0  0  0  0  0  0
    1.6832   -4.9893    0.0000 C   0  0  0  0  0  0  0  0  0  0  0  0
    2.3977   -4.5768    0.0000 C   0  0  0  0  0  0  0  0  0  0  0  0
    2.3977   -3.7518    0.0000 C   0  0  0  0  0  0  0  0  0  0  0  0
    1.6832   -1.6893    0.0000 C   0  0  0  0  0  0  0  0  0  0  0  0
    2.3977   -1.2768    0.0000 C   0  0  0  0  0  0  0  0  0  0  0  0
    2.3977   -0.4518    0.0000 C   0  0  0  0  0  0  0  0  0  0  0  0
    1.6832   -0.0393    0.0000 C   0  0  0  0  0  0  0  0  0  0  0  0
    0.9688   -0.4518    0.0000 C   0  0  0  0  0  0  0  0  0  0  0  0
    0.9688   -1.2768    0.0000 C   0  0  0  0  0  0  0  0  0  0  0  0
    2.5082   -2.5143    0.0000 C   0  0  0  0  0  0  0  0  0  0  0  0
    2.9207   -3.2287    0.0000 C   0  0  0  0  0  0  0  0  0  0  0  0
    3.7457   -3.2287    0.0000 C   0  0  0  0  0  0  0  0  0  0  0  0
    4.1582   -2.5143    0.0000 C   0  0  0  0  0  0  0  0  0  0  0  0
    3.7457   -1.7998    0.0000 C   0  0  0  0  0  0  0  0  0  0  0  0
    2.9207   -1.7998    0.0000 C   0  0  0  0  0  0  0  0  0  0  0  0
  1  2  1  0  0  0  0
  1  3  1  0  0  0  0
  4  3  2  0  0  0  0
  5  4  1  0  0  0  0
  6  5  2  0  0  0  0
  7  6  1  0  0  0  0
  8  7  2  0  0  0  0
  3  8  1  0  0  0  0
  1  9  1  0  0  0  0
 10  9  2  0  0  0  0
 11 10  1  0  0  0  0
 12 11  2  0  0  0  0
 13 12  1  0  0  0  0
 14 13  2  0  0  0  0
  9 14  1  0  0  0  0
  1 15  1  0  0  0  0
 16 15  2  0  0  0  0
 17 16  1  0  0  0  0
 18 17  2  0  0  0  0
 19 18  1  0  0  0  0
 20 19  2  0  0  0  0
 15 20  1  0  0  0  0
M  END
> <ChemID>
100049

> <CAS>
76-83-5

> <Original_SMILES>
ClC(c1ccccc1)(c1ccccc1)c1ccccc1

> <preferred_name>
Trityl chloride

> <dsstox_substance_id>
DTXSID3052511

> <dsstox_compound_id>
DTXCID7031084

> <qc_level>
DSSTox_Low

> <Canonical_QSARr>
ClC(C1C=CC=CC=1)(C1C=CC=CC=1)C1C=CC=CC=1

> <InChI_Code_QSARr>
InChI=1S/C19H15Cl/c20-19(16-10-4-1-5-11-16,17-12-6-2-7-13-17)18-14-8-3-9-15-18/h1-15H

> <InChI Key_QSARr>
JBWKIWSBJXDJDT-UHFFFAOYSA-N

> <Salt_Solvent>


> <Salt_Solvent_ID>
0

> <MPID>
97981

> <LogBCF>
2.63

> <Tr_1_Tst_0>
1

$$$$
100050
  Mrv171c012241911322D          

 17 18  0  0  0  0            999 V2000
    1.0056   -1.2375    0.0000 C   0  0  0  0  0  0  0  0  0  0  0  0
    1.8306   -1.2375    0.0000 O   0  0  0  0  0  0  0  0  0  0  0  0
    0.1806   -1.2375    0.0000 C   0  0  0  0  0  0  0  0  0  0  0  0
   -0.2319   -0.5230    0.0000 O   0  0  0  0  0  0  0  0  0  0  0  0
   -0.2319   -1.9520    0.0000 O   0  0  0  0  0  0  0  0  0  0  0  0
    1.0056   -2.0625    0.0000 C   0  0  0  0  0  0  0  0  0  0  0  0
    0.2912   -2.4750    0.0000 C   0  0  0  0  0  0  0  0  0  0  0  0
    0.2912   -3.3000    0.0000 C   0  0  0  0  0  0  0  0  0  0  0  0
    1.0056   -3.7125    0.0000 C   0  0  0  0  0  0  0  0  0  0  0  0
    1.7201   -3.3000    0.0000 C   0  0  0  0  0  0  0  0  0  0  0  0
    1.7201   -2.4750    0.0000 C   0  0  0  0  0  0  0  0  0  0  0  0
    1.0056   -0.4125    0.0000 C   0  0  0  0  0  0  0  0  0  0  0  0
    1.7201    0.0000    0.0000 C   0  0  0  0  0  0  0  0  0  0  0  0
    1.7201    0.8250    0.0000 C   0  0  0  0  0  0  0  0  0  0  0  0
    1.0056    1.2375    0.0000 C   0  0  0  0  0  0  0  0  0  0  0  0
    0.2912    0.8250    0.0000 C   0  0  0  0  0  0  0  0  0  0  0  0
    0.2912    0.0000    0.0000 C   0  0  0  0  0  0  0  0  0  0  0  0
  1  2  1  0  0  0  0
  1  3  1  0  0  0  0
  3  4  1  0  0  0  0
  3  5  2  0  0  0  0
  1  6  1  0  0  0  0
  7  6  1  0  0  0  0
  8  7  2  0  0  0  0
  9  8  1  0  0  0  0
 10  9  2  0  0  0  0
 11 10  1  0  0  0  0
  6 11  2  0  0  0  0
  1 12  1  0  0  0  0
 13 12  1  0  0  0  0
 14 13  2  0  0  0  0
 15 14  1  0  0  0  0
 16 15  2  0  0  0  0
 17 16  1  0  0  0  0
 12 17  2  0  0  0  0
M  END
> <ChemID>
100050

> <CAS>
76-93-7

> <Original_SMILES>
OC(=O)C(O)(c1ccccc1)c1ccccc1

> <preferred_name>
Benzilic acid

> <dsstox_substance_id>
DTXSID0058805

> <dsstox_compound_id>
DTXCID9047837

> <qc_level>
Public_High

> <Canonical_QSARr>
OC(=O)C(O)(C1C=CC=CC=1)C1C=CC=CC=1

> <InChI_Code_QSARr>
InChI=1S/C14H12O3/c15-13(16)14(17,11-7-3-1-4-8-11)12-9-5-2-6-10-12/h1-10,17H,(H,15,16)

> <InChI Key_QSARr>
UKXSKSHDVLQNKG-UHFFFAOYSA-N

> <Salt_Solvent>


> <Salt_Solvent_ID>
0

> <MPID>
97982

> <LogBCF>
0.26

> <Tr_1_Tst_0>
1

$$$$
100051
  Mrv171c012241911322D          

 10 12  0  0  0  0            999 V2000
    1.8287   -0.9523    0.0000 C   0  0  0  0  0  0  0  0  0  0  0  0
    2.6133   -0.6974    0.0000 C   0  0  0  0  0  0  0  0  0  0  0  0
    3.0982   -1.3648    0.0000 C   0  0  0  0  0  0  0  0  0  0  0  0
    2.6133   -2.0323    0.0000 C   0  0  0  0  0  0  0  0  0  0  0  0
    1.8287   -1.7773    0.0000 C   0  0  0  0  0  0  0  0  0  0  0  0
    1.1142   -2.1898    0.0000 C   0  0  0  0  0  0  0  0  0  0  0  0
    0.3997   -1.7773    0.0000 C   0  0  0  0  0  0  0  0  0  0  0  0
    0.3997   -0.9523    0.0000 C   0  0  0  0  0  0  0  0  0  0  0  0
    1.1142   -0.5398    0.0000 C   0  0  0  0  0  0  0  0  0  0  0  0
    1.3205   -1.3648    0.0000 C   0  0  0  0  0  0  0  0  0  0  0  0
  2  1  1  0  0  0  0
  3  2  2  0  0  0  0
  4  3  1  0  0  0  0
  5  4  1  0  0  0  0
  5  1  1  0  0  0  0
  6  5  1  0  0  0  0
  6  7  1  0  0  0  0
  7  8  2  0  0  0  0
  8  9  1  0  0  0  0
  1  9  1  0  0  0  0
  9 10  1  0  0  0  0
 10  6  1  0  0  0  0
M  END
> <ChemID>
100051

> <CAS>
77-73-6

> <Original_SMILES>
C1C=CC2C3CC(C=C3)C21

> <preferred_name>
Dicyclopentadiene

> <dsstox_substance_id>
DTXSID5025023

> <dsstox_compound_id>
DTXCID305023

> <qc_level>
DSSTox_Low

> <Canonical_QSARr>
C1C=CC2C3CC(C=C3)C21

> <InChI_Code_QSARr>
InChI=1S/C10H12/c1-2-9-7-4-5-8(6-7)10(9)3-1/h1-2,4-5,7-10H,3,6H2

> <InChI Key_QSARr>
HECLRDQVFMWTQS-UHFFFAOYSA-N

> <Salt_Solvent>


> <Salt_Solvent_ID>
0

> <MPID>
97983

> <LogBCF>
2.34

> <Tr_1_Tst_0>
0

$$$$
100053
  Mrv171c012241911322D          

 11 10  0  0  0  0            999 V2000
    1.8128   -0.5177    0.0000 O   0  0  0  0  0  0  0  0  0  0  0  0
    2.2253   -1.2322    0.0000 P   0  0  0  0  0  0  0  0  0  0  0  0
    1.5109   -1.6447    0.0000 O   0  0  0  0  0  0  0  0  0  0  0  0
    0.7964   -1.2322    0.0000 C   0  0  0  0  0  0  0  0  0  0  0  0
    0.0819   -1.6447    0.0000 C   0  0  0  0  0  0  0  0  0  0  0  0
    2.9398   -0.8197    0.0000 O   0  0  0  0  0  0  0  0  0  0  0  0
    3.6543   -1.2322    0.0000 C   0  0  0  0  0  0  0  0  0  0  0  0
    4.3688   -0.8197    0.0000 C   0  0  0  0  0  0  0  0  0  0  0  0
    2.6378   -1.9466    0.0000 O   0  0  0  0  0  0  0  0  0  0  0  0
    2.2253   -2.6611    0.0000 C   0  0  0  0  0  0  0  0  0  0  0  0
    1.4003   -2.6611    0.0000 C   0  0  0  0  0  0  0  0  0  0  0  0
  1  2  2  0  0  0  0
  2  3  1  0  0  0  0
  3  4  1  0  0  0  0
  4  5  1  0  0  0  0
  2  6  1  0  0  0  0
  6  7  1  0  0  0  0
  7  8  1  0  0  0  0
  2  9  1  0  0  0  0
  9 10  1  0  0  0  0
 10 11  1  0  0  0  0
M  END
> <ChemID>
100053

> <CAS>
78-40-0

> <Original_SMILES>
CCOP(=O)(OCC)OCC

> <preferred_name>
Triethyl phosphate

> <dsstox_substance_id>
DTXSID8026228

> <dsstox_compound_id>
DTXCID806228

> <qc_level>
DSSTox_Low

> <Canonical_QSARr>
CCOP(=O)(OCC)OCC

> <InChI_Code_QSARr>
InChI=1S/C6H15O4P/c1-4-8-11(7,9-5-2)10-6-3/h4-6H2,1-3H3

> <InChI Key_QSARr>
DQWPFSLDHJDLRL-UHFFFAOYSA-N

> <Salt_Solvent>


> <Salt_Solvent_ID>
0

> <MPID>
97984

> <LogBCF>
0.11

> <Tr_1_Tst_0>
1

$$$$
100054
  Mrv171c012241911322D          

 29 28  0  0  0  0            999 V2000
    4.1550   -6.2363    0.0000 O   0  0  0  0  0  0  0  0  0  0  0  0
    4.1550   -5.4113    0.0000 P   0  0  0  0  0  0  0  0  0  0  0  0
    4.9800   -5.4113    0.0000 O   0  0  0  0  0  0  0  0  0  0  0  0
    5.3925   -6.1258    0.0000 C   0  0  0  0  0  0  0  0  0  0  0  0
    6.2175   -6.1258    0.0000 C   0  0  0  0  0  0  0  0  0  0  0  0
    6.6300   -5.4113    0.0000 C   0  0  0  0  0  0  0  0  0  0  0  0
    7.4550   -5.4113    0.0000 C   0  0  0  0  0  0  0  0  0  0  0  0
    6.6300   -6.8402    0.0000 C   0  0  0  0  0  0  0  0  0  0  0  0
    7.4550   -6.8402    0.0000 C   0  0  0  0  0  0  0  0  0  0  0  0
    7.8675   -7.5547    0.0000 C   0  0  0  0  0  0  0  0  0  0  0  0
    8.6925   -7.5547    0.0000 C   0  0  0  0  0  0  0  0  0  0  0  0
    3.3300   -5.4113    0.0000 O   0  0  0  0  0  0  0  0  0  0  0  0
    2.9175   -4.6968    0.0000 C   0  0  0  0  0  0  0  0  0  0  0  0
    2.0925   -4.6968    0.0000 C   0  0  0  0  0  0  0  0  0  0  0  0
    1.6800   -5.4113    0.0000 C   0  0  0  0  0  0  0  0  0  0  0  0
    0.8550   -5.4113    0.0000 C   0  0  0  0  0  0  0  0  0  0  0  0
    1.6800   -3.9824    0.0000 C   0  0  0  0  0  0  0  0  0  0  0  0
    0.8550   -3.9824    0.0000 C   0  0  0  0  0  0  0  0  0  0  0  0
    0.4425   -3.2679    0.0000 C   0  0  0  0  0  0  0  0  0  0  0  0
   -0.3825   -3.2679    0.0000 C   0  0  0  0  0  0  0  0  0  0  0  0
    4.1550   -4.5863    0.0000 O   0  0  0  0  0  0  0  0  0  0  0  0
    3.4405   -4.1738    0.0000 C   0  0  0  0  0  0  0  0  0  0  0  0
    3.4405   -3.3488    0.0000 C   0  0  0  0  0  0  0  0  0  0  0  0
    2.7260   -2.9363    0.0000 C   0  0  0  0  0  0  0  0  0  0  0  0
    2.0115   -3.3488    0.0000 C   0  0  0  0  0  0  0  0  0  0  0  0
    4.1550   -2.9363    0.0000 C   0  0  0  0  0  0  0  0  0  0  0  0
    4.8694   -3.3488    0.0000 C   0  0  0  0  0  0  0  0  0  0  0  0
    5.5839   -2.9363    0.0000 C   0  0  0  0  0  0  0  0  0  0  0  0
    6.2984   -3.3488    0.0000 C   0  0  0  0  0  0  0  0  0  0  0  0
  1  2  2  0  0  0  0
  2  3  1  0  0  0  0
  3  4  1  0  0  0  0
  4  5  1  0  0  0  0
  5  6  1  0  0  0  0
  6  7  1  0  0  0  0
  5  8  1  0  0  0  0
  8  9  1  0  0  0  0
  9 10  1  0  0  0  0
 10 11  1  0  0  0  0
  2 12  1  0  0  0  0
 12 13  1  0  0  0  0
 13 14  1  0  0  0  0
 14 15  1  0  0  0  0
 15 16  1  0  0  0  0
 14 17  1  0  0  0  0
 17 18  1  0  0  0  0
 18 19  1  0  0  0  0
 19 20  1  0  0  0  0
  2 21  1  0  0  0  0
 21 22  1  0  0  0  0
 22 23  1  0  0  0  0
 23 24  1  0  0  0  0
 24 25  1  0  0  0  0
 23 26  1  0  0  0  0
 26 27  1  0  0  0  0
 27 28  1  0  0  0  0
 28 29  1  0  0  0  0
M  END
> <ChemID>
100054

> <CAS>
78-42-2

> <Original_SMILES>
CCCCC(COP(=O)(OCC(CCCC)CC)OCC(CCCC)CC)CC

> <preferred_name>
Tris(2-ethylhexyl) phosphate

> <dsstox_substance_id>
DTXSID0021414

> <dsstox_compound_id>
DTXCID801414

> <qc_level>
DSSTox_Low

> <Canonical_QSARr>
CCCCC(COP(=O)(OCC(CCCC)CC)OCC(CCCC)CC)CC

> <InChI_Code_QSARr>
InChI=1S/C24H51O4P/c1-7-13-16-22(10-4)19-26-29(25,27-20-23(11-5)17-14-8-2)28-21-24(12-6)18-15-9-3/h22-24H,7-21H2,1-6H3

> <InChI Key_QSARr>
GTVWRXDRKAHEAD-UHFFFAOYSA-N

> <Salt_Solvent>


> <Salt_Solvent_ID>
0

> <MPID>
97985

> <LogBCF>
1.7

> <Tr_1_Tst_0>
1

$$$$
100055
  Mrv171c012241911322D          

 26 25  0  0  0  0            999 V2000
    9.3189   -7.8940    0.0000 C   0  0  0  0  0  0  0  0  0  0  0  0
    8.4939   -7.8940    0.0000 C   0  0  0  0  0  0  0  0  0  0  0  0
    8.0814   -7.1795    0.0000 C   0  0  0  0  0  0  0  0  0  0  0  0
    7.2564   -7.1795    0.0000 C   0  0  0  0  0  0  0  0  0  0  0  0
    6.8439   -6.4650    0.0000 O   0  0  0  0  0  0  0  0  0  0  0  0
    6.0189   -6.4650    0.0000 C   0  0  0  0  0  0  0  0  0  0  0  0
    5.6064   -5.7505    0.0000 C   0  0  0  0  0  0  0  0  0  0  0  0
    4.7814   -5.7505    0.0000 O   0  0  0  0  0  0  0  0  0  0  0  0
    4.3689   -5.0361    0.0000 P   0  0  0  0  0  0  0  0  0  0  0  0
    3.9564   -4.3216    0.0000 O   0  0  0  0  0  0  0  0  0  0  0  0
    3.1314   -4.3216    0.0000 C   0  0  0  0  0  0  0  0  0  0  0  0
    2.7189   -3.6071    0.0000 C   0  0  0  0  0  0  0  0  0  0  0  0
    1.8939   -3.6071    0.0000 O   0  0  0  0  0  0  0  0  0  0  0  0
    1.4814   -2.8927    0.0000 C   0  0  0  0  0  0  0  0  0  0  0  0
    0.6564   -2.8927    0.0000 C   0  0  0  0  0  0  0  0  0  0  0  0
    0.2439   -2.1782    0.0000 C   0  0  0  0  0  0  0  0  0  0  0  0
   -0.5811   -2.1782    0.0000 C   0  0  0  0  0  0  0  0  0  0  0  0
    5.0834   -4.6236    0.0000 O   0  0  0  0  0  0  0  0  0  0  0  0
    5.0834   -3.7986    0.0000 C   0  0  0  0  0  0  0  0  0  0  0  0
    5.7978   -3.3861    0.0000 C   0  0  0  0  0  0  0  0  0  0  0  0
    6.5123   -3.7986    0.0000 O   0  0  0  0  0  0  0  0  0  0  0  0
    7.2268   -3.3861    0.0000 C   0  0  0  0  0  0  0  0  0  0  0  0
    7.9412   -3.7986    0.0000 C   0  0  0  0  0  0  0  0  0  0  0  0
    8.6557   -3.3861    0.0000 C   0  0  0  0  0  0  0  0  0  0  0  0
    9.3702   -3.7986    0.0000 C   0  0  0  0  0  0  0  0  0  0  0  0
    3.6544   -5.4486    0.0000 O   0  0  0  0  0  0  0  0  0  0  0  0
  1  2  1  0  0  0  0
  2  3  1  0  0  0  0
  3  4  1  0  0  0  0
  4  5  1  0  0  0  0
  5  6  1  0  0  0  0
  6  7  1  0  0  0  0
  7  8  1  0  0  0  0
  8  9  1  0  0  0  0
  9 10  1  0  0  0  0
 10 11  1  0  0  0  0
 11 12  1  0  0  0  0
 12 13  1  0  0  0  0
 13 14  1  0  0  0  0
 14 15  1  0  0  0  0
 15 16  1  0  0  0  0
 16 17  1  0  0  0  0
  9 18  1  0  0  0  0
 18 19  1  0  0  0  0
 19 20  1  0  0  0  0
 20 21  1  0  0  0  0
 21 22  1  0  0  0  0
 22 23  1  0  0  0  0
 23 24  1  0  0  0  0
 24 25  1  0  0  0  0
  9 26  2  0  0  0  0
M  END
> <ChemID>
100055

> <CAS>
78-51-3

> <Original_SMILES>
CCCCOCCOP(=O)(OCCOCCCC)OCCOCCCC

> <preferred_name>
Tris(2-butoxyethyl) phosphate

> <dsstox_substance_id>
DTXSID5021758

> <dsstox_compound_id>
DTXCID201758

> <qc_level>
DSSTox_Low

> <Canonical_QSARr>
CCCCOCCOP(=O)(OCCOCCCC)OCCOCCCC

> <InChI_Code_QSARr>
InChI=1S/C18H39O7P/c1-4-7-10-20-13-16-23-26(19,24-17-14-21-11-8-5-2)25-18-15-22-12-9-6-3/h4-18H2,1-3H3

> <InChI Key_QSARr>
WTLBZVNBAKMVDP-UHFFFAOYSA-N

> <Salt_Solvent>


> <Salt_Solvent_ID>
0

> <MPID>
97986

> <LogBCF>
0.76

> <Tr_1_Tst_0>
1

$$$$
100056
  Mrv171c012241911322D          

 10 10  0  0  0  0            999 V2000
    0.8878   -0.3833    0.0000 C   0  0  0  0  0  0  0  0  0  0  0  0
    1.4181   -1.0153    0.0000 C   0  0  0  0  0  0  0  0  0  0  0  0
    1.9484   -0.3833    0.0000 C   0  0  0  0  0  0  0  0  0  0  0  0
    0.7037   -1.4278    0.0000 C   0  0  0  0  0  0  0  0  0  0  0  0
    0.7037   -2.2528    0.0000 C   0  0  0  0  0  0  0  0  0  0  0  0
   -0.0108   -2.6653    0.0000 O   0  0  0  0  0  0  0  0  0  0  0  0
    1.4181   -2.6653    0.0000 C   0  0  0  0  0  0  0  0  0  0  0  0
    2.1326   -2.2528    0.0000 C   0  0  0  0  0  0  0  0  0  0  0  0
    2.8471   -2.6653    0.0000 C   0  0  0  0  0  0  0  0  0  0  0  0
    2.1326   -1.4278    0.0000 C   0  0  0  0  0  0  0  0  0  0  0  0
  1  2  1  0  0  0  0
  2  3  1  0  0  0  0
  4  2  1  0  0  0  0
  5  4  1  0  0  0  0
  5  6  2  0  0  0  0
  7  5  1  0  0  0  0
  8  7  2  0  0  0  0
  8  9  1  0  0  0  0
 10  8  1  0  0  0  0
  2 10  1  0  0  0  0
M  END
> <ChemID>
100056

> <CAS>
78-59-1

> <Original_SMILES>
CC1CC(C)(C)CC(=O)C=1

> <preferred_name>
Isophorone

> <dsstox_substance_id>
DTXSID8020759

> <dsstox_compound_id>
DTXCID40759

> <qc_level>
DSSTox_Low

> <Canonical_QSARr>
CC1CC(C)(C)CC(=O)C=1

> <InChI_Code_QSARr>
InChI=1S/C9H14O/c1-7-4-8(10)6-9(2,3)5-7/h4H,5-6H2,1-3H3

> <InChI Key_QSARr>
HJOVHMDZYOCNQW-UHFFFAOYSA-N

> <Salt_Solvent>


> <Salt_Solvent_ID>
0

> <MPID>
97987

> <LogBCF>
0.3

> <Tr_1_Tst_0>
0

$$$$
100057
  Mrv171c012241911322D          

 20 19  0  0  0  0            999 V2000
    4.0401   -0.3977    0.0000 C   0  0  0  0  0  0  0  0  0  0  0  0
    4.0401   -1.2227    0.0000 C   0  0  0  0  0  0  0  0  0  0  0  0
    3.3257   -1.6352    0.0000 C   0  0  0  0  0  0  0  0  0  0  0  0
    3.3257   -2.4602    0.0000 C   0  0  0  0  0  0  0  0  0  0  0  0
    3.3257   -3.2852    0.0000 O   0  0  0  0  0  0  0  0  0  0  0  0
    2.6112   -3.6977    0.0000 O   0  0  0  0  0  0  0  0  0  0  0  0
    2.6112   -4.5227    0.0000 C   0  0  0  0  0  0  0  0  0  0  0  0
    2.6112   -5.3477    0.0000 C   0  0  0  0  0  0  0  0  0  0  0  0
    3.4362   -4.5227    0.0000 C   0  0  0  0  0  0  0  0  0  0  0  0
    1.7862   -4.5227    0.0000 C   0  0  0  0  0  0  0  0  0  0  0  0
    4.1507   -2.4602    0.0000 C   0  0  0  0  0  0  0  0  0  0  0  0
    2.5007   -2.4602    0.0000 C   0  0  0  0  0  0  0  0  0  0  0  0
    4.0401    0.4273    0.0000 O   0  0  0  0  0  0  0  0  0  0  0  0
    4.7546    0.8398    0.0000 O   0  0  0  0  0  0  0  0  0  0  0  0
    4.7546    1.6648    0.0000 C   0  0  0  0  0  0  0  0  0  0  0  0
    4.7546    2.4898    0.0000 C   0  0  0  0  0  0  0  0  0  0  0  0
    5.5796    1.6648    0.0000 C   0  0  0  0  0  0  0  0  0  0  0  0
    3.9296    1.6648    0.0000 C   0  0  0  0  0  0  0  0  0  0  0  0
    4.8651   -0.3977    0.0000 C   0  0  0  0  0  0  0  0  0  0  0  0
    3.2151   -0.3977    0.0000 C   0  0  0  0  0  0  0  0  0  0  0  0
  1  2  1  0  0  0  0
  2  3  1  0  0  0  0
  3  4  1  0  0  0  0
  4  5  1  0  0  0  0
  5  6  1  0  0  0  0
  6  7  1  0  0  0  0
  7  8  1  0  0  0  0
  7  9  1  0  0  0  0
  7 10  1  0  0  0  0
  4 11  1  0  0  0  0
  4 12  1  0  0  0  0
  1 13  1  0  0  0  0
 13 14  1  0  0  0  0
 14 15  1  0  0  0  0
 15 16  1  0  0  0  0
 15 17  1  0  0  0  0
 15 18  1  0  0  0  0
  1 19  1  0  0  0  0
  1 20  1  0  0  0  0
M  END
> <ChemID>
100057

> <CAS>
78-63-7

> <Original_SMILES>
CC(C)(C)OOC(C)(C)CCC(C)(C)OOC(C)(C)C

> <preferred_name>
2,5-Dimethyl-2,5-di-(tert-butylperoxy)hexane

> <dsstox_substance_id>
DTXSID9025110

> <dsstox_compound_id>
DTXCID005110

> <qc_level>
DSSTox_Low

> <Canonical_QSARr>
CC(C)(C)OOC(C)(C)CCC(C)(C)OOC(C)(C)C

> <InChI_Code_QSARr>
InChI=1S/C16H34O4/c1-13(2,3)17-19-15(7,8)11-12-16(9,10)20-18-14(4,5)6/h11-12H2,1-10H3

> <InChI Key_QSARr>
DMWVYCCGCQPJEA-UHFFFAOYSA-N

> <Salt_Solvent>


> <Salt_Solvent_ID>
0

> <MPID>
97988

> <LogBCF>
3.48

> <Tr_1_Tst_0>
1

$$$$
100058
  Mrv171c012241911322D          

  5  4  0  0  0  0            999 V2000
    1.5564   -1.8255    0.0000 C   0  0  0  0  0  0  0  0  0  0  0  0
    1.1439   -1.1110    0.0000 C   0  0  0  0  0  0  0  0  0  0  0  0
    1.5564   -0.3965    0.0000 C   0  0  0  0  0  0  0  0  0  0  0  0
    1.1439    0.3179    0.0000 C   0  0  0  0  0  0  0  0  0  0  0  0
    0.3189   -1.1110    0.0000 C   0  0  0  0  0  0  0  0  0  0  0  0
  1  2  1  0  0  0  0
  2  3  1  0  0  0  0
  3  4  2  0  0  0  0
  2  5  2  0  0  0  0
M  END
> <ChemID>
100058

> <CAS>
78-79-5

> <Original_SMILES>
CC(=C)C=C

> <preferred_name>
Isoprene

> <dsstox_substance_id>
DTXSID2020761

> <dsstox_compound_id>
DTXCID20761

> <qc_level>
DSSTox_Low

> <Canonical_QSARr>
CC(=C)C=C

> <InChI_Code_QSARr>
InChI=1S/C5H8/c1-4-5(2)3/h4H,1-2H2,3H3

> <InChI Key_QSARr>
RRHGJUQNOFWUDK-UHFFFAOYSA-N

> <Salt_Solvent>


> <Salt_Solvent_ID>
0

> <MPID>
97989

> <LogBCF>
1.3

> <Tr_1_Tst_0>
1

$$$$
100059
  Mrv171c012241911322D          

  5  4  0  0  0  0            999 V2000
    2.2164   -0.9681    0.0000 C   0  0  0  0  0  0  0  0  0  0  0  0
    1.3914   -0.9681    0.0000 C   0  0  0  0  0  0  0  0  0  0  0  0
    0.9789   -1.6826    0.0000 Cl  0  0  0  0  0  0  0  0  0  0  0  0
    0.9789   -0.2536    0.0000 C   0  0  0  0  0  0  0  0  0  0  0  0
    0.1539   -0.2536    0.0000 Cl  0  0  0  0  0  0  0  0  0  0  0  0
  1  2  1  0  0  0  0
  2  3  1  0  0  0  0
  2  4  1  0  0  0  0
  4  5  1  0  0  0  0
M  END
> <ChemID>
100059

> <CAS>
78-87-5

> <Original_SMILES>
CC(Cl)CCl

> <preferred_name>
1,2-Dichloropropane

> <dsstox_substance_id>
DTXSID0020448

> <dsstox_compound_id>
DTXCID60448

> <qc_level>
DSSTox_Low

> <Canonical_QSARr>
CC(Cl)CCl

> <InChI_Code_QSARr>
InChI=1S/C3H6Cl2/c1-3(5)2-4/h3H,2H2,1H3

> <InChI Key_QSARr>
KNKRKFALVUDBJE-UHFFFAOYSA-N

> <Salt_Solvent>


> <Salt_Solvent_ID>
0

> <MPID>
97990

> <LogBCF>
0.85

> <Tr_1_Tst_0>
1

$$$$
100060
  Mrv171c012241911322D          

  5  4  0  0  0  0            999 V2000
    2.2148   -0.9669    0.0000 Cl  0  0  0  0  0  0  0  0  0  0  0  0
    1.3898   -0.9669    0.0000 C   0  0  0  0  0  0  0  0  0  0  0  0
    0.9773   -1.6814    0.0000 Cl  0  0  0  0  0  0  0  0  0  0  0  0
    0.9773   -0.2525    0.0000 C   0  0  0  0  0  0  0  0  0  0  0  0
    0.1523   -0.2525    0.0000 Cl  0  0  0  0  0  0  0  0  0  0  0  0
  1  2  1  0  0  0  0
  2  3  1  0  0  0  0
  2  4  1  0  0  0  0
  4  5  1  0  0  0  0
M  END
> <ChemID>
100060

> <CAS>
79-00-5

> <Original_SMILES>
ClCC(Cl)Cl

> <preferred_name>
1,1,2-Trichloroethane

> <dsstox_substance_id>
DTXSID5021380

> <dsstox_compound_id>
DTXCID101380

> <qc_level>
DSSTox_Low

> <Canonical_QSARr>
ClCC(Cl)Cl

> <InChI_Code_QSARr>
InChI=1S/C2H3Cl3/c3-1-2(4)5/h2H,1H2

> <InChI Key_QSARr>
UBOXGVDOUJQMTN-UHFFFAOYSA-N

> <Salt_Solvent>


> <Salt_Solvent_ID>
0

> <MPID>
97991

> <LogBCF>
0.7

> <Tr_1_Tst_0>
0

$$$$
100061
  Mrv171c012241911322D          

  5  4  0  0  0  0            999 V2000
    1.8023    0.0333    0.0000 Cl  0  0  0  0  0  0  0  0  0  0  0  0
    1.3898   -0.6812    0.0000 C   0  0  0  0  0  0  0  0  0  0  0  0
    1.8023   -1.3956    0.0000 Cl  0  0  0  0  0  0  0  0  0  0  0  0
    0.5648   -0.6812    0.0000 C   0  0  0  0  0  0  0  0  0  0  0  0
    0.1523   -1.3956    0.0000 Cl  0  0  0  0  0  0  0  0  0  0  0  0
  1  2  1  0  0  0  0
  2  3  1  0  0  0  0
  2  4  2  0  0  0  0
  4  5  1  0  0  0  0
M  END
> <ChemID>
100061

> <CAS>
79-01-6

> <Original_SMILES>
ClC=C(Cl)Cl

> <preferred_name>
Trichloroethylene

> <dsstox_substance_id>
DTXSID0021383

> <dsstox_compound_id>
DTXCID901382

> <qc_level>
DSSTox_Low

> <Canonical_QSARr>
ClC=C(Cl)Cl

> <InChI_Code_QSARr>
InChI=1S/C2HCl3/c3-1-2(4)5/h1H

> <InChI Key_QSARr>
XSTXAVWGXDQKEL-UHFFFAOYSA-N

> <Salt_Solvent>


> <Salt_Solvent_ID>
0

> <MPID>
97992

> <LogBCF>
1.2

> <Tr_1_Tst_0>
1

$$$$
100062
  Mrv171c012241911322D          

  6  5  0  0  0  0            999 V2000
    0.8241   -1.4283    0.0000 C   0  0  0  0  0  0  0  0  0  0  0  0
    1.2366   -0.7138    0.0000 C   0  0  0  0  0  0  0  0  0  0  0  0
    0.8241    0.0007    0.0000 Br  0  0  0  0  0  0  0  0  0  0  0  0
    2.0616   -0.7138    0.0000 Br  0  0  0  0  0  0  0  0  0  0  0  0
    1.2366   -2.1427    0.0000 Br  0  0  0  0  0  0  0  0  0  0  0  0
   -0.0009   -1.4283    0.0000 Br  0  0  0  0  0  0  0  0  0  0  0  0
  1  2  1  0  0  0  0
  2  3  1  0  0  0  0
  2  4  1  0  0  0  0
  1  5  1  0  0  0  0
  1  6  1  0  0  0  0
M  END
> <ChemID>
100062

> <CAS>
79-27-6

> <Original_SMILES>
BrC(Br)C(Br)Br

> <preferred_name>
1,1,2,2-Tetrabromoethane

> <dsstox_substance_id>
DTXSID1026083

> <dsstox_compound_id>
DTXCID206083

> <qc_level>
DSSTox_Low

> <Canonical_QSARr>
BrC(Br)C(Br)Br

> <InChI_Code_QSARr>
InChI=1S/C2H2Br4/c3-1(4)2(5)6/h1-2H

> <InChI Key_QSARr>
QXSZNDIIPUOQMB-UHFFFAOYSA-N

> <Salt_Solvent>


> <Salt_Solvent_ID>
0

> <MPID>
97993

> <LogBCF>
0.74

> <Tr_1_Tst_0>
1

$$$$
100063
  Mrv171c012241911322D          

  6  5  0  0  0  0            999 V2000
    0.8241    0.0007    0.0000 Cl  0  0  0  0  0  0  0  0  0  0  0  0
    1.2366   -0.7138    0.0000 C   0  0  0  0  0  0  0  0  0  0  0  0
    2.0616   -0.7138    0.0000 Cl  0  0  0  0  0  0  0  0  0  0  0  0
    0.8241   -1.4283    0.0000 C   0  0  0  0  0  0  0  0  0  0  0  0
    1.2366   -2.1427    0.0000 Cl  0  0  0  0  0  0  0  0  0  0  0  0
   -0.0009   -1.4283    0.0000 Cl  0  0  0  0  0  0  0  0  0  0  0  0
  1  2  1  0  0  0  0
  2  3  1  0  0  0  0
  2  4  1  0  0  0  0
  4  5  1  0  0  0  0
  4  6  1  0  0  0  0
M  END
> <ChemID>
100063

> <CAS>
79-34-5

> <Original_SMILES>
ClC(Cl)C(Cl)Cl

> <preferred_name>
1,1,2,2-Tetrachloroethane

> <dsstox_substance_id>
DTXSID7021318

> <dsstox_compound_id>
DTXCID201318

> <qc_level>
DSSTox_Low

> <Canonical_QSARr>
ClC(Cl)C(Cl)Cl

> <InChI_Code_QSARr>
InChI=1S/C2H2Cl4/c3-1(4)2(5)6/h1-2H

> <InChI Key_QSARr>
QPFMBZIOSGYJDE-UHFFFAOYSA-N

> <Salt_Solvent>


> <Salt_Solvent_ID>
0

> <MPID>
97994

> <LogBCF>
1.11

> <Tr_1_Tst_0>
1

$$$$
100064
  Mrv171c012241911322D          

  6  5  0  0  0  0            999 V2000
    0.8245    0.0003    0.0000 C   0  0  0  0  0  0  0  0  0  0  0  0
    1.2370   -0.7141    0.0000 C   0  0  0  0  0  0  0  0  0  0  0  0
    2.0620   -0.7141    0.0000 C   0  0  0  0  0  0  0  0  0  0  0  0
    0.8245   -1.4286    0.0000 N   0  3  0  0  0  0  0  0  0  0  0  0
    1.2370   -2.1431    0.0000 O   0  5  0  0  0  0  0  0  0  0  0  0
   -0.0005   -1.4286    0.0000 O   0  0  0  0  0  0  0  0  0  0  0  0
  1  2  1  0  0  0  0
  2  3  1  0  0  0  0
  2  4  1  0  0  0  0
  4  5  1  0  0  0  0
  4  6  2  0  0  0  0
M  CHG  2   4   1   5  -1
M  END
> <ChemID>
100064

> <CAS>
79-46-9

> <Original_SMILES>
CC(C)[N+]([O-])=O

> <preferred_name>
2-Nitropropane

> <dsstox_substance_id>
DTXSID6020981

> <dsstox_compound_id>
DTXCID80981

> <qc_level>
DSSTox_Low

> <Canonical_QSARr>
CC(C)[N+]([O-])=O

> <InChI_Code_QSARr>
InChI=1S/C3H7NO2/c1-3(2)4(5)6/h3H,1-2H3

> <InChI Key_QSARr>
FGLBSLMDCBOPQK-UHFFFAOYSA-N

> <Salt_Solvent>


> <Salt_Solvent_ID>
0

> <MPID>
97995

> <LogBCF>
0.92

> <Tr_1_Tst_0>
0

$$$$
100065
  Mrv171c012241911322D          

 10 11  0  0  0  0            999 V2000
    0.1653   -0.8721    0.0000 C   0  0  0  0  0  0  0  0  0  0  0  0
    0.8798   -0.4596    0.0000 C   0  0  0  0  0  0  0  0  0  0  0  0
    1.5943   -0.8721    0.0000 C   0  0  0  0  0  0  0  0  0  0  0  0
    2.3087   -0.4596    0.0000 C   0  0  0  0  0  0  0  0  0  0  0  0
    1.5943   -1.6971    0.0000 C   0  0  0  0  0  0  0  0  0  0  0  0
    2.4067   -1.5538    0.0000 C   0  0  0  0  0  0  0  0  0  0  0  0
    1.8764   -2.4723    0.0000 C   0  0  0  0  0  0  0  0  0  0  0  0
    0.8798   -2.1096    0.0000 C   0  0  0  0  0  0  0  0  0  0  0  0
    0.6736   -1.2846    0.0000 C   0  0  0  0  0  0  0  0  0  0  0  0
    0.1653   -1.6971    0.0000 C   0  0  0  0  0  0  0  0  0  0  0  0
  2  1  1  0  0  0  0
  2  3  1  0  0  0  0
  3  4  2  0  0  0  0
  3  5  1  0  0  0  0
  5  6  1  0  0  0  0
  5  7  1  0  0  0  0
  5  8  1  0  0  0  0
  8  9  1  0  0  0  0
  9  2  1  0  0  0  0
 10  8  1  0  0  0  0
  1 10  1  0  0  0  0
M  END
> <ChemID>
100065

> <CAS>
79-92-5

> <Original_SMILES>
CC1(C)C2CC(CC2)C1=C

> <preferred_name>
Camphene

> <dsstox_substance_id>
DTXSID8026488

> <dsstox_compound_id>
DTXCID006488

> <qc_level>
DSSTox_High

> <Canonical_QSARr>
CC1(C)C2CC(CC2)C1=C

> <InChI_Code_QSARr>
InChI=1S/C10H16/c1-7-8-4-5-9(6-8)10(7,2)3/h8-9H,1,4-6H2,2-3H3

> <InChI Key_QSARr>
CRPUJAZIXJMDBK-UHFFFAOYSA-N

> <Salt_Solvent>


> <Salt_Solvent_ID>
0

> <MPID>
97996

> <LogBCF>
2.98

> <Tr_1_Tst_0>
1

$$$$
100066
  Mrv171c012241911322D          

 21 22  0  0  0  0            999 V2000
    2.2564   -2.4777    0.0000 C   0  0  0  0  0  0  0  0  0  0  0  0
    1.5419   -2.0652    0.0000 C   0  0  0  0  0  0  0  0  0  0  0  0
    1.5419   -1.2402    0.0000 C   0  0  0  0  0  0  0  0  0  0  0  0
    0.8274   -0.8277    0.0000 C   0  0  0  0  0  0  0  0  0  0  0  0
    0.8274   -0.0027    0.0000 Br  0  0  0  0  0  0  0  0  0  0  0  0
    0.1130   -1.2402    0.0000 C   0  0  0  0  0  0  0  0  0  0  0  0
   -0.6015   -0.8277    0.0000 O   0  0  0  0  0  0  0  0  0  0  0  0
    0.1130   -2.0652    0.0000 C   0  0  0  0  0  0  0  0  0  0  0  0
   -0.6015   -2.4777    0.0000 Br  0  0  0  0  0  0  0  0  0  0  0  0
    0.8274   -2.4777    0.0000 C   0  0  0  0  0  0  0  0  0  0  0  0
    2.9709   -2.8902    0.0000 C   0  0  0  0  0  0  0  0  0  0  0  0
    2.9709   -3.7152    0.0000 C   0  0  0  0  0  0  0  0  0  0  0  0
    3.6853   -4.1277    0.0000 C   0  0  0  0  0  0  0  0  0  0  0  0
    3.6853   -4.9527    0.0000 Br  0  0  0  0  0  0  0  0  0  0  0  0
    4.3998   -3.7152    0.0000 C   0  0  0  0  0  0  0  0  0  0  0  0
    5.1143   -4.1277    0.0000 O   0  0  0  0  0  0  0  0  0  0  0  0
    4.3998   -2.8902    0.0000 C   0  0  0  0  0  0  0  0  0  0  0  0
    5.1143   -2.4777    0.0000 Br  0  0  0  0  0  0  0  0  0  0  0  0
    3.6853   -2.4777    0.0000 C   0  0  0  0  0  0  0  0  0  0  0  0
    1.8439   -3.1922    0.0000 C   0  0  0  0  0  0  0  0  0  0  0  0
    2.6689   -1.7633    0.0000 C   0  0  0  0  0  0  0  0  0  0  0  0
  1  2  1  0  0  0  0
  3  2  1  0  0  0  0
  4  3  2  0  0  0  0
  4  5  1  0  0  0  0
  6  4  1  0  0  0  0
  6  7  1  0  0  0  0
  8  6  2  0  0  0  0
  8  9  1  0  0  0  0
 10  8  1  0  0  0  0
  2 10  2  0  0  0  0
  1 11  1  0  0  0  0
 12 11  1  0  0  0  0
 13 12  2  0  0  0  0
 13 14  1  0  0  0  0
 15 13  1  0  0  0  0
 15 16  1  0  0  0  0
 17 15  2  0  0  0  0
 17 18  1  0  0  0  0
 19 17  1  0  0  0  0
 11 19  2  0  0  0  0
  1 20  1  0  0  0  0
  1 21  1  0  0  0  0
M  END
> <ChemID>
100066

> <CAS>
79-94-7

> <Original_SMILES>
CC(C)(c1cc(Br)c(O)c(Br)c1)c1cc(Br)c(O)c(Br)c1

> <preferred_name>
3,3',5,5'-Tetrabromobisphenol A

> <dsstox_substance_id>
DTXSID1026081

> <dsstox_compound_id>
DTXCID406081

> <qc_level>
DSSTox_Low

> <Canonical_QSARr>
CC(C)(C1=CC(Br)=C(O)C(Br)=C1)C1=CC(Br)=C(O)C(Br)=C1

> <InChI_Code_QSARr>
InChI=1S/C15H12Br4O2/c1-15(2,7-3-9(16)13(20)10(17)4-7)8-5-11(18)14(21)12(19)6-8/h3-6,20-21H,1-2H3

> <InChI Key_QSARr>
VEORPZCZECFIRK-UHFFFAOYSA-N

> <Salt_Solvent>


> <Salt_Solvent_ID>
0

> <MPID>
97997

> <LogBCF>
2.43

> <Tr_1_Tst_0>
1

$$$$
100067
  Mrv171c012241911322D          

 17 18  0  0  0  0            999 V2000
    1.5011   -1.6268    0.0000 C   0  0  0  0  0  0  0  0  0  0  0  0
    2.3261   -1.6268    0.0000 C   0  0  0  0  0  0  0  0  0  0  0  0
    3.1511   -1.6268    0.0000 C   0  0  0  0  0  0  0  0  0  0  0  0
    2.3261   -0.8018    0.0000 C   0  0  0  0  0  0  0  0  0  0  0  0
    3.0405   -0.3893    0.0000 C   0  0  0  0  0  0  0  0  0  0  0  0
    3.0405    0.4357    0.0000 C   0  0  0  0  0  0  0  0  0  0  0  0
    2.3261    0.8482    0.0000 C   0  0  0  0  0  0  0  0  0  0  0  0
    2.3261    1.6732    0.0000 O   0  0  0  0  0  0  0  0  0  0  0  0
    1.6116    0.4357    0.0000 C   0  0  0  0  0  0  0  0  0  0  0  0
    1.6116   -0.3893    0.0000 C   0  0  0  0  0  0  0  0  0  0  0  0
    2.3261   -2.4518    0.0000 C   0  0  0  0  0  0  0  0  0  0  0  0
    1.6116   -2.8643    0.0000 C   0  0  0  0  0  0  0  0  0  0  0  0
    1.6116   -3.6893    0.0000 C   0  0  0  0  0  0  0  0  0  0  0  0
    2.3261   -4.1018    0.0000 C   0  0  0  0  0  0  0  0  0  0  0  0
    2.3261   -4.9268    0.0000 O   0  0  0  0  0  0  0  0  0  0  0  0
    3.0405   -3.6893    0.0000 C   0  0  0  0  0  0  0  0  0  0  0  0
    3.0405   -2.8643    0.0000 C   0  0  0  0  0  0  0  0  0  0  0  0
  1  2  1  0  0  0  0
  2  3  1  0  0  0  0
  2  4  1  0  0  0  0
  5  4  1  0  0  0  0
  6  5  2  0  0  0  0
  7  6  1  0  0  0  0
  7  8  1  0  0  0  0
  9  7  2  0  0  0  0
 10  9  1  0  0  0  0
  4 10  2  0  0  0  0
  2 11  1  0  0  0  0
 12 11  1  0  0  0  0
 13 12  2  0  0  0  0
 14 13  1  0  0  0  0
 14 15  1  0  0  0  0
 16 14  2  0  0  0  0
 17 16  1  0  0  0  0
 11 17  2  0  0  0  0
M  END
> <ChemID>
100067

> <CAS>
80-05-7

> <Original_SMILES>
CC(C)(c1ccc(O)cc1)c1ccc(O)cc1

> <preferred_name>
Bisphenol A

> <dsstox_substance_id>
DTXSID7020182

> <dsstox_compound_id>
DTXCID30182

> <qc_level>
DSSTox_High

> <Canonical_QSARr>
CC(C)(C1C=CC(O)=CC=1)C1C=CC(O)=CC=1

> <InChI_Code_QSARr>
InChI=1S/C15H16O2/c1-15(2,11-3-7-13(16)8-4-11)12-5-9-14(17)10-6-12/h3-10,16-17H,1-2H3

> <InChI Key_QSARr>
IISBACLAFKSPIT-UHFFFAOYSA-N

> <Salt_Solvent>


> <Salt_Solvent_ID>
0

> <MPID>
97998

> <LogBCF>
1.64

> <Tr_1_Tst_0>
1

$$$$
100068
  Mrv171c012241911322D          

 20 21  0  0  0  0            999 V2000
    1.9690   -2.0898    0.0000 O   0  0  0  0  0  0  0  0  0  0  0  0
    1.9690   -2.9148    0.0000 C   0  0  0  0  0  0  0  0  0  0  0  0
    2.7940   -2.9148    0.0000 C   0  0  0  0  0  0  0  0  0  0  0  0
    1.1440   -2.9148    0.0000 C   0  0  0  0  0  0  0  0  0  0  0  0
    1.9690   -3.7398    0.0000 C   0  0  0  0  0  0  0  0  0  0  0  0
    1.2545   -4.1523    0.0000 C   0  0  0  0  0  0  0  0  0  0  0  0
    1.2545   -4.9773    0.0000 C   0  0  0  0  0  0  0  0  0  0  0  0
    1.9690   -5.3898    0.0000 C   0  0  0  0  0  0  0  0  0  0  0  0
    2.6835   -4.9773    0.0000 C   0  0  0  0  0  0  0  0  0  0  0  0
    2.6835   -4.1523    0.0000 C   0  0  0  0  0  0  0  0  0  0  0  0
    2.6835   -1.6773    0.0000 O   0  0  0  0  0  0  0  0  0  0  0  0
    2.6835   -0.8523    0.0000 C   0  0  0  0  0  0  0  0  0  0  0  0
    3.5085   -0.8523    0.0000 C   0  0  0  0  0  0  0  0  0  0  0  0
    1.8585   -0.8523    0.0000 C   0  0  0  0  0  0  0  0  0  0  0  0
    2.6835   -0.0273    0.0000 C   0  0  0  0  0  0  0  0  0  0  0  0
    3.3979    0.3852    0.0000 C   0  0  0  0  0  0  0  0  0  0  0  0
    3.3979    1.2102    0.0000 C   0  0  0  0  0  0  0  0  0  0  0  0
    2.6835    1.6227    0.0000 C   0  0  0  0  0  0  0  0  0  0  0  0
    1.9690    1.2102    0.0000 C   0  0  0  0  0  0  0  0  0  0  0  0
    1.9690    0.3852    0.0000 C   0  0  0  0  0  0  0  0  0  0  0  0
  1  2  1  0  0  0  0
  2  3  1  0  0  0  0
  2  4  1  0  0  0  0
  2  5  1  0  0  0  0
  6  5  1  0  0  0  0
  7  6  2  0  0  0  0
  8  7  1  0  0  0  0
  9  8  2  0  0  0  0
 10  9  1  0  0  0  0
  5 10  2  0  0  0  0
  1 11  1  0  0  0  0
 11 12  1  0  0  0  0
 12 13  1  0  0  0  0
 12 14  1  0  0  0  0
 12 15  1  0  0  0  0
 16 15  1  0  0  0  0
 17 16  2  0  0  0  0
 18 17  1  0  0  0  0
 19 18  2  0  0  0  0
 20 19  1  0  0  0  0
 15 20  2  0  0  0  0
M  END
> <ChemID>
100068

> <CAS>
80-43-3

> <Original_SMILES>
CC(C)(OOC(C)(C)c1ccccc1)c1ccccc1

> <preferred_name>
Dicumyl peroxide

> <dsstox_substance_id>
DTXSID1025017

> <dsstox_compound_id>
DTXCID605017

> <qc_level>
DSSTox_Low

> <Canonical_QSARr>
CC(C)(OOC(C)(C)C1C=CC=CC=1)C1C=CC=CC=1

> <InChI_Code_QSARr>
InChI=1S/C18H22O2/c1-17(2,15-11-7-5-8-12-15)19-20-18(3,4)16-13-9-6-10-14-16/h5-14H,1-4H3

> <InChI Key_QSARr>
XMNIXWIUMCBBBL-UHFFFAOYSA-N

> <Salt_Solvent>


> <Salt_Solvent_ID>
0

> <MPID>
97999

> <LogBCF>
2.62

> <Tr_1_Tst_0>
0

$$$$
100069
  Mrv171c012241911322D          

 21 21  0  0  0  0            999 V2000
    4.1036   -1.0431    0.0000 C   0  0  0  0  0  0  0  0  0  0  0  0
    3.3892   -1.4556    0.0000 C   0  0  0  0  0  0  0  0  0  0  0  0
    2.9767   -0.7412    0.0000 C   0  0  0  0  0  0  0  0  0  0  0  0
    3.8017   -2.1701    0.0000 C   0  0  0  0  0  0  0  0  0  0  0  0
    2.6747   -1.8681    0.0000 C   0  0  0  0  0  0  0  0  0  0  0  0
    1.9602   -1.4556    0.0000 C   0  0  0  0  0  0  0  0  0  0  0  0
    1.9602   -0.6306    0.0000 N   0  3  0  0  0  0  0  0  0  0  0  0
    1.2457   -0.2181    0.0000 O   0  5  0  0  0  0  0  0  0  0  0  0
    2.6747   -0.2181    0.0000 O   0  0  0  0  0  0  0  0  0  0  0  0
    1.2457   -1.8681    0.0000 C   0  0  0  0  0  0  0  0  0  0  0  0
    0.5313   -1.4556    0.0000 C   0  0  0  0  0  0  0  0  0  0  0  0
    1.2457   -2.6931    0.0000 C   0  0  0  0  0  0  0  0  0  0  0  0
    0.5313   -3.1056    0.0000 N   0  3  0  0  0  0  0  0  0  0  0  0
    0.5313   -3.9306    0.0000 O   0  5  0  0  0  0  0  0  0  0  0  0
   -0.1832   -2.6931    0.0000 O   0  0  0  0  0  0  0  0  0  0  0  0
    1.9602   -3.1056    0.0000 C   0  0  0  0  0  0  0  0  0  0  0  0
    1.9602   -3.9306    0.0000 C   0  0  0  0  0  0  0  0  0  0  0  0
    2.6747   -2.6931    0.0000 C   0  0  0  0  0  0  0  0  0  0  0  0
    3.3892   -3.1056    0.0000 N   0  3  0  0  0  0  0  0  0  0  0  0
    4.1036   -2.6931    0.0000 O   0  5  0  0  0  0  0  0  0  0  0  0
    3.3892   -3.9306    0.0000 O   0  0  0  0  0  0  0  0  0  0  0  0
  1  2  1  0  0  0  0
  2  3  1  0  0  0  0
  2  4  1  0  0  0  0
  2  5  1  0  0  0  0
  6  5  1  0  0  0  0
  6  7  1  0  0  0  0
  7  8  1  0  0  0  0
  7  9  2  0  0  0  0
 10  6  2  0  0  0  0
 10 11  1  0  0  0  0
 12 10  1  0  0  0  0
 12 13  1  0  0  0  0
 13 14  1  0  0  0  0
 13 15  2  0  0  0  0
 16 12  2  0  0  0  0
 16 17  1  0  0  0  0
 18 16  1  0  0  0  0
  5 18  2  0  0  0  0
 18 19  1  0  0  0  0
 19 20  1  0  0  0  0
 19 21  2  0  0  0  0
M  CHG  6   7   1   8  -1  13   1  14  -1  19   1  20  -1
M  END
> <ChemID>
100069

> <CAS>
81-15-2

> <Original_SMILES>
CC(C)(C)c1c(c(C)c(c(C)c1[N+]([O-])=O)[N+]([O-])=O)[N+]([O-])=O

> <preferred_name>
2,4,6-Trinitro-1,3-dimethyl-5-tert-butylbenzene

> <dsstox_substance_id>
DTXSID1021405

> <dsstox_compound_id>
DTXCID901405

> <qc_level>
DSSTox_Low

> <Canonical_QSARr>
CC1=C(C(C)=C(C(=C1[N+]([O-])=O)C(C)(C)C)[N+]([O-])=O)[N+]([O-])=O

> <InChI_Code_QSARr>
InChI=1S/C12H15N3O6/c1-6-9(13(16)17)7(2)11(15(20)21)8(12(3,4)5)10(6)14(18)19/h1-5H3

> <InChI Key_QSARr>
XMWRWTSZNLOZFN-UHFFFAOYSA-N

> <Salt_Solvent>


> <Salt_Solvent_ID>
0

> <MPID>
98000

> <LogBCF>
3.61

> <Tr_1_Tst_0>
1

$$$$
100070
  Mrv171c012241911322D          

 15 16  0  0  0  0            999 V2000
    1.4762   -1.7043    0.0000 C   0  0  0  0  0  0  0  0  0  0  0  0
    1.4762   -2.5293    0.0000 S   0  0  0  0  0  0  0  0  0  0  0  0
    1.4762   -3.3543    0.0000 O   0  0  0  0  0  0  0  0  0  0  0  0
    2.3012   -2.5293    0.0000 O   0  0  0  0  0  0  0  0  0  0  0  0
    0.6512   -2.5293    0.0000 O   0  0  0  0  0  0  0  0  0  0  0  0
    0.7617   -1.2918    0.0000 C   0  0  0  0  0  0  0  0  0  0  0  0
    0.0472   -1.7043    0.0000 N   0  0  0  0  0  0  0  0  0  0  0  0
    0.7617   -0.4668    0.0000 C   0  0  0  0  0  0  0  0  0  0  0  0
    1.4762   -0.0543    0.0000 C   0  0  0  0  0  0  0  0  0  0  0  0
    2.1907   -0.4668    0.0000 C   0  0  0  0  0  0  0  0  0  0  0  0
    2.9051   -0.0543    0.0000 C   0  0  0  0  0  0  0  0  0  0  0  0
    3.6196   -0.4668    0.0000 C   0  0  0  0  0  0  0  0  0  0  0  0
    3.6196   -1.2918    0.0000 C   0  0  0  0  0  0  0  0  0  0  0  0
    2.9051   -1.7043    0.0000 C   0  0  0  0  0  0  0  0  0  0  0  0
    2.1907   -1.2918    0.0000 C   0  0  0  0  0  0  0  0  0  0  0  0
  1  2  1  0  0  0  0
  2  3  2  0  0  0  0
  2  4  1  0  0  0  0
  2  5  2  0  0  0  0
  6  1  1  0  0  0  0
  6  7  1  0  0  0  0
  8  6  2  0  0  0  0
  9  8  1  0  0  0  0
 10  9  2  0  0  0  0
 10 11  1  0  0  0  0
 11 12  2  0  0  0  0
 12 13  1  0  0  0  0
 13 14  2  0  0  0  0
 14 15  1  0  0  0  0
  1 15  2  0  0  0  0
 15 10  1  0  0  0  0
M  END
> <ChemID>
100070

> <CAS>
81-16-3

> <Original_SMILES>
Nc1ccc2ccccc2c1S(O)(=O)=O

> <preferred_name>
2-Amino-1-naphthalenesulfonic acid

> <dsstox_substance_id>
DTXSID7020922

> <dsstox_compound_id>
DTXCID90922

> <qc_level>
DSSTox_Low

> <Canonical_QSARr>
NC1=CC=C2C=CC=CC2=C1S(O)(=O)=O

> <InChI_Code_QSARr>
InChI=1S/C10H9NO3S/c11-9-6-5-7-3-1-2-4-8(7)10(9)15(12,13)14/h1-6H,11H2,(H,12,13,14)

> <InChI Key_QSARr>
GWIAAIUASRVOIA-UHFFFAOYSA-N

> <Salt_Solvent>


> <Salt_Solvent_ID>
0

> <MPID>
98001

> <LogBCF>
0.78

> <Tr_1_Tst_0>
1

$$$$
100071
  -INDIGO-12241911322D

 33 36  0  0  0  0  0  0  0  0999 V2000
    0.0001    3.2001    0.0000 O   0  0  0  0  0  0  0  0  0  0  0  0
   -1.3857    2.4000    0.0000 C   0  0  0  0  0  0  0  0  0  0  0  0
   -1.3857    0.8000    0.0000 C   0  0  0  0  0  0  0  0  0  0  0  0
   -2.7713    0.0001    0.0000 C   0  0  0  0  0  0  0  0  0  0  0  0
   -4.1568    0.8000    0.0000 C   0  0  0  0  0  0  0  0  0  0  0  0
   -4.1568    2.4000    0.0000 C   0  0  0  0  0  0  0  0  0  0  0  0
   -2.7713    3.2001    0.0000 C   0  0  0  0  0  0  0  0  0  0  0  0
   -5.5427    3.2001    0.0000 N   0  0  0  0  0  0  0  0  0  0  0  0
   -5.5427    4.8001    0.0000 C   0  0  0  0  0  0  0  0  0  0  0  0
   -6.9282    5.6000    0.0000 C   0  0  0  0  0  0  0  0  0  0  0  0
   -6.9282    2.4000    0.0000 C   0  0  0  0  0  0  0  0  0  0  0  0
   -8.3138    3.2001    0.0000 C   0  0  0  0  0  0  0  0  0  0  0  0
    0.0001    0.0001    0.0000 C   0  0  0  0  0  0  0  0  0  0  0  0
    0.0001   -1.6000    0.0000 C   0  0  0  0  0  0  0  0  0  0  0  0
    1.0285   -2.8257    0.0000 C   0  0  0  0  0  0  0  0  0  0  0  0
    2.6043   -2.5478    0.0000 C   0  0  0  0  0  0  0  0  0  0  0  0
    3.1513   -1.0442    0.0000 O   0  0  0  0  0  0  0  0  0  0  0  0
    3.6326   -3.7734    0.0000 O   0  0  0  0  0  0  0  0  0  0  0  0
    0.4812   -4.3291    0.0000 C   0  0  0  0  0  0  0  0  0  0  0  0
   -1.0944   -4.6070    0.0000 C   0  0  0  0  0  0  0  0  0  0  0  0
   -2.1230   -3.3813    0.0000 C   0  0  0  0  0  0  0  0  0  0  0  0
   -1.5757   -1.8778    0.0000 C   0  0  0  0  0  0  0  0  0  0  0  0
    1.3857    0.8000    0.0000 C   0  0  0  0  0  0  0  0  0  0  0  0
    1.3857    2.4000    0.0000 C   0  0  0  0  0  0  0  0  0  0  0  0
    2.7713    3.2001    0.0000 C   0  0  0  0  0  0  0  0  0  0  0  0
    4.1568    2.4000    0.0000 C   0  0  0  0  0  0  0  0  0  0  0  0
    4.1568    0.8000    0.0000 C   0  0  0  0  0  0  0  0  0  0  0  0
    2.7713    0.0001    0.0000 C   0  0  0  0  0  0  0  0  0  0  0  0
    5.5427    3.2001    0.0000 N   0  0  0  0  0  0  0  0  0  0  0  0
    5.5427    4.8001    0.0000 C   0  0  0  0  0  0  0  0  0  0  0  0
    6.9282    5.6000    0.0000 C   0  0  0  0  0  0  0  0  0  0  0  0
    6.9282    2.4000    0.0000 C   0  0  0  0  0  0  0  0  0  0  0  0
    8.3138    3.2001    0.0000 C   0  0  0  0  0  0  0  0  0  0  0  0
  2  1  4  0  0  0  0
  2  3  4  0  0  0  0
  3  4  4  0  0  0  0
  4  5  4  0  0  0  0
  5  6  4  0  0  0  0
  6  7  4  0  0  0  0
  7  2  4  0  0  0  0
  6  8  1  0  0  0  0
  8  9  1  0  0  0  0
  9 10  1  0  0  0  0
  8 11  1  0  0  0  0
 11 12  1  0  0  0  0
 13  3  4  0  0  0  0
 13 14  1  0  0  0  0
 15 14  1  0  0  0  0
 15 16  1  0  0  0  0
 16 17  2  0  0  0  0
 16 18  1  0  0  0  0
 19 15  2  0  0  0  0
 20 19  1  0  0  0  0
 21 20  2  0  0  0  0
 22 21  1  0  0  0  0
 14 22  2  0  0  0  0
 23 13  4  0  0  0  0
 23 24  4  0  0  0  0
  1 24  4  0  0  0  0
 24 25  4  0  0  0  0
 25 26  4  0  0  0  0
 26 27  4  0  0  0  0
 27 28  4  0  0  0  0
 28 23  4  0  0  0  0
 26 29  1  0  0  0  0
 29 30  1  0  0  0  0
 30 31  1  0  0  0  0
 29 32  1  0  0  0  0
 32 33  1  0  0  0  0
M  END
> <ChemID>
100071

> <CAS>
81-88-9

> <Original_SMILES>
[Cl-].CCN(CC)c1cc2[o+]c3cc(ccc3c(-c3ccccc3C(O)=O)c2cc1)N(CC)CC

> <preferred_name>
Rhodamine B

> <dsstox_substance_id>
DTXSID6042369

> <dsstox_compound_id>
DTXCID4022369

> <qc_level>
DSSTox_High

> <Canonical_QSARr>
CCN(CC)c1cc2oc3cc(ccc3c(c2cc1)C1=CC=CC=C1C(O)=O)N(CC)CC

> <InChI_Code_QSARr>


> <InChI Key_QSARr>


> <Salt_Solvent>
[Cl-]

> <Salt_Solvent_ID>
170

> <MPID>
98002

> <LogBCF>
0.23

> <Tr_1_Tst_0>
0

$$$$
100072
  Mrv171c012241911322D          

 18 21  0  0  0  0            999 V2000
    3.1020   -2.0668    0.0000 C   0  0  0  0  0  0  0  0  0  0  0  0
    2.3875   -2.4793    0.0000 C   0  0  0  0  0  0  0  0  0  0  0  0
    1.6730   -2.0668    0.0000 C   0  0  0  0  0  0  0  0  0  0  0  0
    0.9585   -2.4793    0.0000 C   0  0  0  0  0  0  0  0  0  0  0  0
    0.2441   -2.0668    0.0000 C   0  0  0  0  0  0  0  0  0  0  0  0
    0.2441   -1.2418    0.0000 C   0  0  0  0  0  0  0  0  0  0  0  0
    0.9585   -0.8293    0.0000 C   0  0  0  0  0  0  0  0  0  0  0  0
    1.6730   -1.2418    0.0000 C   0  0  0  0  0  0  0  0  0  0  0  0
    2.3875   -0.8293    0.0000 C   0  0  0  0  0  0  0  0  0  0  0  0
    2.3875   -0.0043    0.0000 O   0  0  0  0  0  0  0  0  0  0  0  0
    3.1020   -1.2418    0.0000 C   0  0  0  0  0  0  0  0  0  0  0  0
    3.8164   -0.8293    0.0000 C   0  0  0  0  0  0  0  0  0  0  0  0
    4.5309   -1.2418    0.0000 C   0  0  0  0  0  0  0  0  0  0  0  0
    4.5309   -2.0668    0.0000 C   0  0  0  0  0  0  0  0  0  0  0  0
    3.8164   -2.4793    0.0000 C   0  0  0  0  0  0  0  0  0  0  0  0
    0.9585   -3.3043    0.0000 C   0  0  0  0  0  0  0  0  0  0  0  0
    1.6730   -3.7168    0.0000 C   0  0  0  0  0  0  0  0  0  0  0  0
    2.3875   -3.3043    0.0000 C   0  0  0  0  0  0  0  0  0  0  0  0
  2  1  1  0  0  0  0
  2  3  2  0  0  0  0
  3  4  1  0  0  0  0
  4  5  1  0  0  0  0
  5  6  2  0  0  0  0
  6  7  1  0  0  0  0
  7  8  2  0  0  0  0
  8  3  1  0  0  0  0
  9  8  1  0  0  0  0
  9 10  2  0  0  0  0
 11  9  1  0  0  0  0
 11  1  1  0  0  0  0
 12 11  2  0  0  0  0
 13 12  1  0  0  0  0
 14 13  2  0  0  0  0
 15 14  1  0  0  0  0
  1 15  2  0  0  0  0
  4 16  2  0  0  0  0
 16 17  1  0  0  0  0
 17 18  2  0  0  0  0
 18  2  1  0  0  0  0
M  END
> <ChemID>
100072

> <CAS>
82-05-3

> <Original_SMILES>
O=C1c2cccc3cccc(c32)-c2ccccc21

> <preferred_name>
Benz[de]anthracen-7-one

> <dsstox_substance_id>
DTXSID8052566

> <dsstox_compound_id>
DTXCID5031139

> <qc_level>
DSSTox_Low

> <Canonical_QSARr>
O=C1C2=CC=CC3=CC=CC(=C32)C2=CC=CC=C21

> <InChI_Code_QSARr>
InChI=1S/C17H10O/c18-17-14-8-2-1-7-12(14)13-9-3-5-11-6-4-10-15(17)16(11)13/h1-10H

> <InChI Key_QSARr>
HUKPVYBUJRAUAG-UHFFFAOYSA-N

> <Salt_Solvent>


> <Salt_Solvent_ID>
0

> <MPID>
98003

> <LogBCF>
2.09

> <Tr_1_Tst_0>
1

$$$$
100073
  Mrv171c012241911322D          

 17 19  0  0  0  0            999 V2000
    1.5916   -1.8606    0.0000 C   0  0  0  0  0  0  0  0  0  0  0  0
    2.3061   -2.2731    0.0000 C   0  0  0  0  0  0  0  0  0  0  0  0
    2.3061   -3.0981    0.0000 O   0  0  0  0  0  0  0  0  0  0  0  0
    3.0206   -1.8606    0.0000 C   0  0  0  0  0  0  0  0  0  0  0  0
    3.7351   -2.2731    0.0000 C   0  0  0  0  0  0  0  0  0  0  0  0
    4.4495   -1.8606    0.0000 C   0  0  0  0  0  0  0  0  0  0  0  0
    4.4495   -1.0356    0.0000 C   0  0  0  0  0  0  0  0  0  0  0  0
    3.7351   -0.6231    0.0000 C   0  0  0  0  0  0  0  0  0  0  0  0
    3.0206   -1.0356    0.0000 C   0  0  0  0  0  0  0  0  0  0  0  0
    2.3061   -0.6231    0.0000 C   0  0  0  0  0  0  0  0  0  0  0  0
    2.3061    0.2019    0.0000 O   0  0  0  0  0  0  0  0  0  0  0  0
    1.5916   -1.0356    0.0000 C   0  0  0  0  0  0  0  0  0  0  0  0
    0.8772   -0.6231    0.0000 C   0  0  0  0  0  0  0  0  0  0  0  0
    0.1627   -1.0356    0.0000 C   0  0  0  0  0  0  0  0  0  0  0  0
    0.1627   -1.8606    0.0000 C   0  0  0  0  0  0  0  0  0  0  0  0
    0.8772   -2.2731    0.0000 C   0  0  0  0  0  0  0  0  0  0  0  0
    0.8772   -3.0981    0.0000 Cl  0  0  0  0  0  0  0  0  0  0  0  0
  2  1  1  0  0  0  0
  2  3  2  0  0  0  0
  4  2  1  0  0  0  0
  4  5  1  0  0  0  0
  5  6  2  0  0  0  0
  6  7  1  0  0  0  0
  7  8  2  0  0  0  0
  8  9  1  0  0  0  0
  9  4  2  0  0  0  0
 10  9  1  0  0  0  0
 10 11  2  0  0  0  0
 12 10  1  0  0  0  0
 12  1  1  0  0  0  0
 13 12  2  0  0  0  0
 14 13  1  0  0  0  0
 15 14  2  0  0  0  0
 16 15  1  0  0  0  0
  1 16  2  0  0  0  0
 16 17  1  0  0  0  0
M  END
> <ChemID>
100073

> <CAS>
82-44-0

> <Original_SMILES>
O=C1c2cccc(Cl)c2C(=O)c2ccccc12

> <preferred_name>
1-Chloroanthraquinone

> <dsstox_substance_id>
DTXSID7052571

> <dsstox_compound_id>
DTXCID4031144

> <qc_level>
DSSTox_Low

> <Canonical_QSARr>
O=C1C2=CC=CC(Cl)=C2C(=O)C2C=CC=CC1=2

> <InChI_Code_QSARr>
InChI=1S/C14H7ClO2/c15-11-7-3-6-10-12(11)14(17)9-5-2-1-4-8(9)13(10)16/h1-7H

> <InChI Key_QSARr>
BOCJQSFSGAZAPQ-UHFFFAOYSA-N

> <Salt_Solvent>


> <Salt_Solvent_ID>
0

> <MPID>
98004

> <LogBCF>
2.3

> <Tr_1_Tst_0>
0

$$$$
100074
  Mrv171c012241911322D          

 17 19  0  0  0  0            999 V2000
    1.5916   -1.8606    0.0000 C   0  0  0  0  0  0  0  0  0  0  0  0
    2.3061   -2.2731    0.0000 C   0  0  0  0  0  0  0  0  0  0  0  0
    2.3061   -3.0981    0.0000 O   0  0  0  0  0  0  0  0  0  0  0  0
    3.0206   -1.8606    0.0000 C   0  0  0  0  0  0  0  0  0  0  0  0
    3.7351   -2.2731    0.0000 C   0  0  0  0  0  0  0  0  0  0  0  0
    4.4495   -1.8606    0.0000 C   0  0  0  0  0  0  0  0  0  0  0  0
    4.4495   -1.0356    0.0000 C   0  0  0  0  0  0  0  0  0  0  0  0
    3.7351   -0.6231    0.0000 C   0  0  0  0  0  0  0  0  0  0  0  0
    3.0206   -1.0356    0.0000 C   0  0  0  0  0  0  0  0  0  0  0  0
    2.3061   -0.6231    0.0000 C   0  0  0  0  0  0  0  0  0  0  0  0
    2.3061    0.2019    0.0000 O   0  0  0  0  0  0  0  0  0  0  0  0
    1.5916   -1.0356    0.0000 C   0  0  0  0  0  0  0  0  0  0  0  0
    0.8772   -0.6231    0.0000 C   0  0  0  0  0  0  0  0  0  0  0  0
    0.1627   -1.0356    0.0000 C   0  0  0  0  0  0  0  0  0  0  0  0
    0.1627   -1.8606    0.0000 C   0  0  0  0  0  0  0  0  0  0  0  0
    0.8772   -2.2731    0.0000 C   0  0  0  0  0  0  0  0  0  0  0  0
    0.8772   -3.0981    0.0000 N   0  0  0  0  0  0  0  0  0  0  0  0
  2  1  1  0  0  0  0
  2  3  2  0  0  0  0
  4  2  1  0  0  0  0
  4  5  1  0  0  0  0
  5  6  2  0  0  0  0
  6  7  1  0  0  0  0
  7  8  2  0  0  0  0
  8  9  1  0  0  0  0
  9  4  2  0  0  0  0
 10  9  1  0  0  0  0
 10 11  2  0  0  0  0
 12 10  1  0  0  0  0
 12  1  1  0  0  0  0
 13 12  2  0  0  0  0
 14 13  1  0  0  0  0
 15 14  2  0  0  0  0
 16 15  1  0  0  0  0
  1 16  2  0  0  0  0
 16 17  1  0  0  0  0
M  END
> <ChemID>
100074

> <CAS>
82-45-1

> <Original_SMILES>
Nc1cccc2c1C(=O)c1ccccc1C2=O

> <preferred_name>
1-Aminoanthraquinone

> <dsstox_substance_id>
DTXSID2052572

> <dsstox_compound_id>
DTXCID9031145

> <qc_level>
DSSTox_Low

> <Canonical_QSARr>
NC1C=CC=C2C=1C(=O)C1C=CC=CC=1C2=O

> <InChI_Code_QSARr>
InChI=1S/C14H9NO2/c15-11-7-3-6-10-12(11)14(17)9-5-2-1-4-8(9)13(10)16/h1-7H,15H2

> <InChI Key_QSARr>
KHUFHLFHOQVFGB-UHFFFAOYSA-N

> <Salt_Solvent>


> <Salt_Solvent_ID>
0

> <MPID>
98005

> <LogBCF>
1.98

> <Tr_1_Tst_0>
1

$$$$
100075
  Mrv171c012241911322D          

 14 14  0  0  0  0            999 V2000
    2.9381   -0.4551    0.0000 Cl  0  0  0  0  0  0  0  0  0  0  0  0
    2.2237   -0.8676    0.0000 C   0  0  0  0  0  0  0  0  0  0  0  0
    1.5092   -0.4551    0.0000 C   0  0  0  0  0  0  0  0  0  0  0  0
    1.5092    0.3699    0.0000 Cl  0  0  0  0  0  0  0  0  0  0  0  0
    0.7947   -0.8676    0.0000 C   0  0  0  0  0  0  0  0  0  0  0  0
    0.0802   -0.4551    0.0000 Cl  0  0  0  0  0  0  0  0  0  0  0  0
    0.7947   -1.6926    0.0000 C   0  0  0  0  0  0  0  0  0  0  0  0
    0.0802   -2.1051    0.0000 Cl  0  0  0  0  0  0  0  0  0  0  0  0
    1.5092   -2.1051    0.0000 C   0  0  0  0  0  0  0  0  0  0  0  0
    1.5092   -2.9301    0.0000 Cl  0  0  0  0  0  0  0  0  0  0  0  0
    2.2237   -1.6926    0.0000 C   0  0  0  0  0  0  0  0  0  0  0  0
    2.9381   -2.1051    0.0000 N   0  3  0  0  0  0  0  0  0  0  0  0
    3.6526   -1.6926    0.0000 O   0  5  0  0  0  0  0  0  0  0  0  0
    2.9381   -2.9301    0.0000 O   0  0  0  0  0  0  0  0  0  0  0  0
  1  2  1  0  0  0  0
  3  2  1  0  0  0  0
  3  4  1  0  0  0  0
  5  3  2  0  0  0  0
  5  6  1  0  0  0  0
  7  5  1  0  0  0  0
  7  8  1  0  0  0  0
  9  7  2  0  0  0  0
  9 10  1  0  0  0  0
 11  9  1  0  0  0  0
  2 11  2  0  0  0  0
 11 12  1  0  0  0  0
 12 13  1  0  0  0  0
 12 14  2  0  0  0  0
M  CHG  2  12   1  13  -1
M  END
> <ChemID>
100075

> <CAS>
82-68-8

> <Original_SMILES>
[O-][N+](=O)c1c(Cl)c(Cl)c(Cl)c(Cl)c1Cl

> <preferred_name>
Pentachloronitrobenzene

> <dsstox_substance_id>
DTXSID2021105

> <dsstox_compound_id>
DTXCID301105

> <qc_level>
DSSTox_Low

> <Canonical_QSARr>
[O-][N+](=O)C1C(Cl)=C(Cl)C(Cl)=C(Cl)C=1Cl

> <InChI_Code_QSARr>
InChI=1S/C6Cl5NO2/c7-1-2(8)4(10)6(12(13)14)5(11)3(1)9

> <InChI Key_QSARr>
LKPLKUMXSAEKID-UHFFFAOYSA-N

> <Salt_Solvent>


> <Salt_Solvent_ID>
0

> <MPID>
98006

> <LogBCF>
2.74

> <Tr_1_Tst_0>
1

$$$$
100076
  Mrv171c012241911322D          

 12 14  0  0  0  0            999 V2000
    0.0158   -0.8857    0.0000 C   0  0  0  0  0  0  0  0  0  0  0  0
    0.7694   -0.5501    0.0000 C   0  0  0  0  0  0  0  0  0  0  0  0
    1.0244    0.2345    0.0000 C   0  0  0  0  0  0  0  0  0  0  0  0
    1.8494    0.2345    0.0000 C   0  0  0  0  0  0  0  0  0  0  0  0
    2.1043   -0.5501    0.0000 C   0  0  0  0  0  0  0  0  0  0  0  0
    1.4369   -1.0350    0.0000 C   0  0  0  0  0  0  0  0  0  0  0  0
    1.3506   -1.8555    0.0000 C   0  0  0  0  0  0  0  0  0  0  0  0
    2.2768   -2.1911    0.0000 C   0  0  0  0  0  0  0  0  0  0  0  0
    2.9442   -1.7061    0.0000 C   0  0  0  0  0  0  0  0  0  0  0  0
    2.8580   -0.8857    0.0000 C   0  0  0  0  0  0  0  0  0  0  0  0
    0.5970   -2.1911    0.0000 C   0  0  0  0  0  0  0  0  0  0  0  0
   -0.0705   -1.7061    0.0000 C   0  0  0  0  0  0  0  0  0  0  0  0
  2  1  1  0  0  0  0
  2  3  1  0  0  0  0
  3  4  1  0  0  0  0
  4  5  1  0  0  0  0
  5  6  1  0  0  0  0
  6  2  2  0  0  0  0
  6  7  1  0  0  0  0
  7  8  1  0  0  0  0
  8  9  2  0  0  0  0
  9 10  1  0  0  0  0
 10  5  2  0  0  0  0
 11  7  2  0  0  0  0
 12 11  1  0  0  0  0
  1 12  2  0  0  0  0
M  END
> <ChemID>
100076

> <CAS>
83-32-9

> <Original_SMILES>
C1Cc2cccc3cccc1c23

> <preferred_name>
Acenaphthene

> <dsstox_substance_id>
DTXSID3021774

> <dsstox_compound_id>
DTXCID201774

> <qc_level>
DSSTox_Low

> <Canonical_QSARr>
C1CC2=CC=CC3=CC=CC1=C23

> <InChI_Code_QSARr>
InChI=1S/C12H10/c1-3-9-4-2-6-11-8-7-10(5-1)12(9)11/h1-6H,7-8H2

> <InChI Key_QSARr>
CWRYPZZKDGJXCA-UHFFFAOYSA-N

> <Salt_Solvent>


> <Salt_Solvent_ID>
0

> <MPID>
98007

> <LogBCF>
2.88

> <Tr_1_Tst_0>
1

$$$$
100077
  Mrv171c012241911322D          

 11 11  0  0  0  0            999 V2000
    2.5955   -1.2518    0.0000 C   0  0  0  0  0  0  0  0  0  0  0  0
    3.3099   -0.8393    0.0000 Cl  0  0  0  0  0  0  0  0  0  0  0  0
    1.8810   -0.8393    0.0000 C   0  0  0  0  0  0  0  0  0  0  0  0
    1.8810   -0.0143    0.0000 C   0  0  0  0  0  0  0  0  0  0  0  0
    1.1665   -1.2518    0.0000 C   0  0  0  0  0  0  0  0  0  0  0  0
    0.4521   -0.8393    0.0000 N   0  3  0  0  0  0  0  0  0  0  0  0
   -0.2624   -1.2518    0.0000 O   0  0  0  0  0  0  0  0  0  0  0  0
    0.4521   -0.0143    0.0000 O   0  5  0  0  0  0  0  0  0  0  0  0
    1.1665   -2.0768    0.0000 C   0  0  0  0  0  0  0  0  0  0  0  0
    1.8810   -2.4893    0.0000 C   0  0  0  0  0  0  0  0  0  0  0  0
    2.5955   -2.0768    0.0000 C   0  0  0  0  0  0  0  0  0  0  0  0
  1  2  1  0  0  0  0
  3  1  1  0  0  0  0
  3  4  1  0  0  0  0
  5  3  2  0  0  0  0
  5  6  1  0  0  0  0
  6  7  2  0  0  0  0
  6  8  1  0  0  0  0
  9  5  1  0  0  0  0
 10  9  2  0  0  0  0
 11 10  1  0  0  0  0
  1 11  2  0  0  0  0
M  CHG  2   6   1   8  -1
M  END
> <ChemID>
100077

> <CAS>
83-42-1

> <Original_SMILES>
Cc1c(Cl)cccc1[N+]([O-])=O

> <preferred_name>
1-Chloro-2-methyl-3-nitrobenzene

> <dsstox_substance_id>
DTXSID1041263

> <dsstox_compound_id>
DTXCID9021263

> <qc_level>
DSSTox_Low

> <Canonical_QSARr>
CC1C(Cl)=CC=CC=1[N+]([O-])=O

> <InChI_Code_QSARr>
InChI=1S/C7H6ClNO2/c1-5-6(8)3-2-4-7(5)9(10)11/h2-4H,1H3

> <InChI Key_QSARr>
XCSNRORTQRKCHB-UHFFFAOYSA-N

> <Salt_Solvent>


> <Salt_Solvent_ID>
0

> <MPID>
98008

> <LogBCF>
1.99

> <Tr_1_Tst_0>
0

$$$$
100078
  Mrv171c012241911322D          

 29 33  0  0  0  0            999 V2000
    2.9717   -3.4404    0.0000 C   0  0  0  0  0  0  0  0  0  0  0  0
    3.3950   -4.1485    0.0000 O   0  0  0  0  0  0  0  0  0  0  0  0
    4.2199   -4.1360    0.0000 C   0  0  0  0  0  0  0  0  0  0  0  0
    4.6432   -4.8441    0.0000 C   0  0  0  0  0  0  0  0  0  0  0  0
    5.4681   -4.8316    0.0000 O   0  0  0  0  0  0  0  0  0  0  0  0
    5.8697   -4.1109    0.0000 C   0  0  0  0  0  0  0  0  0  0  0  0
    6.6946   -4.0983    0.0000 C   0  0  0  0  0  0  0  0  0  0  0  0
    7.0962   -3.3777    0.0000 C   0  0  0  0  0  0  0  0  0  0  0  0
    7.9211   -3.3651    0.0000 O   0  0  0  0  0  0  0  0  0  0  0  0
    8.3227   -2.6445    0.0000 C   0  0  0  0  0  0  0  0  0  0  0  0
    6.6729   -2.6696    0.0000 C   0  0  0  0  0  0  0  0  0  0  0  0
    7.0745   -1.9489    0.0000 O   0  0  0  0  0  0  0  0  0  0  0  0
    6.6512   -1.2408    0.0000 C   0  0  0  0  0  0  0  0  0  0  0  0
    5.8480   -2.6821    0.0000 C   0  0  0  0  0  0  0  0  0  0  0  0
    5.4464   -3.4028    0.0000 C   0  0  0  0  0  0  0  0  0  0  0  0
    4.6215   -3.4153    0.0000 C   0  0  0  0  0  0  0  0  0  0  0  0
    4.1982   -2.7072    0.0000 C   0  0  0  0  0  0  0  0  0  0  0  0
    4.5998   -1.9865    0.0000 O   0  0  0  0  0  0  0  0  0  0  0  0
    3.3733   -2.7198    0.0000 C   0  0  0  0  0  0  0  0  0  0  0  0
    2.9500   -2.0116    0.0000 C   0  0  0  0  0  0  0  0  0  0  0  0
    2.1251   -2.0242    0.0000 C   0  0  0  0  0  0  0  0  0  0  0  0
    1.7235   -2.7448    0.0000 C   0  0  0  0  0  0  0  0  0  0  0  0
    0.9192   -2.9286    0.0000 O   0  0  0  0  0  0  0  0  0  0  0  0
    0.8455   -3.7503    0.0000 C   0  0  0  0  0  0  0  0  0  0  0  0
    0.1373   -4.1736    0.0000 C   0  0  0  0  0  0  0  0  0  0  0  0
    0.1499   -4.9985    0.0000 C   0  0  0  0  0  0  0  0  0  0  0  0
   -0.5833   -3.7721    0.0000 C   0  0  0  0  0  0  0  0  0  0  0  0
    1.6041   -4.0744    0.0000 C   0  0  0  0  0  0  0  0  0  0  0  0
    2.1468   -3.4530    0.0000 C   0  0  0  0  0  0  0  0  0  0  0  0
  2  1  1  0  0  0  0
  3  2  1  0  0  0  0
  3  4  1  0  0  0  0
  4  5  1  0  0  0  0
  5  6  1  0  0  0  0
  7  6  1  0  0  0  0
  8  7  2  0  0  0  0
  8  9  1  0  0  0  0
  9 10  1  0  0  0  0
 11  8  1  0  0  0  0
 11 12  1  0  0  0  0
 12 13  1  0  0  0  0
 14 11  2  0  0  0  0
 15 14  1  0  0  0  0
  6 15  2  0  0  0  0
 15 16  1  0  0  0  0
 16  3  1  0  0  0  0
 17 16  1  0  0  0  0
 17 18  2  0  0  0  0
 19 17  1  0  0  0  0
 19  1  2  0  0  0  0
 20 19  1  0  0  0  0
 21 20  2  0  0  0  0
 22 21  1  0  0  0  0
 22 23  1  0  0  0  0
 23 24  1  0  0  0  0
 24 25  1  0  0  0  0
 25 26  1  0  0  0  0
 25 27  2  0  0  0  0
 24 28  1  0  0  0  0
 28 29  1  0  0  0  0
  1 29  1  0  0  0  0
 29 22  2  0  0  0  0
M  END
> <ChemID>
100078

> <CAS>
83-79-4

> <Original_SMILES>
CC(=C)[C@H]1Cc2c3O[C@@H]4COc5cc(OC)c(cc5[C@@H]4C(=O)c3ccc2O1)OC

> <preferred_name>
Rotenone

> <dsstox_substance_id>
DTXSID6021248

> <dsstox_compound_id>
DTXCID901248

> <qc_level>
DSSTox_Low

> <Canonical_QSARr>
CC(=C)C1CC2C3OC4COC5C=C(OC)C(=CC=5C4C(=O)C=3C=CC=2O1)OC

> <InChI_Code_QSARr>
InChI=1S/C23H22O6/c1-11(2)16-8-14-15(28-16)6-5-12-22(24)21-13-7-18(25-3)19(26-4)9-17(13)27-10-20(21)29-23(12)14/h5-7,9,16,20-21H,1,8,10H2,2-4H3

> <InChI Key_QSARr>
JUVIOZPCNVVQFO-UHFFFAOYSA-N

> <Salt_Solvent>


> <Salt_Solvent_ID>
0

> <MPID>
98009

> <LogBCF>
1.41

> <Tr_1_Tst_0>
1

$$$$
100079
  Mrv171c012241911322D          

 18 20  0  0  0  0            999 V2000
    2.8624   -1.6577    0.0000 C   0  0  0  0  0  0  0  0  0  0  0  0
    2.8624   -2.4827    0.0000 C   0  0  0  0  0  0  0  0  0  0  0  0
    2.1479   -2.8952    0.0000 C   0  0  0  0  0  0  0  0  0  0  0  0
    2.1479   -3.7202    0.0000 C   0  0  0  0  0  0  0  0  0  0  0  0
    2.8624   -4.1327    0.0000 C   0  0  0  0  0  0  0  0  0  0  0  0
    3.5769   -3.7202    0.0000 C   0  0  0  0  0  0  0  0  0  0  0  0
    3.5769   -2.8952    0.0000 C   0  0  0  0  0  0  0  0  0  0  0  0
    3.5769   -1.2452    0.0000 C   0  0  0  0  0  0  0  0  0  0  0  0
    3.5769   -0.4202    0.0000 C   0  0  0  0  0  0  0  0  0  0  0  0
    2.8624   -0.0077    0.0000 C   0  0  0  0  0  0  0  0  0  0  0  0
    2.1479   -0.4202    0.0000 C   0  0  0  0  0  0  0  0  0  0  0  0
    2.1479   -1.2452    0.0000 C   0  0  0  0  0  0  0  0  0  0  0  0
    1.4335   -1.6577    0.0000 C   0  0  0  0  0  0  0  0  0  0  0  0
    0.7190   -1.2452    0.0000 C   0  0  0  0  0  0  0  0  0  0  0  0
    0.0045   -1.6577    0.0000 C   0  0  0  0  0  0  0  0  0  0  0  0
    0.0045   -2.4827    0.0000 C   0  0  0  0  0  0  0  0  0  0  0  0
    0.7190   -2.8952    0.0000 C   0  0  0  0  0  0  0  0  0  0  0  0
    1.4335   -2.4827    0.0000 C   0  0  0  0  0  0  0  0  0  0  0  0
  1  2  1  0  0  0  0
  3  2  2  0  0  0  0
  4  3  1  0  0  0  0
  5  4  2  0  0  0  0
  6  5  1  0  0  0  0
  7  6  2  0  0  0  0
  2  7  1  0  0  0  0
  8  1  2  0  0  0  0
  9  8  1  0  0  0  0
 10  9  2  0  0  0  0
 11 10  1  0  0  0  0
 12 11  2  0  0  0  0
  1 12  1  0  0  0  0
 12 13  1  0  0  0  0
 14 13  2  0  0  0  0
 15 14  1  0  0  0  0
 16 15  2  0  0  0  0
 17 16  1  0  0  0  0
 18 17  2  0  0  0  0
 13 18  1  0  0  0  0
M  END
> <ChemID>
100079

> <CAS>
84-15-1

> <Original_SMILES>
c1ccccc1-c1ccccc1-c1ccccc1

> <preferred_name>
o-Terphenyl

> <dsstox_substance_id>
DTXSID1049697

> <dsstox_compound_id>
DTXCID8029656

> <qc_level>
DSSTox_Low

> <Canonical_QSARr>
C1=CC=CC=C1C1=CC=CC=C1C1C=CC=CC=1

> <InChI_Code_QSARr>
InChI=1S/C18H14/c1-3-9-15(10-4-1)17-13-7-8-14-18(17)16-11-5-2-6-12-16/h1-14H

> <InChI Key_QSARr>
OIAQMFOKAXHPNH-UHFFFAOYSA-N

> <Salt_Solvent>


> <Salt_Solvent_ID>
0

> <MPID>
98010

> <LogBCF>
3.48

> <Tr_1_Tst_0>
1

$$$$
100080
  Mrv171c012241911322D          

 18 20  0  0  0  0            999 V2000
    2.7838   -0.7314    0.0000 C   0  0  0  0  0  0  0  0  0  0  0  0
    2.7838    0.0936    0.0000 O   0  0  0  0  0  0  0  0  0  0  0  0
    3.4983   -1.1439    0.0000 C   0  0  0  0  0  0  0  0  0  0  0  0
    4.2128   -0.7314    0.0000 C   0  0  0  0  0  0  0  0  0  0  0  0
    4.9272   -1.1439    0.0000 C   0  0  0  0  0  0  0  0  0  0  0  0
    4.9272   -1.9689    0.0000 C   0  0  0  0  0  0  0  0  0  0  0  0
    4.2128   -2.3814    0.0000 C   0  0  0  0  0  0  0  0  0  0  0  0
    3.4983   -1.9689    0.0000 C   0  0  0  0  0  0  0  0  0  0  0  0
    2.7838   -2.3814    0.0000 C   0  0  0  0  0  0  0  0  0  0  0  0
    2.7838   -3.2064    0.0000 O   0  0  0  0  0  0  0  0  0  0  0  0
    2.0693   -1.9689    0.0000 C   0  0  0  0  0  0  0  0  0  0  0  0
    1.3549   -2.3814    0.0000 C   0  0  0  0  0  0  0  0  0  0  0  0
    0.6404   -1.9689    0.0000 C   0  0  0  0  0  0  0  0  0  0  0  0
   -0.0741   -2.3814    0.0000 C   0  0  0  0  0  0  0  0  0  0  0  0
   -0.0741   -3.2064    0.0000 C   0  0  0  0  0  0  0  0  0  0  0  0
    0.6404   -1.1439    0.0000 C   0  0  0  0  0  0  0  0  0  0  0  0
    1.3549   -0.7314    0.0000 C   0  0  0  0  0  0  0  0  0  0  0  0
    2.0693   -1.1439    0.0000 C   0  0  0  0  0  0  0  0  0  0  0  0
  1  2  2  0  0  0  0
  3  1  1  0  0  0  0
  3  4  1  0  0  0  0
  4  5  2  0  0  0  0
  5  6  1  0  0  0  0
  6  7  2  0  0  0  0
  7  8  1  0  0  0  0
  8  3  2  0  0  0  0
  9  8  1  0  0  0  0
  9 10  2  0  0  0  0
 11  9  1  0  0  0  0
 11 12  1  0  0  0  0
 12 13  2  0  0  0  0
 13 14  1  0  0  0  0
 14 15  1  0  0  0  0
 13 16  1  0  0  0  0
 16 17  2  0  0  0  0
 17 18  1  0  0  0  0
  1 18  1  0  0  0  0
 18 11  2  0  0  0  0
M  END
> <ChemID>
100080

> <CAS>
84-51-5

> <Original_SMILES>
CCc1cc2c(cc1)C(=O)c1ccccc1C2=O

> <preferred_name>
2-Ethylanthracene-9,10-dione

> <dsstox_substance_id>
DTXSID5044994

> <dsstox_compound_id>
DTXCID3024994

> <qc_level>
DSSTox_Low

> <Canonical_QSARr>
CCC1=CC2=C(C=C1)C(=O)C1C=CC=CC=1C2=O

> <InChI_Code_QSARr>
InChI=1S/C16H12O2/c1-2-10-7-8-13-14(9-10)16(18)12-6-4-3-5-11(12)15(13)17/h3-9H,2H2,1H3

> <InChI Key_QSARr>
SJEBAWHUJDUKQK-UHFFFAOYSA-N

> <Salt_Solvent>


> <Salt_Solvent_ID>
0

> <MPID>
98011

> <LogBCF>
0.98

> <Tr_1_Tst_0>
1

$$$$
100081
  Mrv171c012241911322D          

 19 20  0  0  0  0            999 V2000
    4.4045   -1.0769    0.0000 O   0  0  0  0  0  0  0  0  0  0  0  0
    3.9195   -0.4094    0.0000 C   0  0  0  0  0  0  0  0  0  0  0  0
    4.1745    0.3752    0.0000 C   0  0  0  0  0  0  0  0  0  0  0  0
    3.5070    0.8601    0.0000 C   0  0  0  0  0  0  0  0  0  0  0  0
    3.5070    1.6851    0.0000 C   0  0  0  0  0  0  0  0  0  0  0  0
    2.8396    0.3752    0.0000 N   0  0  0  0  0  0  0  0  0  0  0  0
    3.0945   -0.4094    0.0000 N   0  0  0  0  0  0  0  0  0  0  0  0
    2.6096   -1.0769    0.0000 C   0  0  0  0  0  0  0  0  0  0  0  0
    1.7891   -0.9906    0.0000 C   0  0  0  0  0  0  0  0  0  0  0  0
    1.3042   -1.6581    0.0000 C   0  0  0  0  0  0  0  0  0  0  0  0
    0.4837   -1.5718    0.0000 Cl  0  0  0  0  0  0  0  0  0  0  0  0
    1.6398   -2.4118    0.0000 C   0  0  0  0  0  0  0  0  0  0  0  0
    1.1549   -3.0792    0.0000 S   0  0  0  0  0  0  0  0  0  0  0  0
    0.6699   -3.7466    0.0000 O   0  0  0  0  0  0  0  0  0  0  0  0
    0.4874   -2.5943    0.0000 O   0  0  0  0  0  0  0  0  0  0  0  0
    1.8223   -3.5641    0.0000 O   0  0  0  0  0  0  0  0  0  0  0  0
    2.4603   -2.4980    0.0000 C   0  0  0  0  0  0  0  0  0  0  0  0
    2.9452   -1.8306    0.0000 C   0  0  0  0  0  0  0  0  0  0  0  0
    3.7657   -1.9168    0.0000 Cl  0  0  0  0  0  0  0  0  0  0  0  0
  1  2  2  0  0  0  0
  3  2  1  0  0  0  0
  4  3  1  0  0  0  0
  4  5  1  0  0  0  0
  6  4  2  0  0  0  0
  7  6  1  0  0  0  0
  2  7  1  0  0  0  0
  7  8  1  0  0  0  0
  9  8  1  0  0  0  0
 10  9  2  0  0  0  0
 10 11  1  0  0  0  0
 12 10  1  0  0  0  0
 12 13  1  0  0  0  0
 13 14  1  0  0  0  0
 13 15  2  0  0  0  0
 13 16  2  0  0  0  0
 17 12  2  0  0  0  0
 18 17  1  0  0  0  0
  8 18  2  0  0  0  0
 18 19  1  0  0  0  0
M  END
> <ChemID>
100081

> <CAS>
84-57-1

> <Original_SMILES>
CC1CC(=O)N(N=1)c1cc(Cl)c(cc1Cl)S(O)(=O)=O

> <preferred_name>
Benzenesulfonic acid, 2,5-dichloro-4-(4,5-dihydro-3-methyl-5-oxo-1H-pyrazol-1-yl)-

> <dsstox_substance_id>
DTXSID8058906

> <dsstox_compound_id>
DTXCID6048381

> <qc_level>
Public_High

> <Canonical_QSARr>
CC1CC(=O)N(N=1)C1C=C(Cl)C(=CC=1Cl)S(O)(=O)=O

> <InChI_Code_QSARr>
InChI=1S/C10H8Cl2N2O4S/c1-5-2-10(15)14(13-5)8-3-7(12)9(4-6(8)11)19(16,17)18/h3-4H,2H2,1H3,(H,16,17,18)

> <InChI Key_QSARr>
KCEIVWKDBLAQKL-UHFFFAOYSA-N

> <Salt_Solvent>


> <Salt_Solvent_ID>
0

> <MPID>
98012

> <LogBCF>
1.51

> <Tr_1_Tst_0>
0

$$$$
100082
  Mrv171c012241911322D          

 20 20  0  0  0  0            999 V2000
    1.5288   -1.6880    0.0000 C   0  0  0  0  0  0  0  0  0  0  0  0
    1.5288   -2.5130    0.0000 C   0  0  0  0  0  0  0  0  0  0  0  0
    2.2433   -2.9255    0.0000 C   0  0  0  0  0  0  0  0  0  0  0  0
    2.2433   -3.7505    0.0000 C   0  0  0  0  0  0  0  0  0  0  0  0
    1.5288   -4.1630    0.0000 O   0  0  0  0  0  0  0  0  0  0  0  0
    1.5288   -4.9880    0.0000 C   0  0  0  0  0  0  0  0  0  0  0  0
    0.8144   -5.4005    0.0000 C   0  0  0  0  0  0  0  0  0  0  0  0
    0.8144   -6.2255    0.0000 C   0  0  0  0  0  0  0  0  0  0  0  0
    0.0999   -6.6380    0.0000 C   0  0  0  0  0  0  0  0  0  0  0  0
    2.9578   -4.1630    0.0000 O   0  0  0  0  0  0  0  0  0  0  0  0
    2.9578   -2.5130    0.0000 C   0  0  0  0  0  0  0  0  0  0  0  0
    3.6723   -2.9255    0.0000 C   0  0  0  0  0  0  0  0  0  0  0  0
    4.3867   -2.5130    0.0000 O   0  0  0  0  0  0  0  0  0  0  0  0
    5.1012   -2.9255    0.0000 C   0  0  0  0  0  0  0  0  0  0  0  0
    5.8157   -2.5130    0.0000 C   0  0  0  0  0  0  0  0  0  0  0  0
    6.5301   -2.9255    0.0000 C   0  0  0  0  0  0  0  0  0  0  0  0
    7.2446   -2.5130    0.0000 C   0  0  0  0  0  0  0  0  0  0  0  0
    3.6723   -3.7505    0.0000 O   0  0  0  0  0  0  0  0  0  0  0  0
    2.9578   -1.6880    0.0000 C   0  0  0  0  0  0  0  0  0  0  0  0
    2.2433   -1.2755    0.0000 C   0  0  0  0  0  0  0  0  0  0  0  0
  2  1  1  0  0  0  0
  3  2  2  0  0  0  0
  3  4  1  0  0  0  0
  4  5  1  0  0  0  0
  5  6  1  0  0  0  0
  6  7  1  0  0  0  0
  7  8  1  0  0  0  0
  8  9  1  0  0  0  0
  4 10  2  0  0  0  0
 11  3  1  0  0  0  0
 11 12  1  0  0  0  0
 12 13  1  0  0  0  0
 13 14  1  0  0  0  0
 14 15  1  0  0  0  0
 15 16  1  0  0  0  0
 16 17  1  0  0  0  0
 12 18  2  0  0  0  0
 19 11  2  0  0  0  0
 20 19  1  0  0  0  0
  1 20  2  0  0  0  0
M  END
> <ChemID>
100082

> <CAS>
84-74-2

> <Original_SMILES>
CCCCOC(=O)c1ccccc1C(=O)OCCCC

> <preferred_name>
Dibutyl phthalate

> <dsstox_substance_id>
DTXSID2021781

> <dsstox_compound_id>
DTXCID301781

> <qc_level>
DSSTox_High

> <Canonical_QSARr>
CCCCOC(=O)C1=CC=CC=C1C(=O)OCCCC

> <InChI_Code_QSARr>
InChI=1S/C16H22O4/c1-3-5-11-19-15(17)13-9-7-8-10-14(13)16(18)20-12-6-4-2/h7-10H,3-6,11-12H2,1-2H3

> <InChI Key_QSARr>
DOIRQSBPFJWKBE-UHFFFAOYSA-N

> <Salt_Solvent>


> <Salt_Solvent_ID>
0

> <MPID>
98013

> <LogBCF>
2.22

> <Tr_1_Tst_0>
1

$$$$
100083
  Mrv171c012241911322D          

 14 16  0  0  0  0            999 V2000
   -0.4125   -0.7145    0.0000 N   0  3  0  0  0  0  0  0  0  0  0  0
    0.0000   -1.4289    0.0000 C   0  0  0  0  0  0  0  0  0  0  0  0
    0.8250   -1.4289    0.0000 C   0  0  0  0  0  0  0  0  0  0  0  0
    1.2375   -0.7145    0.0000 N   0  3  0  0  0  0  0  0  0  0  0  0
    0.8250   -0.0000    0.0000 C   0  0  0  0  0  0  0  0  0  0  0  0
    1.2375    0.7145    0.0000 C   0  0  0  0  0  0  0  0  0  0  0  0
    2.0625    0.7145    0.0000 C   0  0  0  0  0  0  0  0  0  0  0  0
    2.4750   -0.0000    0.0000 C   0  0  0  0  0  0  0  0  0  0  0  0
    2.0625   -0.7145    0.0000 C   0  0  0  0  0  0  0  0  0  0  0  0
    0.0000   -0.0000    0.0000 C   0  0  0  0  0  0  0  0  0  0  0  0
   -0.4125    0.7145    0.0000 C   0  0  0  0  0  0  0  0  0  0  0  0
   -1.2375    0.7145    0.0000 C   0  0  0  0  0  0  0  0  0  0  0  0
   -1.6500   -0.0000    0.0000 C   0  0  0  0  0  0  0  0  0  0  0  0
   -1.2375   -0.7145    0.0000 C   0  0  0  0  0  0  0  0  0  0  0  0
  2  1  1  0  0  0  0
  3  2  1  0  0  0  0
  4  3  1  0  0  0  0
  4  5  2  0  0  0  0
  5  6  1  0  0  0  0
  6  7  2  0  0  0  0
  7  8  1  0  0  0  0
  8  9  2  0  0  0  0
  9  4  1  0  0  0  0
 10  5  1  0  0  0  0
 10  1  2  0  0  0  0
 11 10  1  0  0  0  0
 12 11  2  0  0  0  0
 13 12  1  0  0  0  0
 14 13  2  0  0  0  0
  1 14  1  0  0  0  0
M  CHG  2   1   1   4   1
M  END
> <ChemID>
100083

> <CAS>
85-00-7

> <Original_SMILES>
[Br-].[Br-].C1C[n+]2ccccc2-c2cccc[n+]21

> <preferred_name>
Diquat dibromide

> <dsstox_substance_id>
DTXSID3024075

> <dsstox_compound_id>
DTXCID504075

> <qc_level>
DSSTox_Low

> <Canonical_QSARr>
C1C[N+]2C=CC=CC=2C2C=CC=C[N+]=21

> <InChI_Code_QSARr>
InChI=1S/C12H12N2/c1-3-7-13-9-10-14-8-4-2-6-12(14)11(13)5-1/h1-8H,9-10H2/q+2

> <InChI Key_QSARr>
SYJFEGQWDCRVNX-UHFFFAOYSA-N

> <Salt_Solvent>
[Br-]

> <Salt_Solvent_ID>
350

> <MPID>
98014

> <LogBCF>
0.76

> <Tr_1_Tst_0>
1

$$$$
100084
  Mrv171c012241911322D          

 14 16  0  0  0  0            999 V2000
    2.2977   -1.4199    0.0000 C   0  0  0  0  0  0  0  0  0  0  0  0
    2.7102   -0.7054    0.0000 C   0  0  0  0  0  0  0  0  0  0  0  0
    3.5352   -0.7054    0.0000 C   0  0  0  0  0  0  0  0  0  0  0  0
    3.9477   -1.4199    0.0000 C   0  0  0  0  0  0  0  0  0  0  0  0
    3.5352   -2.1344    0.0000 C   0  0  0  0  0  0  0  0  0  0  0  0
    2.7102   -2.1344    0.0000 C   0  0  0  0  0  0  0  0  0  0  0  0
    2.2977   -2.8488    0.0000 C   0  0  0  0  0  0  0  0  0  0  0  0
    1.4727   -2.8488    0.0000 C   0  0  0  0  0  0  0  0  0  0  0  0
    1.0602   -2.1344    0.0000 C   0  0  0  0  0  0  0  0  0  0  0  0
    0.2352   -2.1344    0.0000 C   0  0  0  0  0  0  0  0  0  0  0  0
   -0.1773   -1.4199    0.0000 C   0  0  0  0  0  0  0  0  0  0  0  0
    0.2352   -0.7054    0.0000 C   0  0  0  0  0  0  0  0  0  0  0  0
    1.0602   -0.7054    0.0000 C   0  0  0  0  0  0  0  0  0  0  0  0
    1.4727   -1.4199    0.0000 C   0  0  0  0  0  0  0  0  0  0  0  0
  2  1  1  0  0  0  0
  3  2  2  0  0  0  0
  4  3  1  0  0  0  0
  5  4  2  0  0  0  0
  6  5  1  0  0  0  0
  6  1  2  0  0  0  0
  7  6  1  0  0  0  0
  8  7  2  0  0  0  0
  9  8  1  0  0  0  0
  9 10  1  0  0  0  0
 10 11  2  0  0  0  0
 11 12  1  0  0  0  0
 12 13  2  0  0  0  0
 13 14  1  0  0  0  0
  1 14  1  0  0  0  0
 14  9  2  0  0  0  0
M  END
> <ChemID>
100084

> <CAS>
85-01-8

> <Original_SMILES>
c1cc2ccccc2c2ccccc21

> <preferred_name>
Phenanthrene

> <dsstox_substance_id>
DTXSID6024254

> <dsstox_compound_id>
DTXCID904254

> <qc_level>
DSSTox_Low

> <Canonical_QSARr>
C1=CC2C=CC=CC=2C2C=CC=CC=21

> <InChI_Code_QSARr>
InChI=1S/C14H10/c1-3-7-13-11(5-1)9-10-12-6-2-4-8-14(12)13/h1-10H

> <InChI Key_QSARr>
YNPNZTXNASCQKK-UHFFFAOYSA-N

> <Salt_Solvent>


> <Salt_Solvent_ID>
0

> <MPID>
98015

> <LogBCF>
3.4

> <Tr_1_Tst_0>
1

$$$$
100085
  Mrv171c012241911322D          

 13 13  0  0  0  0            999 V2000
    3.8841   -0.9957    0.0000 C   0  0  0  0  0  0  0  0  0  0  0  0
    3.1696   -0.5832    0.0000 C   0  0  0  0  0  0  0  0  0  0  0  0
    2.4552   -0.9957    0.0000 C   0  0  0  0  0  0  0  0  0  0  0  0
    1.7407   -0.5832    0.0000 C   0  0  0  0  0  0  0  0  0  0  0  0
    1.7407    0.2418    0.0000 Br  0  0  0  0  0  0  0  0  0  0  0  0
    1.0262   -0.9957    0.0000 C   0  0  0  0  0  0  0  0  0  0  0  0
    0.3118   -0.5832    0.0000 Br  0  0  0  0  0  0  0  0  0  0  0  0
    1.0262   -1.8207    0.0000 C   0  0  0  0  0  0  0  0  0  0  0  0
    0.3118   -2.2332    0.0000 Br  0  0  0  0  0  0  0  0  0  0  0  0
    1.7407   -2.2332    0.0000 C   0  0  0  0  0  0  0  0  0  0  0  0
    1.7407   -3.0582    0.0000 Br  0  0  0  0  0  0  0  0  0  0  0  0
    2.4552   -1.8207    0.0000 C   0  0  0  0  0  0  0  0  0  0  0  0
    3.1696   -2.2332    0.0000 Br  0  0  0  0  0  0  0  0  0  0  0  0
  1  2  1  0  0  0  0
  2  3  1  0  0  0  0
  4  3  1  0  0  0  0
  4  5  1  0  0  0  0
  6  4  2  0  0  0  0
  6  7  1  0  0  0  0
  8  6  1  0  0  0  0
  8  9  1  0  0  0  0
 10  8  2  0  0  0  0
 10 11  1  0  0  0  0
 12 10  1  0  0  0  0
  3 12  2  0  0  0  0
 12 13  1  0  0  0  0
M  END
> <ChemID>
100085

> <CAS>
85-22-3

> <Original_SMILES>
CCc1c(Br)c(Br)c(Br)c(Br)c1Br

> <preferred_name>
2,3,4,5,6-Pentabromoethylbenzene

> <dsstox_substance_id>
DTXSID7021782

> <dsstox_compound_id>
DTXCID701782

> <qc_level>
DSSTox_Low

> <Canonical_QSARr>
CCC1C(Br)=C(Br)C(Br)=C(Br)C=1Br

> <InChI_Code_QSARr>
InChI=1S/C8H5Br5/c1-2-3-4(9)6(11)8(13)7(12)5(3)10/h2H2,1H3

> <InChI Key_QSARr>
FIAXCDIQXHJNIX-UHFFFAOYSA-N

> <Salt_Solvent>


> <Salt_Solvent_ID>
0

> <MPID>
98016

> <LogBCF>
2.52

> <Tr_1_Tst_0>
1

$$$$
100086
  Mrv171c012241911322D          

 23 24  0  0  0  0            999 V2000
    3.1013   -1.5538    0.0000 C   0  0  0  0  0  0  0  0  0  0  0  0
    3.1013   -0.7288    0.0000 C   0  0  0  0  0  0  0  0  0  0  0  0
    2.3868   -0.3163    0.0000 C   0  0  0  0  0  0  0  0  0  0  0  0
    1.6723   -0.7288    0.0000 C   0  0  0  0  0  0  0  0  0  0  0  0
    1.6723   -1.5538    0.0000 C   0  0  0  0  0  0  0  0  0  0  0  0
    2.3868   -1.9663    0.0000 C   0  0  0  0  0  0  0  0  0  0  0  0
    2.3868   -2.7913    0.0000 C   0  0  0  0  0  0  0  0  0  0  0  0
    3.1013   -3.2038    0.0000 O   0  0  0  0  0  0  0  0  0  0  0  0
    1.6723   -3.2038    0.0000 O   0  0  0  0  0  0  0  0  0  0  0  0
    1.6723   -4.0288    0.0000 C   0  0  0  0  0  0  0  0  0  0  0  0
    0.9579   -4.4413    0.0000 C   0  0  0  0  0  0  0  0  0  0  0  0
    0.2434   -4.0288    0.0000 C   0  0  0  0  0  0  0  0  0  0  0  0
   -0.4711   -4.4413    0.0000 C   0  0  0  0  0  0  0  0  0  0  0  0
   -0.4711   -5.2663    0.0000 C   0  0  0  0  0  0  0  0  0  0  0  0
    0.2434   -5.6788    0.0000 C   0  0  0  0  0  0  0  0  0  0  0  0
    0.9579   -5.2663    0.0000 C   0  0  0  0  0  0  0  0  0  0  0  0
    3.8158   -1.9663    0.0000 C   0  0  0  0  0  0  0  0  0  0  0  0
    3.8158   -2.7913    0.0000 O   0  0  0  0  0  0  0  0  0  0  0  0
    4.5302   -1.5538    0.0000 O   0  0  0  0  0  0  0  0  0  0  0  0
    5.2447   -1.9663    0.0000 C   0  0  0  0  0  0  0  0  0  0  0  0
    5.9592   -1.5538    0.0000 C   0  0  0  0  0  0  0  0  0  0  0  0
    6.6736   -1.9663    0.0000 C   0  0  0  0  0  0  0  0  0  0  0  0
    7.3881   -1.5538    0.0000 C   0  0  0  0  0  0  0  0  0  0  0  0
  2  1  1  0  0  0  0
  3  2  2  0  0  0  0
  4  3  1  0  0  0  0
  5  4  2  0  0  0  0
  6  5  1  0  0  0  0
  1  6  2  0  0  0  0
  6  7  1  0  0  0  0
  7  8  2  0  0  0  0
  7  9  1  0  0  0  0
  9 10  1  0  0  0  0
 10 11  1  0  0  0  0
 12 11  2  0  0  0  0
 13 12  1  0  0  0  0
 14 13  2  0  0  0  0
 15 14  1  0  0  0  0
 16 15  2  0  0  0  0
 11 16  1  0  0  0  0
  1 17  1  0  0  0  0
 17 18  2  0  0  0  0
 17 19  1  0  0  0  0
 19 20  1  0  0  0  0
 20 21  1  0  0  0  0
 21 22  1  0  0  0  0
 22 23  1  0  0  0  0
M  END
> <ChemID>
100086

> <CAS>
85-68-7

> <Original_SMILES>
CCCCOC(=O)c1ccccc1C(=O)OCc1ccccc1

> <preferred_name>
Butyl benzyl phthalate

> <dsstox_substance_id>
DTXSID3020205

> <dsstox_compound_id>
DTXCID70205

> <qc_level>
DSSTox_Low

> <Canonical_QSARr>
CCCCOC(=O)C1C=CC=CC=1C(=O)OCC1C=CC=CC=1

> <InChI_Code_QSARr>
InChI=1S/C19H20O4/c1-2-3-13-22-18(20)16-11-7-8-12-17(16)19(21)23-14-15-9-5-4-6-10-15/h4-12H,2-3,13-14H2,1H3

> <InChI Key_QSARr>
IRIAEXORFWYRCZ-UHFFFAOYSA-N

> <Salt_Solvent>


> <Salt_Solvent_ID>
0

> <MPID>
98017

> <LogBCF>
1.21

> <Tr_1_Tst_0>
0

$$$$
100087
  Mrv171c012241911322D          

 15 16  0  0  0  0            999 V2000
    0.6753   -0.2112    0.0000 O   0  0  0  0  0  0  0  0  0  0  0  0
    0.6753   -1.0362    0.0000 N   0  0  0  0  0  0  0  0  0  0  0  0
    1.3898   -1.4487    0.0000 N   0  0  0  0  0  0  0  0  0  0  0  0
    1.3898   -2.2737    0.0000 C   0  0  0  0  0  0  0  0  0  0  0  0
    0.6753   -2.6862    0.0000 C   0  0  0  0  0  0  0  0  0  0  0  0
    0.6753   -3.5112    0.0000 C   0  0  0  0  0  0  0  0  0  0  0  0
    1.3898   -3.9237    0.0000 C   0  0  0  0  0  0  0  0  0  0  0  0
    2.1043   -3.5112    0.0000 C   0  0  0  0  0  0  0  0  0  0  0  0
    2.1043   -2.6862    0.0000 C   0  0  0  0  0  0  0  0  0  0  0  0
    2.1043   -1.0362    0.0000 C   0  0  0  0  0  0  0  0  0  0  0  0
    2.8188   -1.4487    0.0000 C   0  0  0  0  0  0  0  0  0  0  0  0
    3.5332   -1.0362    0.0000 C   0  0  0  0  0  0  0  0  0  0  0  0
    3.5332   -0.2112    0.0000 C   0  0  0  0  0  0  0  0  0  0  0  0
    2.8188    0.2013    0.0000 C   0  0  0  0  0  0  0  0  0  0  0  0
    2.1043   -0.2112    0.0000 C   0  0  0  0  0  0  0  0  0  0  0  0
  1  2  2  0  0  0  0
  2  3  1  0  0  0  0
  3  4  1  0  0  0  0
  5  4  1  0  0  0  0
  6  5  2  0  0  0  0
  7  6  1  0  0  0  0
  8  7  2  0  0  0  0
  9  8  1  0  0  0  0
  4  9  2  0  0  0  0
  3 10  1  0  0  0  0
 11 10  1  0  0  0  0
 12 11  2  0  0  0  0
 13 12  1  0  0  0  0
 14 13  2  0  0  0  0
 15 14  1  0  0  0  0
 10 15  2  0  0  0  0
M  END
> <ChemID>
100087

> <CAS>
86-30-6

> <Original_SMILES>
O=NN(c1ccccc1)c1ccccc1

> <preferred_name>
N-Nitrosodiphenylamine

> <dsstox_substance_id>
DTXSID6021030

> <dsstox_compound_id>
DTXCID001030

> <qc_level>
DSSTox_Low

> <Canonical_QSARr>
O=NN(C1C=CC=CC=1)C1C=CC=CC=1

> <InChI_Code_QSARr>
InChI=1S/C12H10N2O/c15-13-14(11-7-3-1-4-8-11)12-9-5-2-6-10-12/h1-10H

> <InChI Key_QSARr>
UBUCNCOMADRQHX-UHFFFAOYSA-N

> <Salt_Solvent>


> <Salt_Solvent_ID>
0

> <MPID>
98018

> <LogBCF>
1.33

> <Tr_1_Tst_0>
1

$$$$
100088
  Mrv171c012241911322D          

 13 15  0  0  0  0            999 V2000
    2.5498   -0.5036    0.0000 C   0  0  0  0  0  0  0  0  0  0  0  0
    3.1018    0.1095    0.0000 C   0  0  0  0  0  0  0  0  0  0  0  0
    3.9088   -0.0620    0.0000 C   0  0  0  0  0  0  0  0  0  0  0  0
    4.1637   -0.8466    0.0000 C   0  0  0  0  0  0  0  0  0  0  0  0
    3.6117   -1.4597    0.0000 C   0  0  0  0  0  0  0  0  0  0  0  0
    2.8047   -1.2882    0.0000 C   0  0  0  0  0  0  0  0  0  0  0  0
    2.1373   -1.7731    0.0000 C   0  0  0  0  0  0  0  0  0  0  0  0
    1.4699   -1.2882    0.0000 C   0  0  0  0  0  0  0  0  0  0  0  0
    0.6629   -1.4597    0.0000 C   0  0  0  0  0  0  0  0  0  0  0  0
    0.1109   -0.8466    0.0000 C   0  0  0  0  0  0  0  0  0  0  0  0
    0.3658   -0.0620    0.0000 C   0  0  0  0  0  0  0  0  0  0  0  0
    1.1728    0.1095    0.0000 C   0  0  0  0  0  0  0  0  0  0  0  0
    1.7248   -0.5036    0.0000 C   0  0  0  0  0  0  0  0  0  0  0  0
  2  1  1  0  0  0  0
  3  2  2  0  0  0  0
  4  3  1  0  0  0  0
  5  4  2  0  0  0  0
  6  5  1  0  0  0  0
  6  1  2  0  0  0  0
  7  6  1  0  0  0  0
  8  7  1  0  0  0  0
  8  9  1  0  0  0  0
  9 10  2  0  0  0  0
 10 11  1  0  0  0  0
 11 12  2  0  0  0  0
 12 13  1  0  0  0  0
  1 13  1  0  0  0  0
 13  8  2  0  0  0  0
M  END
> <ChemID>
100088

> <CAS>
86-73-7

> <Original_SMILES>
C1c2ccccc2-c2ccccc21

> <preferred_name>
Fluorene

> <dsstox_substance_id>
DTXSID8024105

> <dsstox_compound_id>
DTXCID604105

> <qc_level>
DSSTox_Low

> <Canonical_QSARr>
C1C2C=CC=CC=2C2C=CC=CC=21

> <InChI_Code_QSARr>
InChI=1S/C13H10/c1-3-7-12-10(5-1)9-11-6-2-4-8-13(11)12/h1-8H,9H2

> <InChI Key_QSARr>
NIHNNTQXNPWCJQ-UHFFFAOYSA-N

> <Salt_Solvent>


> <Salt_Solvent_ID>
0

> <MPID>
98019

> <LogBCF>
2.72

> <Tr_1_Tst_0>
1

$$$$
100089
  Mrv171c012241911322D          

 13 15  0  0  0  0            999 V2000
    2.3777   -0.7362    0.0000 C   0  0  0  0  0  0  0  0  0  0  0  0
    2.9297   -0.1231    0.0000 C   0  0  0  0  0  0  0  0  0  0  0  0
    3.7367   -0.2946    0.0000 C   0  0  0  0  0  0  0  0  0  0  0  0
    3.9916   -1.0793    0.0000 C   0  0  0  0  0  0  0  0  0  0  0  0
    3.4396   -1.6924    0.0000 C   0  0  0  0  0  0  0  0  0  0  0  0
    2.6326   -1.5208    0.0000 C   0  0  0  0  0  0  0  0  0  0  0  0
    1.9652   -2.0058    0.0000 N   0  0  0  0  0  0  0  0  0  0  0  0
    1.2977   -1.5208    0.0000 C   0  0  0  0  0  0  0  0  0  0  0  0
    0.4908   -1.6924    0.0000 C   0  0  0  0  0  0  0  0  0  0  0  0
   -0.0613   -1.0793    0.0000 C   0  0  0  0  0  0  0  0  0  0  0  0
    0.1937   -0.2946    0.0000 C   0  0  0  0  0  0  0  0  0  0  0  0
    1.0007   -0.1231    0.0000 C   0  0  0  0  0  0  0  0  0  0  0  0
    1.5527   -0.7362    0.0000 C   0  0  0  0  0  0  0  0  0  0  0  0
  2  1  2  0  0  0  0
  3  2  1  0  0  0  0
  4  3  2  0  0  0  0
  5  4  1  0  0  0  0
  6  5  2  0  0  0  0
  6  1  1  0  0  0  0
  7  6  1  0  0  0  0
  8  7  1  0  0  0  0
  8  9  1  0  0  0  0
  9 10  2  0  0  0  0
 10 11  1  0  0  0  0
 11 12  2  0  0  0  0
 12 13  1  0  0  0  0
  1 13  1  0  0  0  0
 13  8  2  0  0  0  0
M  END
> <ChemID>
100089

> <CAS>
86-74-8

> <Original_SMILES>
c1cccc2[nH]c3ccccc3c21

> <preferred_name>
Carbazole

> <dsstox_substance_id>
DTXSID4020248

> <dsstox_compound_id>
DTXCID40248

> <qc_level>
DSSTox_High

> <Canonical_QSARr>
C1=CC=CC2NC3=CC=CC=C3C=21

> <InChI_Code_QSARr>
InChI=1S/C12H9N/c1-3-7-11-9(5-1)10-6-2-4-8-12(10)13-11/h1-8,13H

> <InChI Key_QSARr>
UJOBWOGCFQCDNV-UHFFFAOYSA-N

> <Salt_Solvent>


> <Salt_Solvent_ID>
0

> <MPID>
98020

> <LogBCF>
2.23

> <Tr_1_Tst_0>
1

$$$$
100090
  Mrv171c012241911322D          

 14 15  0  0  0  0            999 V2000
    0.7638   -3.8012    0.0000 O   0  0  0  0  0  0  0  0  0  0  0  0
    0.7638   -2.9762    0.0000 C   0  0  0  0  0  0  0  0  0  0  0  0
    1.4783   -2.5637    0.0000 C   0  0  0  0  0  0  0  0  0  0  0  0
    1.4783   -1.7387    0.0000 C   0  0  0  0  0  0  0  0  0  0  0  0
    0.7638   -1.3262    0.0000 C   0  0  0  0  0  0  0  0  0  0  0  0
    0.7638   -0.5012    0.0000 C   0  0  0  0  0  0  0  0  0  0  0  0
    1.4783   -0.0887    0.0000 C   0  0  0  0  0  0  0  0  0  0  0  0
    2.1927   -0.5012    0.0000 C   0  0  0  0  0  0  0  0  0  0  0  0
    2.9072   -0.0887    0.0000 C   0  0  0  0  0  0  0  0  0  0  0  0
    3.6217   -0.5012    0.0000 C   0  0  0  0  0  0  0  0  0  0  0  0
    3.6217   -1.3262    0.0000 C   0  0  0  0  0  0  0  0  0  0  0  0
    2.9072   -1.7387    0.0000 C   0  0  0  0  0  0  0  0  0  0  0  0
    2.1927   -1.3262    0.0000 C   0  0  0  0  0  0  0  0  0  0  0  0
    0.0493   -2.5637    0.0000 O   0  0  0  0  0  0  0  0  0  0  0  0
  1  2  1  0  0  0  0
  2  3  1  0  0  0  0
  3  4  1  0  0  0  0
  5  4  1  0  0  0  0
  6  5  2  0  0  0  0
  7  6  1  0  0  0  0
  8  7  2  0  0  0  0
  8  9  1  0  0  0  0
  9 10  2  0  0  0  0
 10 11  1  0  0  0  0
 11 12  2  0  0  0  0
 12 13  1  0  0  0  0
  4 13  2  0  0  0  0
 13  8  1  0  0  0  0
  2 14  2  0  0  0  0
M  END
> <ChemID>
100090

> <CAS>
86-87-3

> <Original_SMILES>
OC(=O)Cc1cccc2ccccc21

> <preferred_name>
1-Naphthaleneacetic acid

> <dsstox_substance_id>
DTXSID8020915

> <dsstox_compound_id>
DTXCID60915

> <qc_level>
DSSTox_Low

> <Canonical_QSARr>
OC(=O)CC1C=CC=C2C=CC=CC2=1

> <InChI_Code_QSARr>
InChI=1S/C12H10O2/c13-12(14)8-10-6-3-5-9-4-1-2-7-11(9)10/h1-7H,8H2,(H,13,14)

> <InChI Key_QSARr>
PRPINYUDVPFIRX-UHFFFAOYSA-N

> <Salt_Solvent>


> <Salt_Solvent_ID>
0

> <MPID>
98021

> <LogBCF>
0.47

> <Tr_1_Tst_0>
0

$$$$
100091
  Mrv171c012241911322D          

 16 17  0  0  0  0            999 V2000
    3.1029   -1.1134    0.0000 C   0  0  0  0  0  0  0  0  0  0  0  0
    2.3884   -0.7009    0.0000 C   0  0  0  0  0  0  0  0  0  0  0  0
    1.6739   -1.1134    0.0000 C   0  0  0  0  0  0  0  0  0  0  0  0
    0.9595   -0.7009    0.0000 S   0  0  0  0  0  0  0  0  0  0  0  0
    0.2450   -0.2884    0.0000 O   0  0  0  0  0  0  0  0  0  0  0  0
    0.5470   -1.4154    0.0000 O   0  0  0  0  0  0  0  0  0  0  0  0
    1.3720    0.0136    0.0000 O   0  0  0  0  0  0  0  0  0  0  0  0
    1.6739   -1.9384    0.0000 C   0  0  0  0  0  0  0  0  0  0  0  0
    2.3884   -2.3509    0.0000 C   0  0  0  0  0  0  0  0  0  0  0  0
    2.3884   -3.1759    0.0000 O   0  0  0  0  0  0  0  0  0  0  0  0
    3.1029   -1.9384    0.0000 C   0  0  0  0  0  0  0  0  0  0  0  0
    3.8174   -2.3509    0.0000 C   0  0  0  0  0  0  0  0  0  0  0  0
    4.5318   -1.9384    0.0000 C   0  0  0  0  0  0  0  0  0  0  0  0
    4.5318   -1.1134    0.0000 C   0  0  0  0  0  0  0  0  0  0  0  0
    5.2463   -0.7009    0.0000 N   0  0  0  0  0  0  0  0  0  0  0  0
    3.8174   -0.7009    0.0000 C   0  0  0  0  0  0  0  0  0  0  0  0
  2  1  1  0  0  0  0
  3  2  2  0  0  0  0
  3  4  1  0  0  0  0
  4  5  2  0  0  0  0
  4  6  1  0  0  0  0
  4  7  2  0  0  0  0
  8  3  1  0  0  0  0
  9  8  2  0  0  0  0
  9 10  1  0  0  0  0
 11  9  1  0  0  0  0
 11  1  2  0  0  0  0
 12 11  1  0  0  0  0
 13 12  2  0  0  0  0
 14 13  1  0  0  0  0
 14 15  1  0  0  0  0
 16 14  2  0  0  0  0
  1 16  1  0  0  0  0
M  END
> <ChemID>
100091

> <CAS>
87-02-5

> <Original_SMILES>
Nc1cc2cc(cc(O)c2cc1)S(O)(=O)=O

> <preferred_name>
7-Amino-4-hydroxynaphthalene-2-sulfonic acid

> <dsstox_substance_id>
DTXSID7026520

> <dsstox_compound_id>
DTXCID206520

> <qc_level>
DSSTox_Low

> <Canonical_QSARr>
NC1=CC2C=C(C=C(O)C=2C=C1)S(O)(=O)=O

> <InChI_Code_QSARr>
InChI=1S/C10H9NO4S/c11-7-1-2-9-6(3-7)4-8(5-10(9)12)16(13,14)15/h1-5,12H,11H2,(H,13,14,15)

> <InChI Key_QSARr>
KYARBIJYVGJZLB-UHFFFAOYSA-N

> <Salt_Solvent>


> <Salt_Solvent_ID>
0

> <MPID>
98022

> <LogBCF>
0.38

> <Tr_1_Tst_0>
1

$$$$
100092
  Mrv171c012241911322D          

 11 11  0  0  0  0            999 V2000
    1.0392    1.0500    0.0000 C   0  0  0  0  0  0  0  0  0  0  0  0
    1.7537    1.4625    0.0000 O   0  0  0  0  0  0  0  0  0  0  0  0
    2.4682    1.0500    0.0000 C   0  0  0  0  0  0  0  0  0  0  0  0
    0.3248    1.4625    0.0000 C   0  0  0  0  0  0  0  0  0  0  0  0
    0.3248    2.2875    0.0000 Cl  0  0  0  0  0  0  0  0  0  0  0  0
   -0.3897    1.0500    0.0000 C   0  0  0  0  0  0  0  0  0  0  0  0
   -0.3897    0.2250    0.0000 C   0  0  0  0  0  0  0  0  0  0  0  0
   -1.1042   -0.1875    0.0000 Cl  0  0  0  0  0  0  0  0  0  0  0  0
    0.3248   -0.1875    0.0000 C   0  0  0  0  0  0  0  0  0  0  0  0
    1.0392    0.2250    0.0000 C   0  0  0  0  0  0  0  0  0  0  0  0
    1.7537   -0.1875    0.0000 Cl  0  0  0  0  0  0  0  0  0  0  0  0
  1  2  1  0  0  0  0
  2  3  1  0  0  0  0
  4  1  1  0  0  0  0
  4  5  1  0  0  0  0
  6  4  2  0  0  0  0
  7  6  1  0  0  0  0
  7  8  1  0  0  0  0
  9  7  2  0  0  0  0
 10  9  1  0  0  0  0
  1 10  2  0  0  0  0
 10 11  1  0  0  0  0
M  END
> <ChemID>
100092

> <CAS>
87-40-1

> <Original_SMILES>
COc1c(Cl)cc(Cl)cc1Cl

> <preferred_name>
Benzene, 1,3,5-trichloro-2-methoxy-

> <dsstox_substance_id>
DTXSID9073886

> <dsstox_compound_id>
DTXCID0048551

> <qc_level>
Public_High

> <Canonical_QSARr>
COC1C(Cl)=CC(Cl)=CC=1Cl

> <InChI_Code_QSARr>
InChI=1S/C7H5Cl3O/c1-11-7-5(9)2-4(8)3-6(7)10/h2-3H,1H3

> <InChI Key_QSARr>
WCVOGSZTONGSQY-UHFFFAOYSA-N

> <Salt_Solvent>


> <Salt_Solvent_ID>
0

> <MPID>
98023

> <LogBCF>
2.86

> <Tr_1_Tst_0>
1

$$$$
100093
  Mrv171c012241911322D          

  9  9  0  0  0  0            999 V2000
    2.3959   -0.7881    0.0000 Cl  0  0  0  0  0  0  0  0  0  0  0  0
    1.6815   -1.2006    0.0000 C   0  0  0  0  0  0  0  0  0  0  0  0
    0.9670   -0.7881    0.0000 C   0  0  0  0  0  0  0  0  0  0  0  0
    0.9670    0.0369    0.0000 Cl  0  0  0  0  0  0  0  0  0  0  0  0
    0.2525   -1.2006    0.0000 C   0  0  0  0  0  0  0  0  0  0  0  0
    0.2525   -2.0256    0.0000 C   0  0  0  0  0  0  0  0  0  0  0  0
    0.9670   -2.4381    0.0000 C   0  0  0  0  0  0  0  0  0  0  0  0
    1.6815   -2.0256    0.0000 C   0  0  0  0  0  0  0  0  0  0  0  0
    2.3959   -2.4381    0.0000 Cl  0  0  0  0  0  0  0  0  0  0  0  0
  1  2  1  0  0  0  0
  3  2  1  0  0  0  0
  3  4  1  0  0  0  0
  5  3  2  0  0  0  0
  6  5  1  0  0  0  0
  7  6  2  0  0  0  0
  8  7  1  0  0  0  0
  2  8  2  0  0  0  0
  8  9  1  0  0  0  0
M  END
> <ChemID>
100093

> <CAS>
87-61-6

> <Original_SMILES>
Clc1c(Cl)cccc1Cl

> <preferred_name>
1,2,3-Trichlorobenzene

> <dsstox_substance_id>
DTXSID8026193

> <dsstox_compound_id>
DTXCID706193

> <qc_level>
DSSTox_High

> <Canonical_QSARr>
ClC1C=CC=C(Cl)C=1Cl

> <InChI_Code_QSARr>
InChI=1S/C6H3Cl3/c7-4-2-1-3-5(8)6(4)9/h1-3H

> <InChI Key_QSARr>
RELMFMZEBKVZJC-UHFFFAOYSA-N

> <Salt_Solvent>


> <Salt_Solvent_ID>
0

> <MPID>
98024

> <LogBCF>
2.82

> <Tr_1_Tst_0>
1

$$$$
100094
  Mrv171c012241911322D          

  9  9  0  0  0  0            999 V2000
    2.3959   -0.7881    0.0000 O   0  0  0  0  0  0  0  0  0  0  0  0
    1.6815   -1.2006    0.0000 C   0  0  0  0  0  0  0  0  0  0  0  0
    0.9670   -0.7881    0.0000 C   0  0  0  0  0  0  0  0  0  0  0  0
    0.9670    0.0369    0.0000 Cl  0  0  0  0  0  0  0  0  0  0  0  0
    0.2525   -1.2006    0.0000 C   0  0  0  0  0  0  0  0  0  0  0  0
    0.2525   -2.0256    0.0000 C   0  0  0  0  0  0  0  0  0  0  0  0
    0.9670   -2.4381    0.0000 C   0  0  0  0  0  0  0  0  0  0  0  0
    1.6815   -2.0256    0.0000 C   0  0  0  0  0  0  0  0  0  0  0  0
    2.3959   -2.4381    0.0000 Cl  0  0  0  0  0  0  0  0  0  0  0  0
  1  2  1  0  0  0  0
  3  2  1  0  0  0  0
  3  4  1  0  0  0  0
  5  3  2  0  0  0  0
  6  5  1  0  0  0  0
  7  6  2  0  0  0  0
  8  7  1  0  0  0  0
  2  8  2  0  0  0  0
  8  9  1  0  0  0  0
M  END
> <ChemID>
100094

> <CAS>
87-65-0

> <Original_SMILES>
Oc1c(Cl)cccc1Cl

> <preferred_name>
2,6-Dichlorophenol

> <dsstox_substance_id>
DTXSID2025004

> <dsstox_compound_id>
DTXCID105004

> <qc_level>
DSSTox_Low

> <Canonical_QSARr>
OC1C(Cl)=CC=CC=1Cl

> <InChI_Code_QSARr>
InChI=1S/C6H4Cl2O/c7-4-2-1-3-5(8)6(4)9/h1-3,9H

> <InChI Key_QSARr>
HOLHYSJJBXSLMV-UHFFFAOYSA-N

> <Salt_Solvent>


> <Salt_Solvent_ID>
0

> <MPID>
98025

> <LogBCF>
1.08

> <Tr_1_Tst_0>
0

$$$$
100095
  Mrv171c012241911322D          

 10  9  0  0  0  0            999 V2000
    3.1905   -1.1745    0.0000 Cl  0  0  0  0  0  0  0  0  0  0  0  0
    2.3655   -1.1745    0.0000 C   0  0  0  0  0  0  0  0  0  0  0  0
    1.9530   -0.4601    0.0000 C   0  0  0  0  0  0  0  0  0  0  0  0
    2.3655    0.2544    0.0000 Cl  0  0  0  0  0  0  0  0  0  0  0  0
    1.1280   -0.4601    0.0000 C   0  0  0  0  0  0  0  0  0  0  0  0
    0.7155   -1.1745    0.0000 Cl  0  0  0  0  0  0  0  0  0  0  0  0
    0.7155    0.2544    0.0000 Cl  0  0  0  0  0  0  0  0  0  0  0  0
    1.9530   -1.8890    0.0000 C   0  0  0  0  0  0  0  0  0  0  0  0
    2.3655   -2.6035    0.0000 Cl  0  0  0  0  0  0  0  0  0  0  0  0
    1.1280   -1.8890    0.0000 Cl  0  0  0  0  0  0  0  0  0  0  0  0
  1  2  1  0  0  0  0
  2  3  1  0  0  0  0
  3  4  1  0  0  0  0
  3  5  2  0  0  0  0
  5  6  1  0  0  0  0
  5  7  1  0  0  0  0
  2  8  2  0  0  0  0
  8  9  1  0  0  0  0
  8 10  1  0  0  0  0
M  END
> <ChemID>
100095

> <CAS>
87-68-3

> <Original_SMILES>
ClC(Cl)=C(Cl)C(Cl)=C(Cl)Cl

> <preferred_name>
Hexachloro-1,3-butadiene

> <dsstox_substance_id>
DTXSID7020683

> <dsstox_compound_id>
DTXCID10683

> <qc_level>
DSSTox_Low

> <Canonical_QSARr>
ClC(Cl)=C(Cl)C(Cl)=C(Cl)Cl

> <InChI_Code_QSARr>
InChI=1S/C4Cl6/c5-1(3(7)8)2(6)4(9)10

> <InChI Key_QSARr>
RWNKSTSCBHKHTB-UHFFFAOYSA-N

> <Salt_Solvent>


> <Salt_Solvent_ID>
0

> <MPID>
98026

> <LogBCF>
3.82

> <Tr_1_Tst_0>
1

$$$$
100096
  Mrv171c012241911322D          

 12 12  0  0  0  0            999 V2000
    2.8589   -0.8238    0.0000 Br  0  0  0  0  0  0  0  0  0  0  0  0
    2.1444   -1.2363    0.0000 C   0  0  0  0  0  0  0  0  0  0  0  0
    1.4300   -0.8238    0.0000 C   0  0  0  0  0  0  0  0  0  0  0  0
    1.4300    0.0012    0.0000 Br  0  0  0  0  0  0  0  0  0  0  0  0
    0.7155   -1.2363    0.0000 C   0  0  0  0  0  0  0  0  0  0  0  0
    0.0010   -0.8238    0.0000 Br  0  0  0  0  0  0  0  0  0  0  0  0
    0.7155   -2.0613    0.0000 C   0  0  0  0  0  0  0  0  0  0  0  0
    0.0010   -2.4738    0.0000 Br  0  0  0  0  0  0  0  0  0  0  0  0
    1.4300   -2.4738    0.0000 C   0  0  0  0  0  0  0  0  0  0  0  0
    1.4300   -3.2988    0.0000 Br  0  0  0  0  0  0  0  0  0  0  0  0
    2.1444   -2.0613    0.0000 C   0  0  0  0  0  0  0  0  0  0  0  0
    2.8589   -2.4738    0.0000 Br  0  0  0  0  0  0  0  0  0  0  0  0
  1  2  1  0  0  0  0
  3  2  2  0  0  0  0
  3  4  1  0  0  0  0
  5  3  1  0  0  0  0
  5  6  1  0  0  0  0
  7  5  2  0  0  0  0
  7  8  1  0  0  0  0
  9  7  1  0  0  0  0
  9 10  1  0  0  0  0
 11  9  2  0  0  0  0
  2 11  1  0  0  0  0
 11 12  1  0  0  0  0
M  END
> <ChemID>
100096

> <CAS>
87-82-1

> <Original_SMILES>
Brc1c(Br)c(Br)c(Br)c(Br)c1Br

> <preferred_name>
Hexabromobenzene

> <dsstox_substance_id>
DTXSID1024128

> <dsstox_compound_id>
DTXCID404128

> <qc_level>
DSSTox_Low

> <Canonical_QSARr>
BrC1C(Br)=C(Br)C(Br)=C(Br)C=1Br

> <InChI_Code_QSARr>
InChI=1S/C6Br6/c7-1-2(8)4(10)6(12)5(11)3(1)9

> <InChI Key_QSARr>
CAYGQBVSOZLICD-UHFFFAOYSA-N

> <Salt_Solvent>


> <Salt_Solvent_ID>
0

> <MPID>
98027

> <LogBCF>
3.0

> <Tr_1_Tst_0>
1

$$$$
100097
  Mrv171c012241911322D          

 12 12  0  0  0  0            999 V2000
    2.3645   -1.0164    0.0000 C   0  0  0  0  0  0  0  0  0  0  0  0
    3.0790   -0.6039    0.0000 C   0  0  0  0  0  0  0  0  0  0  0  0
    1.6500   -0.6039    0.0000 C   0  0  0  0  0  0  0  0  0  0  0  0
    1.6500    0.2211    0.0000 Br  0  0  0  0  0  0  0  0  0  0  0  0
    0.9355   -1.0164    0.0000 C   0  0  0  0  0  0  0  0  0  0  0  0
    0.2211   -0.6039    0.0000 Br  0  0  0  0  0  0  0  0  0  0  0  0
    0.9355   -1.8414    0.0000 C   0  0  0  0  0  0  0  0  0  0  0  0
    0.2211   -2.2539    0.0000 Br  0  0  0  0  0  0  0  0  0  0  0  0
    1.6500   -2.2539    0.0000 C   0  0  0  0  0  0  0  0  0  0  0  0
    1.6500   -3.0789    0.0000 Br  0  0  0  0  0  0  0  0  0  0  0  0
    2.3645   -1.8414    0.0000 C   0  0  0  0  0  0  0  0  0  0  0  0
    3.0790   -2.2539    0.0000 Br  0  0  0  0  0  0  0  0  0  0  0  0
  1  2  1  0  0  0  0
  3  1  1  0  0  0  0
  3  4  1  0  0  0  0
  5  3  2  0  0  0  0
  5  6  1  0  0  0  0
  7  5  1  0  0  0  0
  7  8  1  0  0  0  0
  9  7  2  0  0  0  0
  9 10  1  0  0  0  0
 11  9  1  0  0  0  0
  1 11  2  0  0  0  0
 11 12  1  0  0  0  0
M  END
> <ChemID>
100097

> <CAS>
87-83-2

> <Original_SMILES>
Cc1c(Br)c(Br)c(Br)c(Br)c1Br

> <preferred_name>
Pentabromotoluene

> <dsstox_substance_id>
DTXSID3025833

> <dsstox_compound_id>
DTXCID205833

> <qc_level>
DSSTox_Low

> <Canonical_QSARr>
CC1C(Br)=C(Br)C(Br)=C(Br)C=1Br

> <InChI_Code_QSARr>
InChI=1S/C7H3Br5/c1-2-3(8)5(10)7(12)6(11)4(2)9/h1H3

> <InChI Key_QSARr>
OZHJEQVYCBTHJT-UHFFFAOYSA-N

> <Salt_Solvent>


> <Salt_Solvent_ID>
0

> <MPID>
98028

> <LogBCF>
2.43

> <Tr_1_Tst_0>
1

$$$$
100098
  Mrv171c012241911322D          

 12 12  0  0  0  0            999 V2000
    3.0761   -0.6015    0.0000 Br  0  0  0  0  0  0  0  0  0  0  0  0
    2.3616   -1.0140    0.0000 C   0  0  0  0  0  0  0  0  0  0  0  0
    1.6472   -0.6015    0.0000 C   0  0  0  0  0  0  0  0  0  0  0  0
    1.6472    0.2235    0.0000 Br  0  0  0  0  0  0  0  0  0  0  0  0
    0.9327   -1.0140    0.0000 C   0  0  0  0  0  0  0  0  0  0  0  0
    0.2182   -0.6015    0.0000 Br  0  0  0  0  0  0  0  0  0  0  0  0
    0.9327   -1.8390    0.0000 C   0  0  0  0  0  0  0  0  0  0  0  0
    0.2182   -2.2515    0.0000 Cl  0  0  0  0  0  0  0  0  0  0  0  0
    1.6472   -2.2515    0.0000 C   0  0  0  0  0  0  0  0  0  0  0  0
    1.6472   -3.0765    0.0000 Br  0  0  0  0  0  0  0  0  0  0  0  0
    2.3616   -1.8390    0.0000 C   0  0  0  0  0  0  0  0  0  0  0  0
    3.0761   -2.2515    0.0000 Br  0  0  0  0  0  0  0  0  0  0  0  0
  1  2  1  0  0  0  0
  3  2  1  0  0  0  0
  3  4  1  0  0  0  0
  5  3  1  0  0  0  0
  5  6  1  0  0  0  0
  7  5  1  0  0  0  0
  7  8  1  0  0  0  0
  9  7  1  0  0  0  0
  9 10  1  0  0  0  0
 11  9  1  0  0  0  0
  2 11  1  0  0  0  0
 11 12  1  0  0  0  0
M  END
> <ChemID>
100098

> <CAS>
87-84-3

> <Original_SMILES>
ClC1C(Br)C(Br)C(Br)C(Br)C1Br

> <preferred_name>
Pentabromochlorocyclohexane

> <dsstox_substance_id>
DTXSID4025828

> <dsstox_compound_id>
DTXCID905828

> <qc_level>
DSSTox_Low

> <Canonical_QSARr>
ClC1C(Br)C(Br)C(Br)C(Br)C1Br

> <InChI_Code_QSARr>
InChI=1S/C6H6Br5Cl/c7-1-2(8)4(10)6(12)5(11)3(1)9/h1-6H

> <InChI Key_QSARr>
UZOSVZSBPTTWIG-UHFFFAOYSA-N

> <Salt_Solvent>


> <Salt_Solvent_ID>
0

> <MPID>
98029

> <LogBCF>
2.41

> <Tr_1_Tst_0>
0

$$$$
100099
  Mrv171c012241911322D          

 12 12  0  0  0  0            999 V2000
    3.0761   -0.6015    0.0000 O   0  0  0  0  0  0  0  0  0  0  0  0
    2.3616   -1.0140    0.0000 C   0  0  0  0  0  0  0  0  0  0  0  0
    1.6472   -0.6015    0.0000 C   0  0  0  0  0  0  0  0  0  0  0  0
    1.6472    0.2235    0.0000 Cl  0  0  0  0  0  0  0  0  0  0  0  0
    0.9327   -1.0140    0.0000 C   0  0  0  0  0  0  0  0  0  0  0  0
    0.2182   -0.6015    0.0000 Cl  0  0  0  0  0  0  0  0  0  0  0  0
    0.9327   -1.8390    0.0000 C   0  0  0  0  0  0  0  0  0  0  0  0
    0.2182   -2.2515    0.0000 Cl  0  0  0  0  0  0  0  0  0  0  0  0
    1.6472   -2.2515    0.0000 C   0  0  0  0  0  0  0  0  0  0  0  0
    1.6472   -3.0765    0.0000 Cl  0  0  0  0  0  0  0  0  0  0  0  0
    2.3616   -1.8390    0.0000 C   0  0  0  0  0  0  0  0  0  0  0  0
    3.0761   -2.2515    0.0000 Cl  0  0  0  0  0  0  0  0  0  0  0  0
  1  2  1  0  0  0  0
  3  2  1  0  0  0  0
  3  4  1  0  0  0  0
  5  3  2  0  0  0  0
  5  6  1  0  0  0  0
  7  5  1  0  0  0  0
  7  8  1  0  0  0  0
  9  7  2  0  0  0  0
  9 10  1  0  0  0  0
 11  9  1  0  0  0  0
  2 11  2  0  0  0  0
 11 12  1  0  0  0  0
M  END
> <ChemID>
100099

> <CAS>
87-86-5

> <Original_SMILES>
Oc1c(Cl)c(Cl)c(Cl)c(Cl)c1Cl

> <preferred_name>
Pentachlorophenol

> <dsstox_substance_id>
DTXSID7021106

> <dsstox_compound_id>
DTXCID701106

> <qc_level>
DSSTox_Low

> <Canonical_QSARr>
OC1C(Cl)=C(Cl)C(Cl)=C(Cl)C=1Cl

> <InChI_Code_QSARr>
InChI=1S/C6HCl5O/c7-1-2(8)4(10)6(12)5(11)3(1)9/h12H

> <InChI Key_QSARr>
IZUPBVBPLAPZRR-UHFFFAOYSA-N

> <Salt_Solvent>


> <Salt_Solvent_ID>
0

> <MPID>
98030

> <LogBCF>
2.66

> <Tr_1_Tst_0>
1

$$$$
100100
  Mrv171c012241911322D          

 10 10  0  0  0  0            999 V2000
    3.0980   -0.6840    0.0000 O   0  0  0  0  0  0  0  0  0  0  0  0
    2.3835   -1.0965    0.0000 C   0  0  0  0  0  0  0  0  0  0  0  0
    1.6691   -0.6840    0.0000 C   0  0  0  0  0  0  0  0  0  0  0  0
    1.6691    0.1410    0.0000 Cl  0  0  0  0  0  0  0  0  0  0  0  0
    0.9546   -1.0965    0.0000 C   0  0  0  0  0  0  0  0  0  0  0  0
    0.9546   -1.9215    0.0000 C   0  0  0  0  0  0  0  0  0  0  0  0
    0.2401   -2.3340    0.0000 Cl  0  0  0  0  0  0  0  0  0  0  0  0
    1.6691   -2.3340    0.0000 C   0  0  0  0  0  0  0  0  0  0  0  0
    2.3835   -1.9215    0.0000 C   0  0  0  0  0  0  0  0  0  0  0  0
    3.0980   -2.3340    0.0000 Cl  0  0  0  0  0  0  0  0  0  0  0  0
  1  2  1  0  0  0  0
  3  2  1  0  0  0  0
  3  4  1  0  0  0  0
  5  3  2  0  0  0  0
  6  5  1  0  0  0  0
  6  7  1  0  0  0  0
  8  6  2  0  0  0  0
  9  8  1  0  0  0  0
  2  9  2  0  0  0  0
  9 10  1  0  0  0  0
M  END
> <ChemID>
100100

> <CAS>
88-06-2

> <Original_SMILES>
Oc1c(Cl)cc(Cl)cc1Cl

> <preferred_name>
2,4,6-Trichlorophenol

> <dsstox_substance_id>
DTXSID5021386

> <dsstox_compound_id>
DTXCID501386

> <qc_level>
DSSTox_High

> <Canonical_QSARr>
OC1C(Cl)=CC(Cl)=CC=1Cl

> <InChI_Code_QSARr>
InChI=1S/C6H3Cl3O/c7-3-1-4(8)6(10)5(9)2-3/h1-2,10H

> <InChI Key_QSARr>
LINPIYWFGCPVIE-UHFFFAOYSA-N

> <Salt_Solvent>


> <Salt_Solvent_ID>
0

> <MPID>
98031

> <LogBCF>
1.94

> <Tr_1_Tst_0>
1

$$$$
100101
  Mrv171c012241911322D          

 11 11  0  0  0  0            999 V2000
    0.2746   -1.2229    0.0000 C   0  0  0  0  0  0  0  0  0  0  0  0
    0.9891   -1.6354    0.0000 C   0  0  0  0  0  0  0  0  0  0  0  0
    0.9891   -2.4604    0.0000 C   0  0  0  0  0  0  0  0  0  0  0  0
    1.7036   -2.8729    0.0000 C   0  0  0  0  0  0  0  0  0  0  0  0
    2.4180   -2.4604    0.0000 C   0  0  0  0  0  0  0  0  0  0  0  0
    2.4180   -1.6354    0.0000 C   0  0  0  0  0  0  0  0  0  0  0  0
    1.7036   -1.2229    0.0000 C   0  0  0  0  0  0  0  0  0  0  0  0
    1.7036   -0.3979    0.0000 S   0  0  0  0  0  0  0  0  0  0  0  0
    1.7036    0.4271    0.0000 N   0  0  0  0  0  0  0  0  0  0  0  0
    2.5286   -0.3979    0.0000 O   0  0  0  0  0  0  0  0  0  0  0  0
    0.8786   -0.3979    0.0000 O   0  0  0  0  0  0  0  0  0  0  0  0
  1  2  1  0  0  0  0
  3  2  1  0  0  0  0
  4  3  2  0  0  0  0
  5  4  1  0  0  0  0
  6  5  2  0  0  0  0
  7  6  1  0  0  0  0
  2  7  2  0  0  0  0
  7  8  1  0  0  0  0
  8  9  1  0  0  0  0
  8 10  2  0  0  0  0
  8 11  2  0  0  0  0
M  END
> <ChemID>
100101

> <CAS>
88-19-7

> <Original_SMILES>
Cc1ccccc1S(N)(=O)=O

> <preferred_name>
o-Toluenesulfonamide

> <dsstox_substance_id>
DTXSID7021362

> <dsstox_compound_id>
DTXCID301362

> <qc_level>
DSSTox_Low

> <Canonical_QSARr>
CC1C=CC=CC=1S(N)(=O)=O

> <InChI_Code_QSARr>
InChI=1S/C7H9NO2S/c1-6-4-2-3-5-7(6)11(8,9)10/h2-5H,1H3,(H2,8,9,10)

> <InChI Key_QSARr>
YCMLQMDWSXFTIF-UHFFFAOYSA-N

> <Salt_Solvent>


> <Salt_Solvent_ID>
0

> <MPID>
98032

> <LogBCF>
0.41

> <Tr_1_Tst_0>
1

$$$$
100102
  Mrv171c012241911322D          

 12 12  0  0  0  0            999 V2000
    1.3335   -1.4946    0.0000 C   0  0  0  0  0  0  0  0  0  0  0  0
    2.0479   -1.0821    0.0000 S   0  0  0  0  0  0  0  0  0  0  0  0
    2.7624   -0.6696    0.0000 O   0  0  0  0  0  0  0  0  0  0  0  0
    1.6354   -0.3676    0.0000 O   0  0  0  0  0  0  0  0  0  0  0  0
    2.4604   -1.7965    0.0000 O   0  0  0  0  0  0  0  0  0  0  0  0
    0.6190   -1.0821    0.0000 C   0  0  0  0  0  0  0  0  0  0  0  0
    0.6190   -0.2571    0.0000 N   0  0  0  0  0  0  0  0  0  0  0  0
   -0.0955   -1.4946    0.0000 C   0  0  0  0  0  0  0  0  0  0  0  0
   -0.0955   -2.3196    0.0000 C   0  0  0  0  0  0  0  0  0  0  0  0
    0.6190   -2.7321    0.0000 C   0  0  0  0  0  0  0  0  0  0  0  0
    0.6190   -3.5571    0.0000 C   0  0  0  0  0  0  0  0  0  0  0  0
    1.3335   -2.3196    0.0000 C   0  0  0  0  0  0  0  0  0  0  0  0
  1  2  1  0  0  0  0
  2  3  2  0  0  0  0
  2  4  1  0  0  0  0
  2  5  2  0  0  0  0
  6  1  1  0  0  0  0
  6  7  1  0  0  0  0
  8  6  2  0  0  0  0
  9  8  1  0  0  0  0
 10  9  2  0  0  0  0
 10 11  1  0  0  0  0
 12 10  1  0  0  0  0
  1 12  2  0  0  0  0
M  END
> <ChemID>
100102

> <CAS>
88-44-8

> <Original_SMILES>
Cc1cc(c(N)cc1)S(O)(=O)=O

> <preferred_name>
2-Amino-5-methylbenzenesulfonic acid

> <dsstox_substance_id>
DTXSID7026526

> <dsstox_compound_id>
DTXCID606526

> <qc_level>
DSSTox_Low

> <Canonical_QSARr>
CC1C=C(C(N)=CC=1)S(O)(=O)=O

> <InChI_Code_QSARr>
InChI=1S/C7H9NO3S/c1-5-2-3-6(8)7(4-5)12(9,10)11/h2-4H,8H2,1H3,(H,9,10,11)

> <InChI Key_QSARr>
LTPSRQRIPCVMKQ-UHFFFAOYSA-N

> <Salt_Solvent>


> <Salt_Solvent_ID>
0

> <MPID>
98033

> <LogBCF>
0.6

> <Tr_1_Tst_0>
0

$$$$
100103
  Mrv171c012241911322D          

 10 10  0  0  0  0            999 V2000
    2.4136   -0.9140    0.0000 N   0  3  0  0  0  0  0  0  0  0  0  0
    1.6991   -1.3265    0.0000 C   0  0  0  0  0  0  0  0  0  0  0  0
    0.9846   -0.9140    0.0000 C   0  0  0  0  0  0  0  0  0  0  0  0
    0.9846   -0.0890    0.0000 C   0  0  0  0  0  0  0  0  0  0  0  0
    0.2701   -1.3265    0.0000 C   0  0  0  0  0  0  0  0  0  0  0  0
    0.2701   -2.1515    0.0000 C   0  0  0  0  0  0  0  0  0  0  0  0
    0.9846   -2.5640    0.0000 C   0  0  0  0  0  0  0  0  0  0  0  0
    1.6991   -2.1515    0.0000 C   0  0  0  0  0  0  0  0  0  0  0  0
    2.4136   -0.0890    0.0000 O   0  5  0  0  0  0  0  0  0  0  0  0
    3.1280   -1.3265    0.0000 O   0  0  0  0  0  0  0  0  0  0  0  0
  1  2  1  0  0  0  0
  3  2  1  0  0  0  0
  3  4  1  0  0  0  0
  5  3  2  0  0  0  0
  6  5  1  0  0  0  0
  7  6  2  0  0  0  0
  8  7  1  0  0  0  0
  2  8  2  0  0  0  0
  1  9  1  0  0  0  0
  1 10  2  0  0  0  0
M  CHG  2   1   1   9  -1
M  END
> <ChemID>
100103

> <CAS>
88-72-2

> <Original_SMILES>
Cc1ccccc1[N+]([O-])=O

> <preferred_name>
2-Nitrotoluene

> <dsstox_substance_id>
DTXSID4025791

> <dsstox_compound_id>
DTXCID005791

> <qc_level>
DSSTox_Low

> <Canonical_QSARr>
CC1=CC=CC=C1[N+]([O-])=O

> <InChI_Code_QSARr>
InChI=1S/C7H7NO2/c1-6-4-2-3-5-7(6)8(9)10/h2-5H,1H3

> <InChI Key_QSARr>
PLAZTCDQAHEYBI-UHFFFAOYSA-N

> <Salt_Solvent>


> <Salt_Solvent_ID>
0

> <MPID>
98034

> <LogBCF>
1.26

> <Tr_1_Tst_0>
1

$$$$
100104
  Mrv171c012241911322D          

 10 10  0  0  0  0            999 V2000
    0.1981   -1.1198    0.0000 Cl  0  0  0  0  0  0  0  0  0  0  0  0
    0.9126   -1.5323    0.0000 C   0  0  0  0  0  0  0  0  0  0  0  0
    0.9126   -2.3573    0.0000 C   0  0  0  0  0  0  0  0  0  0  0  0
    1.6271   -2.7698    0.0000 C   0  0  0  0  0  0  0  0  0  0  0  0
    2.3415   -2.3573    0.0000 C   0  0  0  0  0  0  0  0  0  0  0  0
    2.3415   -1.5323    0.0000 C   0  0  0  0  0  0  0  0  0  0  0  0
    1.6271   -1.1198    0.0000 C   0  0  0  0  0  0  0  0  0  0  0  0
    1.6271   -0.2948    0.0000 N   0  3  0  0  0  0  0  0  0  0  0  0
    0.9126    0.1177    0.0000 O   0  5  0  0  0  0  0  0  0  0  0  0
    2.3415    0.1177    0.0000 O   0  0  0  0  0  0  0  0  0  0  0  0
  1  2  1  0  0  0  0
  3  2  1  0  0  0  0
  4  3  2  0  0  0  0
  5  4  1  0  0  0  0
  6  5  2  0  0  0  0
  7  6  1  0  0  0  0
  2  7  2  0  0  0  0
  7  8  1  0  0  0  0
  8  9  1  0  0  0  0
  8 10  2  0  0  0  0
M  CHG  2   8   1   9  -1
M  END
> <ChemID>
100104

> <CAS>
88-73-3

> <Original_SMILES>
[O-][N+](=O)c1ccccc1Cl

> <preferred_name>
1-Chloro-2-nitrobenzene

> <dsstox_substance_id>
DTXSID0020280

> <dsstox_compound_id>
DTXCID80280

> <qc_level>
DSSTox_Low

> <Canonical_QSARr>
[O-][N+](=O)C1C=CC=CC=1Cl

> <InChI_Code_QSARr>
InChI=1S/C6H4ClNO2/c7-5-3-1-2-4-6(5)8(9)10/h1-4H

> <InChI Key_QSARr>
BFCFYVKQTRLZHA-UHFFFAOYSA-N

> <Salt_Solvent>


> <Salt_Solvent_ID>
0

> <MPID>
98035

> <LogBCF>
1.17

> <Tr_1_Tst_0>
1

$$$$
100105
  Mrv171c012241911322D          

 10 10  0  0  0  0            999 V2000
    2.4130   -0.9135    0.0000 N   0  3  0  0  0  0  0  0  0  0  0  0
    1.6985   -1.3260    0.0000 C   0  0  0  0  0  0  0  0  0  0  0  0
    0.9840   -0.9135    0.0000 C   0  0  0  0  0  0  0  0  0  0  0  0
    0.9840   -0.0885    0.0000 N   0  0  0  0  0  0  0  0  0  0  0  0
    0.2696   -1.3260    0.0000 C   0  0  0  0  0  0  0  0  0  0  0  0
    0.2696   -2.1510    0.0000 C   0  0  0  0  0  0  0  0  0  0  0  0
    0.9840   -2.5635    0.0000 C   0  0  0  0  0  0  0  0  0  0  0  0
    1.6985   -2.1510    0.0000 C   0  0  0  0  0  0  0  0  0  0  0  0
    2.4130   -0.0885    0.0000 O   0  5  0  0  0  0  0  0  0  0  0  0
    3.1275   -1.3260    0.0000 O   0  0  0  0  0  0  0  0  0  0  0  0
  1  2  1  0  0  0  0
  3  2  1  0  0  0  0
  3  4  1  0  0  0  0
  5  3  2  0  0  0  0
  6  5  1  0  0  0  0
  7  6  2  0  0  0  0
  8  7  1  0  0  0  0
  2  8  2  0  0  0  0
  1  9  1  0  0  0  0
  1 10  2  0  0  0  0
M  CHG  2   1   1   9  -1
M  END
> <ChemID>
100105

> <CAS>
88-74-4

> <Original_SMILES>
Nc1ccccc1[N+]([O-])=O

> <preferred_name>
2-Nitroaniline

> <dsstox_substance_id>
DTXSID1025726

> <dsstox_compound_id>
DTXCID905726

> <qc_level>
DSSTox_Low

> <Canonical_QSARr>
NC1=CC=CC=C1[N+]([O-])=O

> <InChI_Code_QSARr>
InChI=1S/C6H6N2O2/c7-5-3-1-2-4-6(5)8(9)10/h1-4H,7H2

> <InChI Key_QSARr>
DPJCXCZTLWNFOH-UHFFFAOYSA-N

> <Salt_Solvent>


> <Salt_Solvent_ID>
0

> <MPID>
98036

> <LogBCF>
1.0

> <Tr_1_Tst_0>
1

$$$$
100106
  Mrv171c012241911322D          

 10 10  0  0  0  0            999 V2000
    0.1981   -1.1198    0.0000 O   0  0  0  0  0  0  0  0  0  0  0  0
    0.9126   -1.5323    0.0000 C   0  0  0  0  0  0  0  0  0  0  0  0
    0.9126   -2.3573    0.0000 C   0  0  0  0  0  0  0  0  0  0  0  0
    1.6271   -2.7698    0.0000 C   0  0  0  0  0  0  0  0  0  0  0  0
    2.3415   -2.3573    0.0000 C   0  0  0  0  0  0  0  0  0  0  0  0
    2.3415   -1.5323    0.0000 C   0  0  0  0  0  0  0  0  0  0  0  0
    1.6271   -1.1198    0.0000 C   0  0  0  0  0  0  0  0  0  0  0  0
    1.6271   -0.2948    0.0000 N   0  3  0  0  0  0  0  0  0  0  0  0
    0.9126    0.1177    0.0000 O   0  0  0  0  0  0  0  0  0  0  0  0
    2.3415    0.1177    0.0000 O   0  5  0  0  0  0  0  0  0  0  0  0
  1  2  1  0  0  0  0
  3  2  1  0  0  0  0
  4  3  2  0  0  0  0
  5  4  1  0  0  0  0
  6  5  2  0  0  0  0
  7  6  1  0  0  0  0
  2  7  2  0  0  0  0
  7  8  1  0  0  0  0
  8  9  2  0  0  0  0
  8 10  1  0  0  0  0
M  CHG  2   8   1  10  -1
M  END
> <ChemID>
100106

> <CAS>
88-75-5

> <Original_SMILES>
[O-][N+](=O)c1ccccc1O

> <preferred_name>
2-Nitrophenol

> <dsstox_substance_id>
DTXSID1021790

> <dsstox_compound_id>
DTXCID201790

> <qc_level>
DSSTox_Low

> <Canonical_QSARr>
[O-][N+](=O)C1C=CC=CC=1O

> <InChI_Code_QSARr>
InChI=1S/C6H5NO3/c8-6-4-2-1-3-5(6)7(9)10/h1-4,8H

> <InChI Key_QSARr>
IQUPABOKLQSFBK-UHFFFAOYSA-N

> <Salt_Solvent>


> <Salt_Solvent_ID>
0

> <MPID>
98037

> <LogBCF>
1.34

> <Tr_1_Tst_0>
0

$$$$
100107
  Mrv171c012241911322D          

 17 17  0  0  0  0            999 V2000
    3.5763   -1.5265    0.0000 O   0  0  0  0  0  0  0  0  0  0  0  0
    2.8618   -1.9390    0.0000 C   0  0  0  0  0  0  0  0  0  0  0  0
    2.1474   -1.5265    0.0000 C   0  0  0  0  0  0  0  0  0  0  0  0
    2.1474   -0.7015    0.0000 C   0  0  0  0  0  0  0  0  0  0  0  0
    1.4329   -0.2890    0.0000 C   0  0  0  0  0  0  0  0  0  0  0  0
    2.8618   -0.2890    0.0000 C   0  0  0  0  0  0  0  0  0  0  0  0
    2.8618    0.5360    0.0000 C   0  0  0  0  0  0  0  0  0  0  0  0
    1.4329   -1.9390    0.0000 C   0  0  0  0  0  0  0  0  0  0  0  0
    1.4329   -2.7640    0.0000 C   0  0  0  0  0  0  0  0  0  0  0  0
    0.7184   -3.1765    0.0000 N   0  3  0  0  0  0  0  0  0  0  0  0
    0.7184   -4.0015    0.0000 O   0  5  0  0  0  0  0  0  0  0  0  0
    0.0040   -2.7640    0.0000 O   0  0  0  0  0  0  0  0  0  0  0  0
    2.1474   -3.1765    0.0000 C   0  0  0  0  0  0  0  0  0  0  0  0
    2.8618   -2.7640    0.0000 C   0  0  0  0  0  0  0  0  0  0  0  0
    3.5763   -3.1765    0.0000 N   0  3  0  0  0  0  0  0  0  0  0  0
    4.2908   -2.7640    0.0000 O   0  5  0  0  0  0  0  0  0  0  0  0
    3.5763   -4.0015    0.0000 O   0  0  0  0  0  0  0  0  0  0  0  0
  1  2  1  0  0  0  0
  3  2  1  0  0  0  0
  3  4  1  0  0  0  0
  4  5  1  0  0  0  0
  4  6  1  0  0  0  0
  6  7  1  0  0  0  0
  8  3  2  0  0  0  0
  9  8  1  0  0  0  0
  9 10  1  0  0  0  0
 10 11  1  0  0  0  0
 10 12  2  0  0  0  0
 13  9  2  0  0  0  0
 14 13  1  0  0  0  0
  2 14  2  0  0  0  0
 14 15  1  0  0  0  0
 15 16  1  0  0  0  0
 15 17  2  0  0  0  0
M  CHG  4  10   1  11  -1  15   1  16  -1
M  END
> <ChemID>
100107

> <CAS>
88-85-7

> <Original_SMILES>
CCC(C)c1cc(cc(c1O)[N+]([O-])=O)[N+]([O-])=O

> <preferred_name>
Dinoseb

> <dsstox_substance_id>
DTXSID3020207

> <dsstox_compound_id>
DTXCID30207

> <qc_level>
DSSTox_High

> <Canonical_QSARr>
CCC(C)C1=CC(=CC(=C1O)[N+]([O-])=O)[N+]([O-])=O

> <InChI_Code_QSARr>
InChI=1S/C10H12N2O5/c1-3-6(2)8-4-7(11(14)15)5-9(10(8)13)12(16)17/h4-6,13H,3H2,1-2H3

> <InChI Key_QSARr>
OWZPCEFYPSAJFR-UHFFFAOYSA-N

> <Salt_Solvent>


> <Salt_Solvent_ID>
0

> <MPID>
98038

> <LogBCF>
1.79

> <Tr_1_Tst_0>
1

$$$$
100108
  Mrv171c012241911322D          

 16 16  0  0  0  0            999 V2000
    3.4382   -1.5088    0.0000 N   0  3  0  0  0  0  0  0  0  0  0  0
    2.7237   -1.9213    0.0000 C   0  0  0  0  0  0  0  0  0  0  0  0
    2.0093   -1.5088    0.0000 C   0  0  0  0  0  0  0  0  0  0  0  0
    2.0093   -0.6838    0.0000 O   0  0  0  0  0  0  0  0  0  0  0  0
    1.2948   -1.9213    0.0000 C   0  0  0  0  0  0  0  0  0  0  0  0
    0.5803   -1.5088    0.0000 N   0  3  0  0  0  0  0  0  0  0  0  0
   -0.1341   -1.9213    0.0000 O   0  5  0  0  0  0  0  0  0  0  0  0
    0.5803   -0.6838    0.0000 O   0  0  0  0  0  0  0  0  0  0  0  0
    1.2948   -2.7463    0.0000 C   0  0  0  0  0  0  0  0  0  0  0  0
    2.0093   -3.1588    0.0000 C   0  0  0  0  0  0  0  0  0  0  0  0
    2.0093   -3.9838    0.0000 N   0  3  0  0  0  0  0  0  0  0  0  0
    2.7237   -4.3963    0.0000 O   0  5  0  0  0  0  0  0  0  0  0  0
    1.2948   -4.3963    0.0000 O   0  0  0  0  0  0  0  0  0  0  0  0
    2.7237   -2.7463    0.0000 C   0  0  0  0  0  0  0  0  0  0  0  0
    4.1527   -1.9213    0.0000 O   0  5  0  0  0  0  0  0  0  0  0  0
    3.4382   -0.6838    0.0000 O   0  0  0  0  0  0  0  0  0  0  0  0
  1  2  1  0  0  0  0
  3  2  1  0  0  0  0
  3  4  1  0  0  0  0
  5  3  2  0  0  0  0
  5  6  1  0  0  0  0
  6  7  1  0  0  0  0
  6  8  2  0  0  0  0
  9  5  1  0  0  0  0
 10  9  2  0  0  0  0
 10 11  1  0  0  0  0
 11 12  1  0  0  0  0
 11 13  2  0  0  0  0
 14 10  1  0  0  0  0
  2 14  2  0  0  0  0
  1 15  1  0  0  0  0
  1 16  2  0  0  0  0
M  CHG  6   1   1   6   1   7  -1  11   1  12  -1  15  -1
M  END
> <ChemID>
100108

> <CAS>
88-89-1

> <Original_SMILES>
[O-][N+](=O)c1cc(c(O)c(c1)[N+]([O-])=O)[N+]([O-])=O

> <preferred_name>
Picric acid

> <dsstox_substance_id>
DTXSID4025909

> <dsstox_compound_id>
DTXCID905909

> <qc_level>
DSSTox_Low

> <Canonical_QSARr>
[O-][N+](=O)C1=CC(=C(O)C(=C1)[N+]([O-])=O)[N+]([O-])=O

> <InChI_Code_QSARr>
InChI=1S/C6H3N3O7/c10-6-4(8(13)14)1-3(7(11)12)2-5(6)9(15)16/h1-2,10H

> <InChI Key_QSARr>
OXNIZHLAWKMVMX-UHFFFAOYSA-N

> <Salt_Solvent>


> <Salt_Solvent_ID>
0

> <MPID>
98039

> <LogBCF>
0.34

> <Tr_1_Tst_0>
1

$$$$
100109
  Mrv171c012241911322D          

 12 12  0  0  0  0            999 V2000
    1.2682   -2.0282    0.0000 C   0  0  0  0  0  0  0  0  0  0  0  0
    0.5537   -1.6157    0.0000 C   0  0  0  0  0  0  0  0  0  0  0  0
    0.5537   -0.7907    0.0000 O   0  0  0  0  0  0  0  0  0  0  0  0
   -0.1608   -2.0282    0.0000 O   0  0  0  0  0  0  0  0  0  0  0  0
    1.2682   -2.8532    0.0000 C   0  0  0  0  0  0  0  0  0  0  0  0
    1.9827   -3.2657    0.0000 C   0  0  0  0  0  0  0  0  0  0  0  0
    2.6971   -2.8532    0.0000 C   0  0  0  0  0  0  0  0  0  0  0  0
    2.6971   -2.0282    0.0000 C   0  0  0  0  0  0  0  0  0  0  0  0
    1.9827   -1.6157    0.0000 C   0  0  0  0  0  0  0  0  0  0  0  0
    1.9827   -0.7907    0.0000 C   0  0  0  0  0  0  0  0  0  0  0  0
    1.2682   -0.3782    0.0000 O   0  0  0  0  0  0  0  0  0  0  0  0
    2.6971   -0.3782    0.0000 O   0  0  0  0  0  0  0  0  0  0  0  0
  1  2  1  0  0  0  0
  2  3  1  0  0  0  0
  2  4  2  0  0  0  0
  5  1  1  0  0  0  0
  6  5  1  0  0  0  0
  7  6  2  0  0  0  0
  8  7  1  0  0  0  0
  9  8  1  0  0  0  0
  1  9  1  0  0  0  0
  9 10  1  0  0  0  0
 10 11  1  0  0  0  0
 10 12  2  0  0  0  0
M  END
> <ChemID>
100109

> <CAS>
88-98-2

> <Original_SMILES>
OC(=O)C1CC=CCC1C(O)=O

> <preferred_name>


> <dsstox_substance_id>
DTXSID80861676

> <dsstox_compound_id>
DTXCID80810563

> <qc_level>


> <Canonical_QSARr>
OC(=O)C1CC=CCC1C(O)=O

> <InChI_Code_QSARr>
InChI=1S/C8H10O4/c9-7(10)5-3-1-2-4-6(5)8(11)12/h1-2,5-6H,3-4H2,(H,9,10)(H,11,12)

> <InChI Key_QSARr>
ILUAAIDVFMVTAU-UHFFFAOYSA-N

> <Salt_Solvent>


> <Salt_Solvent_ID>
0

> <MPID>
98040

> <LogBCF>
0.3

> <Tr_1_Tst_0>
1

$$$$
100110
  Mrv171c012241911322D          

 11 11  0  0  0  0            999 V2000
    0.9743    0.7875    0.0000 C   0  0  0  0  0  0  0  0  0  0  0  0
    1.6887    0.3750    0.0000 N   0  3  0  0  0  0  0  0  0  0  0  0
    1.6887   -0.4500    0.0000 O   0  5  0  0  0  0  0  0  0  0  0  0
    2.4032    0.7875    0.0000 O   0  0  0  0  0  0  0  0  0  0  0  0
    0.9743    1.6125    0.0000 C   0  0  0  0  0  0  0  0  0  0  0  0
    0.2598    2.0250    0.0000 C   0  0  0  0  0  0  0  0  0  0  0  0
    0.2598    2.8500    0.0000 Cl  0  0  0  0  0  0  0  0  0  0  0  0
   -0.4547    1.6125    0.0000 C   0  0  0  0  0  0  0  0  0  0  0  0
   -0.4547    0.7875    0.0000 C   0  0  0  0  0  0  0  0  0  0  0  0
    0.2598    0.3750    0.0000 C   0  0  0  0  0  0  0  0  0  0  0  0
    0.2598   -0.4500    0.0000 C   0  0  0  0  0  0  0  0  0  0  0  0
  1  2  1  0  0  0  0
  2  3  1  0  0  0  0
  2  4  2  0  0  0  0
  5  1  1  0  0  0  0
  6  5  2  0  0  0  0
  6  7  1  0  0  0  0
  8  6  1  0  0  0  0
  9  8  2  0  0  0  0
 10  9  1  0  0  0  0
  1 10  2  0  0  0  0
 10 11  1  0  0  0  0
M  CHG  2   2   1   3  -1
M  END
> <ChemID>
100110

> <CAS>
89-59-8

> <Original_SMILES>
Cc1ccc(Cl)cc1[N+]([O-])=O

> <preferred_name>
Benzene, 4-chloro-1-methyl-2-nitro-

> <dsstox_substance_id>
DTXSID4058994

> <dsstox_compound_id>
DTXCID2048662

> <qc_level>
Public_High

> <Canonical_QSARr>
CC1C=CC(Cl)=CC=1[N+]([O-])=O

> <InChI_Code_QSARr>
InChI=1S/C7H6ClNO2/c1-5-2-3-6(8)4-7(5)9(10)11/h2-4H,1H3

> <InChI Key_QSARr>
SQFLFRQWPBEDHM-UHFFFAOYSA-N

> <Salt_Solvent>


> <Salt_Solvent_ID>
0

> <MPID>
98041

> <LogBCF>
1.92

> <Tr_1_Tst_0>
0

$$$$
100111
  Mrv171c012241911322D          

 11 11  0  0  0  0            999 V2000
    2.1452   -1.6565    0.0000 C   0  0  0  0  0  0  0  0  0  0  0  0
    2.8596   -1.2440    0.0000 Cl  0  0  0  0  0  0  0  0  0  0  0  0
    1.4307   -1.2440    0.0000 C   0  0  0  0  0  0  0  0  0  0  0  0
    1.4307   -0.4190    0.0000 N   0  3  0  0  0  0  0  0  0  0  0  0
    0.7162   -0.0065    0.0000 O   0  0  0  0  0  0  0  0  0  0  0  0
    2.1452   -0.0065    0.0000 O   0  5  0  0  0  0  0  0  0  0  0  0
    0.7162   -1.6565    0.0000 C   0  0  0  0  0  0  0  0  0  0  0  0
    0.7162   -2.4815    0.0000 C   0  0  0  0  0  0  0  0  0  0  0  0
    0.0018   -2.8940    0.0000 Cl  0  0  0  0  0  0  0  0  0  0  0  0
    1.4307   -2.8940    0.0000 C   0  0  0  0  0  0  0  0  0  0  0  0
    2.1452   -2.4815    0.0000 C   0  0  0  0  0  0  0  0  0  0  0  0
  1  2  1  0  0  0  0
  3  1  2  0  0  0  0
  3  4  1  0  0  0  0
  4  5  2  0  0  0  0
  4  6  1  0  0  0  0
  7  3  1  0  0  0  0
  8  7  2  0  0  0  0
  8  9  1  0  0  0  0
 10  8  1  0  0  0  0
 11 10  2  0  0  0  0
  1 11  1  0  0  0  0
M  CHG  2   4   1   6  -1
M  END
> <ChemID>
100111

> <CAS>
89-61-2

> <Original_SMILES>
[O-][N+](=O)c1cc(Cl)ccc1Cl

> <preferred_name>
1,4-Dichloro-2-nitrobenzene

> <dsstox_substance_id>
DTXSID7052602

> <dsstox_compound_id>
DTXCID1031175

> <qc_level>
DSSTox_Low

> <Canonical_QSARr>
[O-][N+](=O)C1C=C(Cl)C=CC=1Cl

> <InChI_Code_QSARr>
InChI=1S/C6H3Cl2NO2/c7-4-1-2-5(8)6(3-4)9(10)11/h1-3H

> <InChI Key_QSARr>
RZKKOBGFCAHLCZ-UHFFFAOYSA-N

> <Salt_Solvent>


> <Salt_Solvent_ID>
0

> <MPID>
98042

> <LogBCF>
2.05

> <Tr_1_Tst_0>
1

$$$$
100112
  Mrv171c012241911322D          

 11 11  0  0  0  0            999 V2000
    2.1433   -2.7804    0.0000 N   0  0  0  0  0  0  0  0  0  0  0  0
    2.1433   -1.9554    0.0000 C   0  0  0  0  0  0  0  0  0  0  0  0
    2.8578   -1.5429    0.0000 C   0  0  0  0  0  0  0  0  0  0  0  0
    2.8578   -0.7179    0.0000 C   0  0  0  0  0  0  0  0  0  0  0  0
    2.1433   -0.3054    0.0000 C   0  0  0  0  0  0  0  0  0  0  0  0
    2.1433    0.5196    0.0000 Cl  0  0  0  0  0  0  0  0  0  0  0  0
    1.4289   -0.7179    0.0000 C   0  0  0  0  0  0  0  0  0  0  0  0
    1.4289   -1.5429    0.0000 C   0  0  0  0  0  0  0  0  0  0  0  0
    0.7144   -1.9554    0.0000 N   0  3  0  0  0  0  0  0  0  0  0  0
    0.7144   -2.7804    0.0000 O   0  0  0  0  0  0  0  0  0  0  0  0
   -0.0001   -1.5429    0.0000 O   0  5  0  0  0  0  0  0  0  0  0  0
  1  2  1  0  0  0  0
  3  2  1  0  0  0  0
  4  3  2  0  0  0  0
  5  4  1  0  0  0  0
  5  6  1  0  0  0  0
  7  5  2  0  0  0  0
  8  7  1  0  0  0  0
  2  8  2  0  0  0  0
  8  9  1  0  0  0  0
  9 10  2  0  0  0  0
  9 11  1  0  0  0  0
M  CHG  2   9   1  11  -1
M  END
> <ChemID>
100112

> <CAS>
89-63-4

> <Original_SMILES>
Nc1ccc(Cl)cc1[N+]([O-])=O

> <preferred_name>
4-Chloro-2-nitroaniline

> <dsstox_substance_id>
DTXSID4030384

> <dsstox_compound_id>
DTXCID2010384

> <qc_level>
DSSTox_Low

> <Canonical_QSARr>
NC1C=CC(Cl)=CC=1[N+]([O-])=O

> <InChI_Code_QSARr>
InChI=1S/C6H5ClN2O2/c7-4-1-2-5(8)6(3-4)9(10)11/h1-3H,8H2

> <InChI Key_QSARr>
PBGKNXWGYQPUJK-UHFFFAOYSA-N

> <Salt_Solvent>


> <Salt_Solvent_ID>
0

> <MPID>
98043

> <LogBCF>
1.04

> <Tr_1_Tst_0>
1

$$$$
100113
  Mrv171c012241911322D          

 12 12  0  0  0  0            999 V2000
    2.8466   -0.7745    0.0000 N   0  3  0  0  0  0  0  0  0  0  0  0
    2.1322   -1.1870    0.0000 C   0  0  0  0  0  0  0  0  0  0  0  0
    1.4177   -0.7745    0.0000 C   0  0  0  0  0  0  0  0  0  0  0  0
    1.4177    0.0505    0.0000 Cl  0  0  0  0  0  0  0  0  0  0  0  0
    0.7032   -1.1870    0.0000 C   0  0  0  0  0  0  0  0  0  0  0  0
    0.7032   -2.0120    0.0000 C   0  0  0  0  0  0  0  0  0  0  0  0
   -0.0113   -2.4245    0.0000 Cl  0  0  0  0  0  0  0  0  0  0  0  0
    1.4177   -2.4245    0.0000 C   0  0  0  0  0  0  0  0  0  0  0  0
    1.4177   -3.2495    0.0000 Cl  0  0  0  0  0  0  0  0  0  0  0  0
    2.1322   -2.0120    0.0000 C   0  0  0  0  0  0  0  0  0  0  0  0
    2.8466    0.0505    0.0000 O   0  5  0  0  0  0  0  0  0  0  0  0
    3.5611   -1.1870    0.0000 O   0  0  0  0  0  0  0  0  0  0  0  0
  1  2  1  0  0  0  0
  3  2  1  0  0  0  0
  3  4  1  0  0  0  0
  5  3  2  0  0  0  0
  6  5  1  0  0  0  0
  6  7  1  0  0  0  0
  8  6  2  0  0  0  0
  8  9  1  0  0  0  0
 10  8  1  0  0  0  0
  2 10  2  0  0  0  0
  1 11  1  0  0  0  0
  1 12  2  0  0  0  0
M  CHG  2   1   1  11  -1
M  END
> <ChemID>
100113

> <CAS>
89-69-0

> <Original_SMILES>
[O-][N+](=O)c1cc(Cl)c(Cl)cc1Cl

> <preferred_name>
2,4,5-Trichloronitrobenzene

> <dsstox_substance_id>
DTXSID5026203

> <dsstox_compound_id>
DTXCID206203

> <qc_level>
DSSTox_Low

> <Canonical_QSARr>
[O-][N+](=O)C1=CC(Cl)=C(Cl)C=C1Cl

> <InChI_Code_QSARr>
InChI=1S/C6H2Cl3NO2/c7-3-1-5(9)6(10(11)12)2-4(3)8/h1-2H

> <InChI Key_QSARr>
IBRBMZRLVYKVRF-UHFFFAOYSA-N

> <Salt_Solvent>


> <Salt_Solvent_ID>
0

> <MPID>
98044

> <LogBCF>
1.84

> <Tr_1_Tst_0>
1

$$$$
100114
  Mrv171c012241911322D          

  9  9  0  0  0  0            999 V2000
    0.3969    0.8708    0.0000 C   0  0  0  0  0  0  0  0  0  0  0  0
   -0.3175    1.2833    0.0000 C   0  0  0  0  0  0  0  0  0  0  0  0
   -0.3175    2.1083    0.0000 N   0  0  0  0  0  0  0  0  0  0  0  0
    0.3969    0.0458    0.0000 C   0  0  0  0  0  0  0  0  0  0  0  0
    1.1114   -0.3667    0.0000 C   0  0  0  0  0  0  0  0  0  0  0  0
    1.8259    0.0458    0.0000 C   0  0  0  0  0  0  0  0  0  0  0  0
    1.8259    0.8708    0.0000 C   0  0  0  0  0  0  0  0  0  0  0  0
    1.1114    1.2833    0.0000 C   0  0  0  0  0  0  0  0  0  0  0  0
    1.1114    2.1083    0.0000 C   0  0  0  0  0  0  0  0  0  0  0  0
  1  2  1  0  0  0  0
  2  3  1  0  0  0  0
  4  1  1  0  0  0  0
  5  4  2  0  0  0  0
  6  5  1  0  0  0  0
  7  6  2  0  0  0  0
  8  7  1  0  0  0  0
  1  8  2  0  0  0  0
  8  9  1  0  0  0  0
M  END
> <ChemID>
100114

> <CAS>
89-93-0

> <Original_SMILES>
Cc1ccccc1CN

> <preferred_name>
Benzenemethanamine, 2-methyl-

> <dsstox_substance_id>
DTXSID3059000

> <dsstox_compound_id>
DTXCID6048670

> <qc_level>
Public_High

> <Canonical_QSARr>
CC1C=CC=CC=1CN

> <InChI_Code_QSARr>
InChI=1S/C8H11N/c1-7-4-2-3-5-8(7)6-9/h2-5H,6,9H2,1H3

> <InChI Key_QSARr>
CJAAPVQEZPAQNI-UHFFFAOYSA-N

> <Salt_Solvent>


> <Salt_Solvent_ID>
0

> <MPID>
98045

> <LogBCF>
0.66

> <Tr_1_Tst_0>
0

$$$$
100115
  Mrv171c012241911322D          

 11 12  0  0  0  0            999 V2000
    0.8504   -3.0074    0.0000 C   0  0  0  0  0  0  0  0  0  0  0  0
    0.8504   -2.1824    0.0000 C   0  0  0  0  0  0  0  0  0  0  0  0
    0.1359   -1.7699    0.0000 C   0  0  0  0  0  0  0  0  0  0  0  0
    0.1359   -0.9449    0.0000 C   0  0  0  0  0  0  0  0  0  0  0  0
    0.8504   -0.5324    0.0000 C   0  0  0  0  0  0  0  0  0  0  0  0
    1.5648   -0.9449    0.0000 C   0  0  0  0  0  0  0  0  0  0  0  0
    2.2793   -0.5324    0.0000 C   0  0  0  0  0  0  0  0  0  0  0  0
    2.9938   -0.9449    0.0000 C   0  0  0  0  0  0  0  0  0  0  0  0
    2.9938   -1.7699    0.0000 C   0  0  0  0  0  0  0  0  0  0  0  0
    2.2793   -2.1824    0.0000 C   0  0  0  0  0  0  0  0  0  0  0  0
    1.5648   -1.7699    0.0000 C   0  0  0  0  0  0  0  0  0  0  0  0
  1  2  1  0  0  0  0
  3  2  1  0  0  0  0
  4  3  2  0  0  0  0
  5  4  1  0  0  0  0
  6  5  2  0  0  0  0
  6  7  1  0  0  0  0
  7  8  2  0  0  0  0
  8  9  1  0  0  0  0
  9 10  2  0  0  0  0
 10 11  1  0  0  0  0
  2 11  2  0  0  0  0
 11  6  1  0  0  0  0
M  END
> <ChemID>
100115

> <CAS>
90-12-0

> <Original_SMILES>
Cc1cccc2ccccc21

> <preferred_name>
1-Methylnaphthalene

> <dsstox_substance_id>
DTXSID9020877

> <dsstox_compound_id>
DTXCID30877

> <qc_level>
DSSTox_Low

> <Canonical_QSARr>
CC1C=CC=C2C=CC=CC2=1

> <InChI_Code_QSARr>
InChI=1S/C11H10/c1-9-5-4-7-10-6-2-3-8-11(9)10/h2-8H,1H3

> <InChI Key_QSARr>
QPUYECUOLPXSFR-UHFFFAOYSA-N

> <Salt_Solvent>


> <Salt_Solvent_ID>
0

> <MPID>
98046

> <LogBCF>
1.73

> <Tr_1_Tst_0>
1

$$$$
100116
  Mrv171c012241911322D          

 17 19  0  0  0  0            999 V2000
    2.8232   -2.1921    0.0000 N   0  0  0  0  0  0  0  0  0  0  0  0
    2.1087   -2.6046    0.0000 C   0  0  0  0  0  0  0  0  0  0  0  0
    1.3943   -2.1921    0.0000 C   0  0  0  0  0  0  0  0  0  0  0  0
    0.6798   -2.6046    0.0000 C   0  0  0  0  0  0  0  0  0  0  0  0
    0.6798   -3.4296    0.0000 C   0  0  0  0  0  0  0  0  0  0  0  0
    1.3943   -3.8421    0.0000 C   0  0  0  0  0  0  0  0  0  0  0  0
    2.1087   -3.4296    0.0000 C   0  0  0  0  0  0  0  0  0  0  0  0
    2.8232   -1.3671    0.0000 C   0  0  0  0  0  0  0  0  0  0  0  0
    2.1087   -0.9546    0.0000 C   0  0  0  0  0  0  0  0  0  0  0  0
    2.1087   -0.1296    0.0000 C   0  0  0  0  0  0  0  0  0  0  0  0
    2.8232    0.2829    0.0000 C   0  0  0  0  0  0  0  0  0  0  0  0
    3.5377   -0.1296    0.0000 C   0  0  0  0  0  0  0  0  0  0  0  0
    4.2522    0.2829    0.0000 C   0  0  0  0  0  0  0  0  0  0  0  0
    4.9666   -0.1296    0.0000 C   0  0  0  0  0  0  0  0  0  0  0  0
    4.9666   -0.9546    0.0000 C   0  0  0  0  0  0  0  0  0  0  0  0
    4.2522   -1.3671    0.0000 C   0  0  0  0  0  0  0  0  0  0  0  0
    3.5377   -0.9546    0.0000 C   0  0  0  0  0  0  0  0  0  0  0  0
  1  2  1  0  0  0  0
  3  2  1  0  0  0  0
  4  3  2  0  0  0  0
  5  4  1  0  0  0  0
  6  5  2  0  0  0  0
  7  6  1  0  0  0  0
  2  7  2  0  0  0  0
  1  8  1  0  0  0  0
  9  8  1  0  0  0  0
 10  9  2  0  0  0  0
 11 10  1  0  0  0  0
 12 11  2  0  0  0  0
 12 13  1  0  0  0  0
 13 14  2  0  0  0  0
 14 15  1  0  0  0  0
 15 16  2  0  0  0  0
 16 17  1  0  0  0  0
  8 17  2  0  0  0  0
 17 12  1  0  0  0  0
M  END
> <ChemID>
100116

> <CAS>
90-30-2

> <Original_SMILES>
c1cccc2c(cccc21)Nc1ccccc1

> <preferred_name>
N-Phenyl-1-naphthylamine

> <dsstox_substance_id>
DTXSID2025892

> <dsstox_compound_id>
DTXCID605892

> <qc_level>
DSSTox_Low

> <Canonical_QSARr>
C1=CC=C2C=CC=CC2=C1NC1C=CC=CC=1

> <InChI_Code_QSARr>
InChI=1S/C16H13N/c1-2-9-14(10-3-1)17-16-12-6-8-13-7-4-5-11-15(13)16/h1-12,17H

> <InChI Key_QSARr>
XQVWYOYUZDUNRW-UHFFFAOYSA-N

> <Salt_Solvent>


> <Salt_Solvent_ID>
0

> <MPID>
98047

> <LogBCF>
3.23

> <Tr_1_Tst_0>
1

$$$$
100117
  Mrv171c012241911322D          

 13 14  0  0  0  0            999 V2000
    2.3045   -1.1129    0.0000 C   0  0  0  0  0  0  0  0  0  0  0  0
    2.3045   -1.9379    0.0000 C   0  0  0  0  0  0  0  0  0  0  0  0
    3.0190   -2.3504    0.0000 C   0  0  0  0  0  0  0  0  0  0  0  0
    3.7334   -1.9379    0.0000 C   0  0  0  0  0  0  0  0  0  0  0  0
    3.7334   -1.1129    0.0000 C   0  0  0  0  0  0  0  0  0  0  0  0
    3.0190   -0.7004    0.0000 C   0  0  0  0  0  0  0  0  0  0  0  0
    3.0190    0.1246    0.0000 N   0  0  0  0  0  0  0  0  0  0  0  0
    1.5900   -0.7004    0.0000 C   0  0  0  0  0  0  0  0  0  0  0  0
    1.5900    0.1246    0.0000 C   0  0  0  0  0  0  0  0  0  0  0  0
    0.8756    0.5371    0.0000 C   0  0  0  0  0  0  0  0  0  0  0  0
    0.1611    0.1246    0.0000 C   0  0  0  0  0  0  0  0  0  0  0  0
    0.1611   -0.7004    0.0000 C   0  0  0  0  0  0  0  0  0  0  0  0
    0.8756   -1.1129    0.0000 C   0  0  0  0  0  0  0  0  0  0  0  0
  2  1  1  0  0  0  0
  3  2  2  0  0  0  0
  4  3  1  0  0  0  0
  5  4  2  0  0  0  0
  6  5  1  0  0  0  0
  1  6  2  0  0  0  0
  6  7  1  0  0  0  0
  1  8  1  0  0  0  0
  9  8  1  0  0  0  0
 10  9  2  0  0  0  0
 11 10  1  0  0  0  0
 12 11  2  0  0  0  0
 13 12  1  0  0  0  0
  8 13  2  0  0  0  0
M  END
> <ChemID>
100117

> <CAS>
90-41-5

> <Original_SMILES>
Nc1ccccc1-c1ccccc1

> <preferred_name>
2-Biphenylamine

> <dsstox_substance_id>
DTXSID3030189

> <dsstox_compound_id>
DTXCID1010189

> <qc_level>
DSSTox_Low

> <Canonical_QSARr>
NC1C=CC=CC=1C1C=CC=CC=1

> <InChI_Code_QSARr>
InChI=1S/C12H11N/c13-12-9-5-4-8-11(12)10-6-2-1-3-7-10/h1-9H,13H2

> <InChI Key_QSARr>
TWBPWBPGNQWFSJ-UHFFFAOYSA-N

> <Salt_Solvent>


> <Salt_Solvent_ID>
0

> <MPID>
98048

> <LogBCF>
1.41

> <Tr_1_Tst_0>
1

$$$$
100118
  Mrv171c012241911322D          

 16 17  0  0  0  0            999 V2000
    3.1029   -1.1136    0.0000 C   0  0  0  0  0  0  0  0  0  0  0  0
    2.3884   -0.7011    0.0000 C   0  0  0  0  0  0  0  0  0  0  0  0
    1.6739   -1.1136    0.0000 C   0  0  0  0  0  0  0  0  0  0  0  0
    0.9595   -0.7011    0.0000 S   0  0  0  0  0  0  0  0  0  0  0  0
    0.2450   -0.2886    0.0000 O   0  0  0  0  0  0  0  0  0  0  0  0
    0.5470   -1.4156    0.0000 O   0  0  0  0  0  0  0  0  0  0  0  0
    1.3720    0.0134    0.0000 O   0  0  0  0  0  0  0  0  0  0  0  0
    1.6739   -1.9386    0.0000 C   0  0  0  0  0  0  0  0  0  0  0  0
    2.3884   -2.3511    0.0000 C   0  0  0  0  0  0  0  0  0  0  0  0
    2.3884   -3.1761    0.0000 O   0  0  0  0  0  0  0  0  0  0  0  0
    3.1029   -1.9386    0.0000 C   0  0  0  0  0  0  0  0  0  0  0  0
    3.8174   -2.3511    0.0000 C   0  0  0  0  0  0  0  0  0  0  0  0
    4.5318   -1.9386    0.0000 C   0  0  0  0  0  0  0  0  0  0  0  0
    5.2463   -2.3511    0.0000 N   0  0  0  0  0  0  0  0  0  0  0  0
    4.5318   -1.1136    0.0000 C   0  0  0  0  0  0  0  0  0  0  0  0
    3.8174   -0.7011    0.0000 C   0  0  0  0  0  0  0  0  0  0  0  0
  2  1  1  0  0  0  0
  3  2  2  0  0  0  0
  3  4  1  0  0  0  0
  4  5  2  0  0  0  0
  4  6  1  0  0  0  0
  4  7  2  0  0  0  0
  8  3  1  0  0  0  0
  9  8  2  0  0  0  0
  9 10  1  0  0  0  0
 11  9  1  0  0  0  0
 11  1  2  0  0  0  0
 12 11  1  0  0  0  0
 13 12  2  0  0  0  0
 13 14  1  0  0  0  0
 15 13  1  0  0  0  0
 16 15  2  0  0  0  0
  1 16  1  0  0  0  0
M  END
> <ChemID>
100118

> <CAS>
90-51-7

> <Original_SMILES>
Nc1cc2c(cc1)cc(cc2O)S(O)(=O)=O

> <preferred_name>
6-Amino-4-hydroxynaphthalene-2-sulfonic acid

> <dsstox_substance_id>
DTXSID0026547

> <dsstox_compound_id>
DTXCID606547

> <qc_level>
DSSTox_Low

> <Canonical_QSARr>
NC1=CC2=C(C=C1)C=C(C=C2O)S(O)(=O)=O

> <InChI_Code_QSARr>
InChI=1S/C10H9NO4S/c11-7-2-1-6-3-8(16(13,14)15)5-10(12)9(6)4-7/h1-5,12H,11H2,(H,13,14,15)

> <InChI Key_QSARr>
HBZVNWNSRNTWPS-UHFFFAOYSA-N

> <Salt_Solvent>


> <Salt_Solvent_ID>
0

> <MPID>
98049

> <LogBCF>
0.61

> <Tr_1_Tst_0>
0

$$$$
100119
  Mrv171c012241911322D          

 20 21  0  0  0  0            999 V2000
    1.9968   -2.7225    0.0000 O   0  0  0  0  0  0  0  0  0  0  0  0
    2.7112   -2.3100    0.0000 C   0  0  0  0  0  0  0  0  0  0  0  0
    2.7112   -1.4850    0.0000 C   0  0  0  0  0  0  0  0  0  0  0  0
    3.4257   -1.0725    0.0000 C   0  0  0  0  0  0  0  0  0  0  0  0
    3.4257   -0.2475    0.0000 C   0  0  0  0  0  0  0  0  0  0  0  0
    2.7112    0.1650    0.0000 C   0  0  0  0  0  0  0  0  0  0  0  0
    2.7112    0.9900    0.0000 N   0  0  0  0  0  0  0  0  0  0  0  0
    1.9968    1.4025    0.0000 C   0  0  0  0  0  0  0  0  0  0  0  0
    3.4257    1.4025    0.0000 C   0  0  0  0  0  0  0  0  0  0  0  0
    1.9968   -0.2475    0.0000 C   0  0  0  0  0  0  0  0  0  0  0  0
    1.9968   -1.0725    0.0000 C   0  0  0  0  0  0  0  0  0  0  0  0
    3.4257   -2.7225    0.0000 C   0  0  0  0  0  0  0  0  0  0  0  0
    3.4257   -3.5475    0.0000 C   0  0  0  0  0  0  0  0  0  0  0  0
    4.1402   -3.9600    0.0000 C   0  0  0  0  0  0  0  0  0  0  0  0
    4.8547   -3.5475    0.0000 C   0  0  0  0  0  0  0  0  0  0  0  0
    5.5691   -3.9600    0.0000 N   0  0  0  0  0  0  0  0  0  0  0  0
    6.2836   -3.5475    0.0000 C   0  0  0  0  0  0  0  0  0  0  0  0
    5.5691   -4.7850    0.0000 C   0  0  0  0  0  0  0  0  0  0  0  0
    4.8547   -2.7225    0.0000 C   0  0  0  0  0  0  0  0  0  0  0  0
    4.1402   -2.3100    0.0000 C   0  0  0  0  0  0  0  0  0  0  0  0
  1  2  2  0  0  0  0
  2  3  1  0  0  0  0
  4  3  1  0  0  0  0
  5  4  2  0  0  0  0
  6  5  1  0  0  0  0
  6  7  1  0  0  0  0
  7  8  1  0  0  0  0
  7  9  1  0  0  0  0
 10  6  2  0  0  0  0
 11 10  1  0  0  0  0
  3 11  2  0  0  0  0
  2 12  1  0  0  0  0
 13 12  1  0  0  0  0
 14 13  2  0  0  0  0
 15 14  1  0  0  0  0
 15 16  1  0  0  0  0
 16 17  1  0  0  0  0
 16 18  1  0  0  0  0
 19 15  2  0  0  0  0
 20 19  1  0  0  0  0
 12 20  2  0  0  0  0
M  END
> <ChemID>
100119

> <CAS>
90-94-8

> <Original_SMILES>
CN(C)c1ccc(cc1)C(=O)c1ccc(cc1)N(C)C

> <preferred_name>
Michler's ketone

> <dsstox_substance_id>
DTXSID2020894

> <dsstox_compound_id>
DTXCID80894

> <qc_level>
DSSTox_Low

> <Canonical_QSARr>
CN(C)C1C=CC(=CC=1)C(=O)C1C=CC(=CC=1)N(C)C

> <InChI_Code_QSARr>
InChI=1S/C17H20N2O/c1-18(2)15-9-5-13(6-10-15)17(20)14-7-11-16(12-8-14)19(3)4/h5-12H,1-4H3

> <InChI Key_QSARr>
VVBLNCFGVYUYGU-UHFFFAOYSA-N

> <Salt_Solvent>


> <Salt_Solvent_ID>
0

> <MPID>
98050

> <LogBCF>
1.45

> <Tr_1_Tst_0>
1

$$$$
100120
  Mrv171c012241911322D          

 10 10  0  0  0  0            999 V2000
    1.7100   -1.1716    0.0000 C   0  0  0  0  0  0  0  0  0  0  0  0
    2.4245   -0.7591    0.0000 C   0  0  0  0  0  0  0  0  0  0  0  0
    3.1389   -0.3466    0.0000 N   0  0  0  0  0  0  0  0  0  0  0  0
    0.9955   -0.7591    0.0000 C   0  0  0  0  0  0  0  0  0  0  0  0
    0.9955    0.0659    0.0000 C   0  0  0  0  0  0  0  0  0  0  0  0
    0.9955    0.8909    0.0000 N   0  0  0  0  0  0  0  0  0  0  0  0
    0.2811   -1.1716    0.0000 C   0  0  0  0  0  0  0  0  0  0  0  0
    0.2811   -1.9966    0.0000 C   0  0  0  0  0  0  0  0  0  0  0  0
    0.9955   -2.4091    0.0000 C   0  0  0  0  0  0  0  0  0  0  0  0
    1.7100   -1.9966    0.0000 C   0  0  0  0  0  0  0  0  0  0  0  0
  1  2  1  0  0  0  0
  2  3  3  0  0  0  0
  4  1  1  0  0  0  0
  4  5  1  0  0  0  0
  5  6  3  0  0  0  0
  7  4  2  0  0  0  0
  8  7  1  0  0  0  0
  9  8  2  0  0  0  0
 10  9  1  0  0  0  0
  1 10  2  0  0  0  0
M  END
> <ChemID>
100120

> <CAS>
91-15-6

> <Original_SMILES>
N#Cc1ccccc1C#N

> <preferred_name>
1,2-Benzenedicarbonitrile

> <dsstox_substance_id>
DTXSID8029604

> <dsstox_compound_id>
DTXCID709604

> <qc_level>
DSSTox_Low

> <Canonical_QSARr>
N#CC1=CC=CC=C1C#N

> <InChI_Code_QSARr>
InChI=1S/C8H4N2/c9-5-7-3-1-2-4-8(7)6-10/h1-4H

> <InChI Key_QSARr>
XQZYPMVTSDWCCE-UHFFFAOYSA-N

> <Salt_Solvent>


> <Salt_Solvent_ID>
0

> <MPID>
98051

> <LogBCF>
0.7

> <Tr_1_Tst_0>
1

$$$$
100121
  Mrv171c012241911322D          

 10 11  0  0  0  0            999 V2000
    0.7153   -1.6500    0.0000 C   0  0  0  0  0  0  0  0  0  0  0  0
    0.0008   -1.2375    0.0000 C   0  0  0  0  0  0  0  0  0  0  0  0
    0.0008   -0.4125    0.0000 C   0  0  0  0  0  0  0  0  0  0  0  0
    0.7153    0.0000    0.0000 C   0  0  0  0  0  0  0  0  0  0  0  0
    1.4297   -0.4125    0.0000 C   0  0  0  0  0  0  0  0  0  0  0  0
    2.1442    0.0000    0.0000 C   0  0  0  0  0  0  0  0  0  0  0  0
    2.8587   -0.4125    0.0000 C   0  0  0  0  0  0  0  0  0  0  0  0
    2.8587   -1.2375    0.0000 C   0  0  0  0  0  0  0  0  0  0  0  0
    2.1442   -1.6500    0.0000 C   0  0  0  0  0  0  0  0  0  0  0  0
    1.4297   -1.2375    0.0000 C   0  0  0  0  0  0  0  0  0  0  0  0
  2  1  1  0  0  0  0
  3  2  2  0  0  0  0
  4  3  1  0  0  0  0
  5  4  2  0  0  0  0
  5  6  1  0  0  0  0
  6  7  2  0  0  0  0
  7  8  1  0  0  0  0
  8  9  2  0  0  0  0
  9 10  1  0  0  0  0
  1 10  2  0  0  0  0
 10  5  1  0  0  0  0
M  END
> <ChemID>
100121

> <CAS>
91-20-3

> <Original_SMILES>
c1cccc2ccccc21

> <preferred_name>
Naphthalene

> <dsstox_substance_id>
DTXSID8020913

> <dsstox_compound_id>
DTXCID00913

> <qc_level>
DSSTox_Low

> <Canonical_QSARr>
C1=CC=CC2=CC=CC=C21

> <InChI_Code_QSARr>
InChI=1S/C10H8/c1-2-6-10-8-4-3-7-9(10)5-1/h1-8H

> <InChI Key_QSARr>
UFWIBTONFRDIAS-UHFFFAOYSA-N

> <Salt_Solvent>


> <Salt_Solvent_ID>
0

> <MPID>
98052

> <LogBCF>
1.93

> <Tr_1_Tst_0>
1

$$$$
100122
  Mrv171c012241911322D          

 10 11  0  0  0  0            999 V2000
    0.7153    0.0000    0.0000 N   0  0  0  0  0  0  0  0  0  0  0  0
    1.4297   -0.4125    0.0000 C   0  0  0  0  0  0  0  0  0  0  0  0
    2.1442    0.0000    0.0000 C   0  0  0  0  0  0  0  0  0  0  0  0
    2.8587   -0.4125    0.0000 C   0  0  0  0  0  0  0  0  0  0  0  0
    2.8587   -1.2375    0.0000 C   0  0  0  0  0  0  0  0  0  0  0  0
    2.1442   -1.6500    0.0000 C   0  0  0  0  0  0  0  0  0  0  0  0
    1.4297   -1.2375    0.0000 C   0  0  0  0  0  0  0  0  0  0  0  0
    0.7153   -1.6500    0.0000 C   0  0  0  0  0  0  0  0  0  0  0  0
    0.0008   -1.2375    0.0000 C   0  0  0  0  0  0  0  0  0  0  0  0
    0.0008   -0.4125    0.0000 C   0  0  0  0  0  0  0  0  0  0  0  0
  2  1  1  0  0  0  0
  2  3  1  0  0  0  0
  3  4  2  0  0  0  0
  4  5  1  0  0  0  0
  5  6  2  0  0  0  0
  6  7  1  0  0  0  0
  7  2  2  0  0  0  0
  8  7  1  0  0  0  0
  9  8  2  0  0  0  0
 10  9  1  0  0  0  0
  1 10  2  0  0  0  0
M  END
> <ChemID>
100122

> <CAS>
91-22-5

> <Original_SMILES>
c1cccc2[n]cccc21

> <preferred_name>
Quinoline

> <dsstox_substance_id>
DTXSID1021798

> <dsstox_compound_id>
DTXCID401798

> <qc_level>
DSSTox_Low

> <Canonical_QSARr>
C1=CC=NC2C=CC=CC=21

> <InChI_Code_QSARr>
InChI=1S/C9H7N/c1-2-6-9-8(4-1)5-3-7-10-9/h1-7H

> <InChI Key_QSARr>
SMWDFEZZVXVKRB-UHFFFAOYSA-N

> <Salt_Solvent>


> <Salt_Solvent_ID>
0

> <MPID>
98053

> <LogBCF>
0.58

> <Tr_1_Tst_0>
0

$$$$
100123
  Mrv171c012241911322D          

 11 11  0  0  0  0            999 V2000
    0.2932   -0.9192    0.0000 C   0  0  0  0  0  0  0  0  0  0  0  0
    0.2932   -1.7442    0.0000 O   0  0  0  0  0  0  0  0  0  0  0  0
    1.0076   -2.1567    0.0000 C   0  0  0  0  0  0  0  0  0  0  0  0
    1.0076   -2.9817    0.0000 C   0  0  0  0  0  0  0  0  0  0  0  0
    1.7221   -3.3942    0.0000 C   0  0  0  0  0  0  0  0  0  0  0  0
    2.4366   -2.9817    0.0000 C   0  0  0  0  0  0  0  0  0  0  0  0
    2.4366   -2.1567    0.0000 C   0  0  0  0  0  0  0  0  0  0  0  0
    1.7221   -1.7442    0.0000 C   0  0  0  0  0  0  0  0  0  0  0  0
    1.7221   -0.9192    0.0000 N   0  3  0  0  0  0  0  0  0  0  0  0
    1.0076   -0.5067    0.0000 O   0  5  0  0  0  0  0  0  0  0  0  0
    2.4366   -0.5067    0.0000 O   0  0  0  0  0  0  0  0  0  0  0  0
  1  2  1  0  0  0  0
  2  3  1  0  0  0  0
  4  3  1  0  0  0  0
  5  4  2  0  0  0  0
  6  5  1  0  0  0  0
  7  6  2  0  0  0  0
  8  7  1  0  0  0  0
  3  8  2  0  0  0  0
  8  9  1  0  0  0  0
  9 10  1  0  0  0  0
  9 11  2  0  0  0  0
M  CHG  2   9   1  10  -1
M  END
> <ChemID>
100123

> <CAS>
91-23-6

> <Original_SMILES>
COc1ccccc1[N+]([O-])=O

> <preferred_name>
1-Methoxy-2-nitrobenzene

> <dsstox_substance_id>
DTXSID3020962

> <dsstox_compound_id>
DTXCID70962

> <qc_level>
DSSTox_Low

> <Canonical_QSARr>
COC1C=CC=CC=1[N+]([O-])=O

> <InChI_Code_QSARr>
InChI=1S/C7H7NO3/c1-11-7-5-3-2-4-6(7)8(9)10/h2-5H,1H3

> <InChI Key_QSARr>
CFBYEGUGFPZCNF-UHFFFAOYSA-N

> <Salt_Solvent>


> <Salt_Solvent_ID>
0

> <MPID>
98054

> <LogBCF>
0.7

> <Tr_1_Tst_0>
1

$$$$
100124
  Mrv171c012241911322D          

 11 12  0  0  0  0            999 V2000
    1.8110   -0.4138    0.0000 C   0  0  0  0  0  0  0  0  0  0  0  0
    1.0965   -0.0013    0.0000 C   0  0  0  0  0  0  0  0  0  0  0  0
    0.3820   -0.4138    0.0000 C   0  0  0  0  0  0  0  0  0  0  0  0
   -0.3325   -0.0013    0.0000 C   0  0  0  0  0  0  0  0  0  0  0  0
    0.3820   -1.2388    0.0000 C   0  0  0  0  0  0  0  0  0  0  0  0
    1.0965   -1.6513    0.0000 C   0  0  0  0  0  0  0  0  0  0  0  0
    1.8110   -1.2388    0.0000 C   0  0  0  0  0  0  0  0  0  0  0  0
    2.5254   -1.6513    0.0000 C   0  0  0  0  0  0  0  0  0  0  0  0
    3.2399   -1.2388    0.0000 C   0  0  0  0  0  0  0  0  0  0  0  0
    3.2399   -0.4138    0.0000 C   0  0  0  0  0  0  0  0  0  0  0  0
    2.5254   -0.0013    0.0000 C   0  0  0  0  0  0  0  0  0  0  0  0
  2  1  1  0  0  0  0
  3  2  2  0  0  0  0
  3  4  1  0  0  0  0
  5  3  1  0  0  0  0
  6  5  2  0  0  0  0
  7  6  1  0  0  0  0
  7  1  1  0  0  0  0
  8  7  2  0  0  0  0
  9  8  1  0  0  0  0
 10  9  2  0  0  0  0
 11 10  1  0  0  0  0
  1 11  2  0  0  0  0
M  END
> <ChemID>
100124

> <CAS>
91-57-6

> <Original_SMILES>
Cc1cc2ccccc2cc1

> <preferred_name>
2-Methylnaphthalene

> <dsstox_substance_id>
DTXSID4020878

> <dsstox_compound_id>
DTXCID60878

> <qc_level>
DSSTox_Low

> <Canonical_QSARr>
CC1=CC2=CC=CC=C2C=C1

> <InChI_Code_QSARr>
InChI=1S/C11H10/c1-9-6-7-10-4-2-3-5-11(10)8-9/h2-8H,1H3

> <InChI Key_QSARr>
QIMMUPPBPVKWKM-UHFFFAOYSA-N

> <Salt_Solvent>


> <Salt_Solvent_ID>
0

> <MPID>
98055

> <LogBCF>
1.87

> <Tr_1_Tst_0>
1

$$$$
100125
  Mrv171c012241911322D          

 11 12  0  0  0  0            999 V2000
    1.7589   -0.4252    0.0000 C   0  0  0  0  0  0  0  0  0  0  0  0
    1.0445   -0.0127    0.0000 C   0  0  0  0  0  0  0  0  0  0  0  0
    0.3300   -0.4252    0.0000 C   0  0  0  0  0  0  0  0  0  0  0  0
    0.3300   -1.2502    0.0000 C   0  0  0  0  0  0  0  0  0  0  0  0
    1.0445   -1.6627    0.0000 C   0  0  0  0  0  0  0  0  0  0  0  0
    1.7589   -1.2502    0.0000 C   0  0  0  0  0  0  0  0  0  0  0  0
    2.4734   -1.6627    0.0000 C   0  0  0  0  0  0  0  0  0  0  0  0
    3.1879   -1.2502    0.0000 C   0  0  0  0  0  0  0  0  0  0  0  0
    3.1879   -0.4252    0.0000 C   0  0  0  0  0  0  0  0  0  0  0  0
    3.9023   -0.0127    0.0000 Cl  0  0  0  0  0  0  0  0  0  0  0  0
    2.4734   -0.0127    0.0000 C   0  0  0  0  0  0  0  0  0  0  0  0
  2  1  1  0  0  0  0
  3  2  2  0  0  0  0
  4  3  1  0  0  0  0
  5  4  2  0  0  0  0
  6  5  1  0  0  0  0
  6  1  1  0  0  0  0
  7  6  2  0  0  0  0
  8  7  1  0  0  0  0
  9  8  2  0  0  0  0
  9 10  1  0  0  0  0
 11  9  1  0  0  0  0
  1 11  2  0  0  0  0
M  END
> <ChemID>
100125

> <CAS>
91-58-7

> <Original_SMILES>
Clc1cc2ccccc2cc1

> <preferred_name>
2-Chloronaphthalene

> <dsstox_substance_id>
DTXSID8023971

> <dsstox_compound_id>
DTXCID603971

> <qc_level>
DSSTox_Low

> <Canonical_QSARr>
ClC1C=C2C=CC=CC2=CC=1

> <InChI_Code_QSARr>
InChI=1S/C10H7Cl/c11-10-6-5-8-3-1-2-4-9(8)7-10/h1-7H

> <InChI Key_QSARr>
CGYGETOMCSJHJU-UHFFFAOYSA-N

> <Salt_Solvent>


> <Salt_Solvent_ID>
0

> <MPID>
98056

> <LogBCF>
3.63

> <Tr_1_Tst_0>
1

$$$$
100126
  Mrv171c012241911322D          

 11 11  0  0  0  0            999 V2000
    2.6189    1.2341    0.0000 C   0  0  0  0  0  0  0  0  0  0  0  0
    2.6189    0.4091    0.0000 C   0  0  0  0  0  0  0  0  0  0  0  0
    1.9044   -0.0034    0.0000 N   0  0  0  0  0  0  0  0  0  0  0  0
    1.9044   -0.8284    0.0000 C   0  0  0  0  0  0  0  0  0  0  0  0
    1.1900   -1.2409    0.0000 C   0  0  0  0  0  0  0  0  0  0  0  0
    1.1900   -2.0659    0.0000 C   0  0  0  0  0  0  0  0  0  0  0  0
    1.9044   -2.4784    0.0000 C   0  0  0  0  0  0  0  0  0  0  0  0
    2.6189   -2.0659    0.0000 C   0  0  0  0  0  0  0  0  0  0  0  0
    2.6189   -1.2409    0.0000 C   0  0  0  0  0  0  0  0  0  0  0  0
    1.1900    0.4091    0.0000 C   0  0  0  0  0  0  0  0  0  0  0  0
    0.4755   -0.0034    0.0000 C   0  0  0  0  0  0  0  0  0  0  0  0
  1  2  1  0  0  0  0
  2  3  1  0  0  0  0
  3  4  1  0  0  0  0
  5  4  1  0  0  0  0
  6  5  2  0  0  0  0
  7  6  1  0  0  0  0
  8  7  2  0  0  0  0
  9  8  1  0  0  0  0
  4  9  2  0  0  0  0
  3 10  1  0  0  0  0
 10 11  1  0  0  0  0
M  END
> <ChemID>
100126

> <CAS>
91-66-7

> <Original_SMILES>
CCN(CC)c1ccccc1

> <preferred_name>
N,N-Diethylaniline

> <dsstox_substance_id>
DTXSID8021800

> <dsstox_compound_id>
DTXCID701800

> <qc_level>
DSSTox_Low

> <Canonical_QSARr>
CCN(CC)C1C=CC=CC=1

> <InChI_Code_QSARr>
InChI=1S/C10H15N/c1-3-11(4-2)10-8-6-5-7-9-10/h5-9H,3-4H2,1-2H3

> <InChI Key_QSARr>
GGSUCNLOZRCGPQ-UHFFFAOYSA-N

> <Salt_Solvent>


> <Salt_Solvent_ID>
0

> <MPID>
98057

> <LogBCF>
2.01

> <Tr_1_Tst_0>
0

$$$$
100127
  Mrv171c012241911322D          

 16 17  0  0  0  0            999 V2000
    4.3157   -3.4925    0.0000 Cl  0  0  0  0  0  0  0  0  0  0  0  0
    3.6012   -3.0800    0.0000 C   0  0  0  0  0  0  0  0  0  0  0  0
    3.6012   -2.2550    0.0000 C   0  0  0  0  0  0  0  0  0  0  0  0
    2.8868   -1.8425    0.0000 C   0  0  0  0  0  0  0  0  0  0  0  0
    2.8868   -1.0175    0.0000 C   0  0  0  0  0  0  0  0  0  0  0  0
    3.6012   -0.6050    0.0000 C   0  0  0  0  0  0  0  0  0  0  0  0
    3.6012    0.2200    0.0000 C   0  0  0  0  0  0  0  0  0  0  0  0
    2.8868    0.6325    0.0000 C   0  0  0  0  0  0  0  0  0  0  0  0
    2.8868    1.4575    0.0000 N   0  0  0  0  0  0  0  0  0  0  0  0
    2.1723    0.2200    0.0000 C   0  0  0  0  0  0  0  0  0  0  0  0
    1.4578    0.6325    0.0000 Cl  0  0  0  0  0  0  0  0  0  0  0  0
    2.1723   -0.6050    0.0000 C   0  0  0  0  0  0  0  0  0  0  0  0
    2.1723   -2.2550    0.0000 C   0  0  0  0  0  0  0  0  0  0  0  0
    2.1723   -3.0800    0.0000 C   0  0  0  0  0  0  0  0  0  0  0  0
    2.8868   -3.4925    0.0000 C   0  0  0  0  0  0  0  0  0  0  0  0
    2.8868   -4.3175    0.0000 N   0  0  0  0  0  0  0  0  0  0  0  0
  1  2  1  0  0  0  0
  3  2  1  0  0  0  0
  4  3  2  0  0  0  0
  4  5  1  0  0  0  0
  6  5  1  0  0  0  0
  7  6  2  0  0  0  0
  8  7  1  0  0  0  0
  8  9  1  0  0  0  0
 10  8  2  0  0  0  0
 10 11  1  0  0  0  0
 12 10  1  0  0  0  0
  5 12  2  0  0  0  0
 13  4  1  0  0  0  0
 14 13  2  0  0  0  0
 15 14  1  0  0  0  0
  2 15  2  0  0  0  0
 15 16  1  0  0  0  0
M  END
> <ChemID>
100127

> <CAS>
91-94-1

> <Original_SMILES>
Nc1ccc(cc1Cl)-c1cc(Cl)c(N)cc1

> <preferred_name>
3,3'-Dichlorobenzidine

> <dsstox_substance_id>
DTXSID6020432

> <dsstox_compound_id>
DTXCID60432

> <qc_level>
DSSTox_High

> <Canonical_QSARr>
NC1C=CC(=CC=1Cl)C1=CC(Cl)=C(N)C=C1

> <InChI_Code_QSARr>
InChI=1S/C12H10Cl2N2/c13-9-5-7(1-3-11(9)15)8-2-4-12(16)10(14)6-8/h1-6H,15-16H2

> <InChI Key_QSARr>
HUWXDEQWWKGHRV-UHFFFAOYSA-N

> <Salt_Solvent>


> <Salt_Solvent_ID>
0

> <MPID>
98058

> <LogBCF>
2.16

> <Tr_1_Tst_0>
1

$$$$
100128
  Mrv171c012241911322D          

 28 29  0  0  0  0            999 V2000
   -6.4302   -5.3624    0.0000 O   0  0  0  0  0  0  0  0  0  0  0  0
   -6.4302   -6.1874    0.0000 C   0  0  0  0  0  0  0  0  0  0  0  0
   -7.1447   -6.5999    0.0000 C   0  0  0  0  0  0  0  0  0  0  0  0
   -7.8592   -6.1874    0.0000 C   0  0  0  0  0  0  0  0  0  0  0  0
   -8.5736   -6.5999    0.0000 C   0  0  0  0  0  0  0  0  0  0  0  0
   -7.8592   -5.3624    0.0000 O   0  0  0  0  0  0  0  0  0  0  0  0
   -5.7157   -6.5999    0.0000 N   0  0  0  0  0  0  0  0  0  0  0  0
   -5.0013   -6.1874    0.0000 C   0  0  0  0  0  0  0  0  0  0  0  0
   -4.2868   -6.5999    0.0000 C   0  0  0  0  0  0  0  0  0  0  0  0
   -3.5723   -6.1874    0.0000 C   0  0  0  0  0  0  0  0  0  0  0  0
   -3.5723   -5.3624    0.0000 C   0  0  0  0  0  0  0  0  0  0  0  0
   -2.8579   -4.9499    0.0000 C   0  0  0  0  0  0  0  0  0  0  0  0
   -2.1434   -5.3624    0.0000 C   0  0  0  0  0  0  0  0  0  0  0  0
   -1.4289   -4.9499    0.0000 C   0  0  0  0  0  0  0  0  0  0  0  0
   -0.7144   -5.3624    0.0000 C   0  0  0  0  0  0  0  0  0  0  0  0
   -1.4289   -4.1249    0.0000 C   0  0  0  0  0  0  0  0  0  0  0  0
   -0.7144   -3.7124    0.0000 N   0  0  0  0  0  0  0  0  0  0  0  0
    0.0000   -4.1249    0.0000 C   0  0  0  0  0  0  0  0  0  0  0  0
    0.7145   -3.7124    0.0000 C   0  0  0  0  0  0  0  0  0  0  0  0
    1.4290   -4.1249    0.0000 C   0  0  0  0  0  0  0  0  0  0  0  0
    2.1434   -3.7124    0.0000 C   0  0  0  0  0  0  0  0  0  0  0  0
    1.4290   -4.9499    0.0000 O   0  0  0  0  0  0  0  0  0  0  0  0
    0.0000   -4.9499    0.0000 O   0  0  0  0  0  0  0  0  0  0  0  0
   -2.1434   -3.7124    0.0000 C   0  0  0  0  0  0  0  0  0  0  0  0
   -2.8579   -4.1249    0.0000 C   0  0  0  0  0  0  0  0  0  0  0  0
   -4.2868   -4.9499    0.0000 C   0  0  0  0  0  0  0  0  0  0  0  0
   -5.0013   -5.3624    0.0000 C   0  0  0  0  0  0  0  0  0  0  0  0
   -5.7157   -4.9499    0.0000 C   0  0  0  0  0  0  0  0  0  0  0  0
  1  2  2  0  0  0  0
  2  3  1  0  0  0  0
  3  4  1  0  0  0  0
  4  5  1  0  0  0  0
  4  6  2  0  0  0  0
  2  7  1  0  0  0  0
  7  8  1  0  0  0  0
  9  8  1  0  0  0  0
 10  9  2  0  0  0  0
 11 10  1  0  0  0  0
 11 12  1  0  0  0  0
 13 12  1  0  0  0  0
 14 13  2  0  0  0  0
 14 15  1  0  0  0  0
 16 14  1  0  0  0  0
 16 17  1  0  0  0  0
 17 18  1  0  0  0  0
 18 19  1  0  0  0  0
 19 20  1  0  0  0  0
 20 21  1  0  0  0  0
 20 22  2  0  0  0  0
 18 23  2  0  0  0  0
 24 16  2  0  0  0  0
 25 24  1  0  0  0  0
 12 25  2  0  0  0  0
 26 11  2  0  0  0  0
 27 26  1  0  0  0  0
  8 27  2  0  0  0  0
 27 28  1  0  0  0  0
M  END
> <ChemID>
100128

> <CAS>
91-96-3

> <Original_SMILES>
CC(=O)CC(=O)Nc1ccc(cc1C)-c1cc(C)c(cc1)NC(=O)CC(C)=O

> <preferred_name>
Butanamide, N,N'-(3,3'-dimethyl[1,1'-biphenyl]-4,4'-diyl)bis[3-oxo-

> <dsstox_substance_id>
DTXSID5059034

> <dsstox_compound_id>
DTXCID9048726

> <qc_level>
Public_High

> <Canonical_QSARr>
CC1C=C(C=CC=1NC(=O)CC(C)=O)C1C=C(C)C(=CC=1)NC(=O)CC(C)=O

> <InChI_Code_QSARr>
InChI=1S/C22H24N2O4/c1-13-9-17(5-7-19(13)23-21(27)11-15(3)25)18-6-8-20(14(2)10-18)24-22(28)12-16(4)26/h5-10H,11-12H2,1-4H3,(H,23,27)(H,24,28)

> <InChI Key_QSARr>
CRRLDLPBQWRVGN-UHFFFAOYSA-N

> <Salt_Solvent>


> <Salt_Solvent_ID>
0

> <MPID>
98059

> <LogBCF>
0.2

> <Tr_1_Tst_0>
1

$$$$
100129
  Mrv171c012241911322D          

 12 13  0  0  0  0            999 V2000
    1.3498   -1.5392    0.0000 C   0  0  0  0  0  0  0  0  0  0  0  0
    1.3498   -2.3642    0.0000 C   0  0  0  0  0  0  0  0  0  0  0  0
    2.0643   -2.7767    0.0000 C   0  0  0  0  0  0  0  0  0  0  0  0
    2.7787   -2.3642    0.0000 C   0  0  0  0  0  0  0  0  0  0  0  0
    2.7787   -1.5392    0.0000 C   0  0  0  0  0  0  0  0  0  0  0  0
    2.0643   -1.1267    0.0000 C   0  0  0  0  0  0  0  0  0  0  0  0
    2.0643   -0.3017    0.0000 C   0  0  0  0  0  0  0  0  0  0  0  0
    2.7787    0.1108    0.0000 C   0  0  0  0  0  0  0  0  0  0  0  0
    2.7787    0.9358    0.0000 C   0  0  0  0  0  0  0  0  0  0  0  0
    2.0643    1.3483    0.0000 C   0  0  0  0  0  0  0  0  0  0  0  0
    1.3498    0.9358    0.0000 C   0  0  0  0  0  0  0  0  0  0  0  0
    1.3498    0.1108    0.0000 C   0  0  0  0  0  0  0  0  0  0  0  0
  2  1  1  0  0  0  0
  3  2  2  0  0  0  0
  4  3  1  0  0  0  0
  5  4  2  0  0  0  0
  6  5  1  0  0  0  0
  1  6  2  0  0  0  0
  6  7  1  0  0  0  0
  8  7  1  0  0  0  0
  9  8  2  0  0  0  0
 10  9  1  0  0  0  0
 11 10  2  0  0  0  0
 12 11  1  0  0  0  0
  7 12  2  0  0  0  0
M  END
> <ChemID>
100129

> <CAS>
92-52-4

> <Original_SMILES>
c1ccccc1-c1ccccc1

> <preferred_name>
Biphenyl

> <dsstox_substance_id>
DTXSID4020161

> <dsstox_compound_id>
DTXCID60161

> <qc_level>
DSSTox_Low

> <Canonical_QSARr>
C1=CC=CC=C1C1C=CC=CC=1

> <InChI_Code_QSARr>
InChI=1S/C12H10/c1-3-7-11(8-4-1)12-9-5-2-6-10-12/h1-10H

> <InChI Key_QSARr>
ZUOUZKKEUPVFJK-UHFFFAOYSA-N

> <Salt_Solvent>


> <Salt_Solvent_ID>
0

> <MPID>
98060

> <LogBCF>
2.64

> <Tr_1_Tst_0>
1

$$$$
100130
  Mrv171c012241911322D          

 13 14  0  0  0  0            999 V2000
    2.6609   -3.3802    0.0000 O   0  0  0  0  0  0  0  0  0  0  0  0
    2.6609   -2.5552    0.0000 C   0  0  0  0  0  0  0  0  0  0  0  0
    3.3754   -2.1427    0.0000 C   0  0  0  0  0  0  0  0  0  0  0  0
    3.3754   -1.3177    0.0000 C   0  0  0  0  0  0  0  0  0  0  0  0
    2.6609   -0.9052    0.0000 C   0  0  0  0  0  0  0  0  0  0  0  0
    2.6609   -0.0802    0.0000 C   0  0  0  0  0  0  0  0  0  0  0  0
    3.3754    0.3323    0.0000 C   0  0  0  0  0  0  0  0  0  0  0  0
    3.3754    1.1573    0.0000 C   0  0  0  0  0  0  0  0  0  0  0  0
    2.6609    1.5698    0.0000 C   0  0  0  0  0  0  0  0  0  0  0  0
    1.9464    1.1573    0.0000 C   0  0  0  0  0  0  0  0  0  0  0  0
    1.9464    0.3323    0.0000 C   0  0  0  0  0  0  0  0  0  0  0  0
    1.9464   -1.3177    0.0000 C   0  0  0  0  0  0  0  0  0  0  0  0
    1.9464   -2.1427    0.0000 C   0  0  0  0  0  0  0  0  0  0  0  0
  1  2  1  0  0  0  0
  3  2  1  0  0  0  0
  4  3  2  0  0  0  0
  5  4  1  0  0  0  0
  5  6  1  0  0  0  0
  7  6  1  0  0  0  0
  8  7  2  0  0  0  0
  9  8  1  0  0  0  0
 10  9  2  0  0  0  0
 11 10  1  0  0  0  0
  6 11  2  0  0  0  0
 12  5  2  0  0  0  0
 13 12  1  0  0  0  0
  2 13  2  0  0  0  0
M  END
> <ChemID>
100130

> <CAS>
92-69-3

> <Original_SMILES>
Oc1ccc(cc1)-c1ccccc1

> <preferred_name>
4-Phenylphenol

> <dsstox_substance_id>
DTXSID7021152

> <dsstox_compound_id>
DTXCID601152

> <qc_level>
DSSTox_High

> <Canonical_QSARr>
OC1C=CC(=CC=1)C1C=CC=CC=1

> <InChI_Code_QSARr>
InChI=1S/C12H10O/c13-12-8-6-11(7-9-12)10-4-2-1-3-5-10/h1-9,13H

> <InChI Key_QSARr>
YXVFYQXJAXKLAK-UHFFFAOYSA-N

> <Salt_Solvent>


> <Salt_Solvent_ID>
0

> <MPID>
98061

> <LogBCF>
1.59

> <Tr_1_Tst_0>
0

$$$$
100131
  Mrv171c012241911322D          

 14 15  0  0  0  0            999 V2000
    2.7515   -1.2334    0.0000 C   0  0  0  0  0  0  0  0  0  0  0  0
    2.0371   -0.8209    0.0000 C   0  0  0  0  0  0  0  0  0  0  0  0
    1.3226   -1.2334    0.0000 C   0  0  0  0  0  0  0  0  0  0  0  0
    0.6081   -0.8209    0.0000 C   0  0  0  0  0  0  0  0  0  0  0  0
   -0.1064   -1.2334    0.0000 O   0  0  0  0  0  0  0  0  0  0  0  0
    0.6081    0.0041    0.0000 O   0  0  0  0  0  0  0  0  0  0  0  0
    1.3226   -2.0584    0.0000 C   0  0  0  0  0  0  0  0  0  0  0  0
    0.6081   -2.4709    0.0000 O   0  0  0  0  0  0  0  0  0  0  0  0
    2.0371   -2.4709    0.0000 C   0  0  0  0  0  0  0  0  0  0  0  0
    2.7515   -2.0584    0.0000 C   0  0  0  0  0  0  0  0  0  0  0  0
    3.4660   -2.4709    0.0000 C   0  0  0  0  0  0  0  0  0  0  0  0
    4.1805   -2.0584    0.0000 C   0  0  0  0  0  0  0  0  0  0  0  0
    4.1805   -1.2334    0.0000 C   0  0  0  0  0  0  0  0  0  0  0  0
    3.4660   -0.8209    0.0000 C   0  0  0  0  0  0  0  0  0  0  0  0
  2  1  1  0  0  0  0
  3  2  2  0  0  0  0
  3  4  1  0  0  0  0
  4  5  1  0  0  0  0
  4  6  2  0  0  0  0
  7  3  1  0  0  0  0
  7  8  1  0  0  0  0
  9  7  2  0  0  0  0
 10  9  1  0  0  0  0
 10  1  2  0  0  0  0
 11 10  1  0  0  0  0
 12 11  2  0  0  0  0
 13 12  1  0  0  0  0
 14 13  2  0  0  0  0
  1 14  1  0  0  0  0
M  END
> <ChemID>
100131

> <CAS>
92-70-6

> <Original_SMILES>
Oc1cc2ccccc2cc1C(O)=O

> <preferred_name>
3-Hydroxy-2-naphthoic acid

> <dsstox_substance_id>
DTXSID3026560

> <dsstox_compound_id>
DTXCID406560

> <qc_level>
DSSTox_Low

> <Canonical_QSARr>
OC1=CC2C=CC=CC=2C=C1C(O)=O

> <InChI_Code_QSARr>
InChI=1S/C11H8O3/c12-10-6-8-4-2-1-3-7(8)5-9(10)11(13)14/h1-6,12H,(H,13,14)

> <InChI Key_QSARr>
ALKYHXVLJMQRLQ-UHFFFAOYSA-N

> <Salt_Solvent>


> <Salt_Solvent_ID>
0

> <MPID>
98062

> <LogBCF>
0.6

> <Tr_1_Tst_0>
1

$$$$
100132
  Mrv171c012241911322D          

 20 22  0  0  0  0            999 V2000
    4.9229   -1.6407    0.0000 C   0  0  0  0  0  0  0  0  0  0  0  0
    4.2084   -1.2282    0.0000 C   0  0  0  0  0  0  0  0  0  0  0  0
    3.4939   -1.6407    0.0000 C   0  0  0  0  0  0  0  0  0  0  0  0
    2.7795   -1.2282    0.0000 C   0  0  0  0  0  0  0  0  0  0  0  0
    2.7795   -0.4032    0.0000 O   0  0  0  0  0  0  0  0  0  0  0  0
    2.0650   -1.6407    0.0000 N   0  0  0  0  0  0  0  0  0  0  0  0
    1.3505   -1.2282    0.0000 C   0  0  0  0  0  0  0  0  0  0  0  0
    1.3505   -0.4032    0.0000 C   0  0  0  0  0  0  0  0  0  0  0  0
    0.6361    0.0093    0.0000 C   0  0  0  0  0  0  0  0  0  0  0  0
   -0.0784   -0.4032    0.0000 C   0  0  0  0  0  0  0  0  0  0  0  0
   -0.0784   -1.2282    0.0000 C   0  0  0  0  0  0  0  0  0  0  0  0
    0.6361   -1.6407    0.0000 C   0  0  0  0  0  0  0  0  0  0  0  0
    3.4939   -2.4657    0.0000 C   0  0  0  0  0  0  0  0  0  0  0  0
    2.7795   -2.8782    0.0000 O   0  0  0  0  0  0  0  0  0  0  0  0
    4.2084   -2.8782    0.0000 C   0  0  0  0  0  0  0  0  0  0  0  0
    4.9229   -2.4657    0.0000 C   0  0  0  0  0  0  0  0  0  0  0  0
    5.6373   -2.8782    0.0000 C   0  0  0  0  0  0  0  0  0  0  0  0
    6.3518   -2.4657    0.0000 C   0  0  0  0  0  0  0  0  0  0  0  0
    6.3518   -1.6407    0.0000 C   0  0  0  0  0  0  0  0  0  0  0  0
    5.6373   -1.2282    0.0000 C   0  0  0  0  0  0  0  0  0  0  0  0
  2  1  1  0  0  0  0
  3  2  2  0  0  0  0
  3  4  1  0  0  0  0
  4  5  2  0  0  0  0
  4  6  1  0  0  0  0
  6  7  1  0  0  0  0
  8  7  2  0  0  0  0
  9  8  1  0  0  0  0
 10  9  2  0  0  0  0
 11 10  1  0  0  0  0
 12 11  2  0  0  0  0
  7 12  1  0  0  0  0
 13  3  1  0  0  0  0
 13 14  1  0  0  0  0
 15 13  2  0  0  0  0
 16 15  1  0  0  0  0
 16  1  1  0  0  0  0
 17 16  2  0  0  0  0
 18 17  1  0  0  0  0
 19 18  2  0  0  0  0
 20 19  1  0  0  0  0
  1 20  2  0  0  0  0
M  END
> <ChemID>
100132

> <CAS>
92-77-3

> <Original_SMILES>
Oc1cc2ccccc2cc1C(=O)Nc1ccccc1

> <preferred_name>
3-Hydroxy-2-naphthanilide

> <dsstox_substance_id>
DTXSID1052618

> <dsstox_compound_id>
DTXCID9031191

> <qc_level>
DSSTox_Low

> <Canonical_QSARr>
OC1=CC2=CC=CC=C2C=C1C(=O)NC1C=CC=CC=1

> <InChI_Code_QSARr>
InChI=1S/C17H13NO2/c19-16-11-13-7-5-4-6-12(13)10-15(16)17(20)18-14-8-2-1-3-9-14/h1-11,19H,(H,18,20)

> <InChI Key_QSARr>
JFGQHAHJWJBOPD-UHFFFAOYSA-N

> <Salt_Solvent>


> <Salt_Solvent_ID>
0

> <MPID>
98063

> <LogBCF>
0.81

> <Tr_1_Tst_0>
1

$$$$
100133
  Mrv171c012241911322D          

 14 16  0  0  0  0            999 V2000
    2.1414    0.0005    0.0000 N   0  0  0  0  0  0  0  0  0  0  0  0
    2.8559   -0.4120    0.0000 C   0  0  0  0  0  0  0  0  0  0  0  0
    3.5704    0.0005    0.0000 C   0  0  0  0  0  0  0  0  0  0  0  0
    4.2849   -0.4120    0.0000 C   0  0  0  0  0  0  0  0  0  0  0  0
    4.2849   -1.2370    0.0000 C   0  0  0  0  0  0  0  0  0  0  0  0
    3.5704   -1.6495    0.0000 C   0  0  0  0  0  0  0  0  0  0  0  0
    2.8559   -1.2370    0.0000 C   0  0  0  0  0  0  0  0  0  0  0  0
    2.1414   -1.6495    0.0000 S   0  0  0  0  0  0  0  0  0  0  0  0
    1.4270   -1.2370    0.0000 C   0  0  0  0  0  0  0  0  0  0  0  0
    0.7125   -1.6495    0.0000 C   0  0  0  0  0  0  0  0  0  0  0  0
   -0.0020   -1.2370    0.0000 C   0  0  0  0  0  0  0  0  0  0  0  0
   -0.0020   -0.4120    0.0000 C   0  0  0  0  0  0  0  0  0  0  0  0
    0.7125    0.0005    0.0000 C   0  0  0  0  0  0  0  0  0  0  0  0
    1.4270   -0.4120    0.0000 C   0  0  0  0  0  0  0  0  0  0  0  0
  2  1  1  0  0  0  0
  2  3  2  0  0  0  0
  3  4  1  0  0  0  0
  4  5  2  0  0  0  0
  5  6  1  0  0  0  0
  6  7  2  0  0  0  0
  7  2  1  0  0  0  0
  8  7  1  0  0  0  0
  9  8  1  0  0  0  0
  9 10  1  0  0  0  0
 10 11  2  0  0  0  0
 11 12  1  0  0  0  0
 12 13  2  0  0  0  0
 13 14  1  0  0  0  0
  1 14  1  0  0  0  0
 14  9  2  0  0  0  0
M  END
> <ChemID>
100133

> <CAS>
92-84-2

> <Original_SMILES>
c1cccc2Nc3ccccc3Sc21

> <preferred_name>
Phenothiazine

> <dsstox_substance_id>
DTXSID5021126

> <dsstox_compound_id>
DTXCID301126

> <qc_level>
DSSTox_Low

> <Canonical_QSARr>
C1=CC=CC2NC3=CC=CC=C3SC=21

> <InChI_Code_QSARr>
InChI=1S/C12H9NS/c1-3-7-11-9(5-1)13-10-6-2-4-8-12(10)14-11/h1-8,13H

> <InChI Key_QSARr>
WJFKNYWRSNBZNX-UHFFFAOYSA-N

> <Salt_Solvent>


> <Salt_Solvent_ID>
0

> <MPID>
98064

> <LogBCF>
2.55

> <Tr_1_Tst_0>
1

$$$$
100134
  Mrv171c012241911322D          

 14 15  0  0  0  0            999 V2000
    0.7145    2.0626    0.0000 C   0  0  0  0  0  0  0  0  0  0  0  0
    1.4290    2.4751    0.0000 C   0  0  0  0  0  0  0  0  0  0  0  0
    1.4290    3.3001    0.0000 C   0  0  0  0  0  0  0  0  0  0  0  0
    0.7145    3.7126    0.0000 C   0  0  0  0  0  0  0  0  0  0  0  0
    0.7145    4.5376    0.0000 Br  0  0  0  0  0  0  0  0  0  0  0  0
    0.0000    3.3001    0.0000 C   0  0  0  0  0  0  0  0  0  0  0  0
    0.0000    2.4751    0.0000 C   0  0  0  0  0  0  0  0  0  0  0  0
    0.7145    1.2376    0.0000 C   0  0  0  0  0  0  0  0  0  0  0  0
    0.0000    0.8251    0.0000 C   0  0  0  0  0  0  0  0  0  0  0  0
    0.0000    0.0001    0.0000 C   0  0  0  0  0  0  0  0  0  0  0  0
    0.7145   -0.4124    0.0000 C   0  0  0  0  0  0  0  0  0  0  0  0
    0.7145   -1.2374    0.0000 Br  0  0  0  0  0  0  0  0  0  0  0  0
    1.4290    0.0001    0.0000 C   0  0  0  0  0  0  0  0  0  0  0  0
    1.4290    0.8251    0.0000 C   0  0  0  0  0  0  0  0  0  0  0  0
  2  1  1  0  0  0  0
  3  2  2  0  0  0  0
  4  3  1  0  0  0  0
  4  5  1  0  0  0  0
  6  4  2  0  0  0  0
  7  6  1  0  0  0  0
  1  7  2  0  0  0  0
  1  8  1  0  0  0  0
  9  8  1  0  0  0  0
 10  9  2  0  0  0  0
 11 10  1  0  0  0  0
 11 12  1  0  0  0  0
 13 11  2  0  0  0  0
 14 13  1  0  0  0  0
  8 14  2  0  0  0  0
M  END
> <ChemID>
100134

> <CAS>
92-86-4

> <Original_SMILES>
Brc1ccc(cc1)-c1ccc(Br)cc1

> <preferred_name>
1,1'-Biphenyl, 4,4'-dibromo-

> <dsstox_substance_id>
DTXSID1059072

> <dsstox_compound_id>
DTXCID3048780

> <qc_level>
Public_High

> <Canonical_QSARr>
BrC1C=CC(=CC=1)C1C=CC(Br)=CC=1

> <InChI_Code_QSARr>
InChI=1S/C12H8Br2/c13-11-5-1-9(2-6-11)10-3-7-12(14)8-4-10/h1-8H

> <InChI Key_QSARr>
HQJQYILBCQPYBI-UHFFFAOYSA-N

> <Salt_Solvent>


> <Salt_Solvent_ID>
0

> <MPID>
98065

> <LogBCF>
3.92

> <Tr_1_Tst_0>
0

$$$$
100135
  Mrv171c012241911322D          

 12 13  0  0  0  0            999 V2000
    3.3684   -2.5292    0.0000 O   0  0  0  0  0  0  0  0  0  0  0  0
    3.3684   -1.7042    0.0000 N   0  3  0  0  0  0  0  0  0  0  0  0
    4.0828   -1.2917    0.0000 O   0  5  0  0  0  0  0  0  0  0  0  0
    2.6539   -1.2917    0.0000 C   0  0  0  0  0  0  0  0  0  0  0  0
    2.6539   -0.4667    0.0000 C   0  0  0  0  0  0  0  0  0  0  0  0
    1.9394   -0.0542    0.0000 C   0  0  0  0  0  0  0  0  0  0  0  0
    1.2249   -0.4667    0.0000 C   0  0  0  0  0  0  0  0  0  0  0  0
    0.4403   -0.2118    0.0000 N   0  0  0  0  0  0  0  0  0  0  0  0
   -0.0446   -0.8792    0.0000 C   0  0  0  0  0  0  0  0  0  0  0  0
    0.4403   -1.5467    0.0000 N   0  0  0  0  0  0  0  0  0  0  0  0
    1.2249   -1.2917    0.0000 C   0  0  0  0  0  0  0  0  0  0  0  0
    1.9394   -1.7042    0.0000 C   0  0  0  0  0  0  0  0  0  0  0  0
  1  2  2  0  0  0  0
  2  3  1  0  0  0  0
  2  4  1  0  0  0  0
  5  4  1  0  0  0  0
  6  5  2  0  0  0  0
  7  6  1  0  0  0  0
  7  8  1  0  0  0  0
  8  9  1  0  0  0  0
  9 10  2  0  0  0  0
 10 11  1  0  0  0  0
 11  7  2  0  0  0  0
 12 11  1  0  0  0  0
  4 12  2  0  0  0  0
M  CHG  2   2   1   3  -1
M  END
> <ChemID>
100135

> <CAS>
94-52-0

> <Original_SMILES>
[O-][N+](=O)c1cc2[n]c[nH]c2cc1

> <preferred_name>
6-Nitrobenzimidazole

> <dsstox_substance_id>
DTXSID8020965

> <dsstox_compound_id>
DTXCID60965

> <qc_level>
DSSTox_Low

> <Canonical_QSARr>
[O-][N+](=O)C1=CC2N=CNC=2C=C1

> <InChI_Code_QSARr>
InChI=1S/C7H5N3O2/c11-10(12)5-1-2-6-7(3-5)9-4-8-6/h1-4H,(H,8,9)

> <InChI Key_QSARr>
XPAZGLFMMUODDK-UHFFFAOYSA-N

> <Salt_Solvent>


> <Salt_Solvent_ID>
0

> <MPID>
98066

> <LogBCF>
0.4

> <Tr_1_Tst_0>
1

$$$$
100136
  Mrv171c012241911322D          

  9 10  0  0  0  0            999 V2000
    2.6971   -0.4105    0.0000 C   0  0  0  0  0  0  0  0  0  0  0  0
    1.9827    0.0020    0.0000 C   0  0  0  0  0  0  0  0  0  0  0  0
    1.2682   -0.4105    0.0000 C   0  0  0  0  0  0  0  0  0  0  0  0
    0.4836   -0.1556    0.0000 S   0  0  0  0  0  0  0  0  0  0  0  0
   -0.0014   -0.8230    0.0000 C   0  0  0  0  0  0  0  0  0  0  0  0
    0.4836   -1.4904    0.0000 N   0  0  0  0  0  0  0  0  0  0  0  0
    1.2682   -1.2355    0.0000 C   0  0  0  0  0  0  0  0  0  0  0  0
    1.9827   -1.6480    0.0000 C   0  0  0  0  0  0  0  0  0  0  0  0
    2.6971   -1.2355    0.0000 C   0  0  0  0  0  0  0  0  0  0  0  0
  2  1  1  0  0  0  0
  3  2  2  0  0  0  0
  3  4  1  0  0  0  0
  4  5  1  0  0  0  0
  5  6  2  0  0  0  0
  6  7  1  0  0  0  0
  7  3  1  0  0  0  0
  8  7  2  0  0  0  0
  9  8  1  0  0  0  0
  1  9  2  0  0  0  0
M  END
> <ChemID>
100136

> <CAS>
95-16-9

> <Original_SMILES>
c1[n]c2ccccc2[s]1

> <preferred_name>
Benzothiazole

> <dsstox_substance_id>
DTXSID7024586

> <dsstox_compound_id>
DTXCID204586

> <qc_level>
DSSTox_Low

> <Canonical_QSARr>
C1=NC2=CC=CC=C2S1

> <InChI_Code_QSARr>
InChI=1S/C7H5NS/c1-2-4-7-6(3-1)8-5-9-7/h1-5H

> <InChI Key_QSARr>
IOJUPLGTWVMSFF-UHFFFAOYSA-N

> <Salt_Solvent>


> <Salt_Solvent_ID>
0

> <MPID>
98067

> <LogBCF>
0.88

> <Tr_1_Tst_0>
1

$$$$
100137
  Mrv171c012241911322D          

  8  8  0  0  0  0            999 V2000
    0.3589   -2.0602    0.0000 C   0  0  0  0  0  0  0  0  0  0  0  0
    1.0734   -2.4727    0.0000 C   0  0  0  0  0  0  0  0  0  0  0  0
    1.7879   -2.0602    0.0000 C   0  0  0  0  0  0  0  0  0  0  0  0
    1.7879   -1.2352    0.0000 C   0  0  0  0  0  0  0  0  0  0  0  0
    1.0734   -0.8227    0.0000 C   0  0  0  0  0  0  0  0  0  0  0  0
    1.0734    0.0023    0.0000 C   0  0  0  0  0  0  0  0  0  0  0  0
    0.3589   -1.2352    0.0000 C   0  0  0  0  0  0  0  0  0  0  0  0
   -0.3556   -0.8227    0.0000 C   0  0  0  0  0  0  0  0  0  0  0  0
  2  1  2  0  0  0  0
  3  2  1  0  0  0  0
  4  3  2  0  0  0  0
  5  4  1  0  0  0  0
  5  6  1  0  0  0  0
  7  5  2  0  0  0  0
  1  7  1  0  0  0  0
  7  8  1  0  0  0  0
M  END
> <ChemID>
100137

> <CAS>
95-47-6

> <Original_SMILES>
Cc1ccccc1C

> <preferred_name>
o-Xylene

> <dsstox_substance_id>
DTXSID3021807

> <dsstox_compound_id>
DTXCID501807

> <qc_level>
DSSTox_Low

> <Canonical_QSARr>
CC1C=CC=CC=1C

> <InChI_Code_QSARr>
InChI=1S/C8H10/c1-7-5-3-4-6-8(7)2/h3-6H,1-2H3

> <InChI Key_QSARr>
CTQNGGLPUBDAKN-UHFFFAOYSA-N

> <Salt_Solvent>


> <Salt_Solvent_ID>
0

> <MPID>
98068

> <LogBCF>
1.15

> <Tr_1_Tst_0>
1

$$$$
100138
  Mrv171c012241911322D          

  8  8  0  0  0  0            999 V2000
    0.0913   -0.7358    0.0000 O   0  0  0  0  0  0  0  0  0  0  0  0
    0.8057   -1.1483    0.0000 C   0  0  0  0  0  0  0  0  0  0  0  0
    0.8057   -1.9733    0.0000 C   0  0  0  0  0  0  0  0  0  0  0  0
    1.5202   -2.3858    0.0000 C   0  0  0  0  0  0  0  0  0  0  0  0
    2.2347   -1.9733    0.0000 C   0  0  0  0  0  0  0  0  0  0  0  0
    2.2347   -1.1483    0.0000 C   0  0  0  0  0  0  0  0  0  0  0  0
    1.5202   -0.7358    0.0000 C   0  0  0  0  0  0  0  0  0  0  0  0
    1.5202    0.0892    0.0000 C   0  0  0  0  0  0  0  0  0  0  0  0
  1  2  1  0  0  0  0
  3  2  1  0  0  0  0
  4  3  2  0  0  0  0
  5  4  1  0  0  0  0
  6  5  2  0  0  0  0
  7  6  1  0  0  0  0
  2  7  2  0  0  0  0
  7  8  1  0  0  0  0
M  END
> <ChemID>
100138

> <CAS>
95-48-7

> <Original_SMILES>
Cc1ccccc1O

> <preferred_name>
o-Cresol

> <dsstox_substance_id>
DTXSID8021808

> <dsstox_compound_id>
DTXCID901808

> <qc_level>
DSSTox_Low

> <Canonical_QSARr>
CC1C=CC=CC=1O

> <InChI_Code_QSARr>
InChI=1S/C7H8O/c1-6-4-2-3-5-7(6)8/h2-5,8H,1H3

> <InChI Key_QSARr>
QWVGKYWNOKOFNN-UHFFFAOYSA-N

> <Salt_Solvent>


> <Salt_Solvent_ID>
0

> <MPID>
98069

> <LogBCF>
1.03

> <Tr_1_Tst_0>
0

$$$$
100139
  Mrv171c012241911322D          

  8  8  0  0  0  0            999 V2000
    1.7860   -1.2382    0.0000 C   0  0  0  0  0  0  0  0  0  0  0  0
    2.5005   -0.8257    0.0000 C   0  0  0  0  0  0  0  0  0  0  0  0
    1.0716   -0.8257    0.0000 C   0  0  0  0  0  0  0  0  0  0  0  0
    1.0716   -0.0007    0.0000 Cl  0  0  0  0  0  0  0  0  0  0  0  0
    0.3571   -1.2382    0.0000 C   0  0  0  0  0  0  0  0  0  0  0  0
    0.3571   -2.0632    0.0000 C   0  0  0  0  0  0  0  0  0  0  0  0
    1.0716   -2.4757    0.0000 C   0  0  0  0  0  0  0  0  0  0  0  0
    1.7860   -2.0632    0.0000 C   0  0  0  0  0  0  0  0  0  0  0  0
  1  2  1  0  0  0  0
  3  1  2  0  0  0  0
  3  4  1  0  0  0  0
  5  3  1  0  0  0  0
  6  5  2  0  0  0  0
  7  6  1  0  0  0  0
  8  7  2  0  0  0  0
  1  8  1  0  0  0  0
M  END
> <ChemID>
100139

> <CAS>
95-49-8

> <Original_SMILES>
Cc1ccccc1Cl

> <preferred_name>
2-Chlorotoluene

> <dsstox_substance_id>
DTXSID8023977

> <dsstox_compound_id>
DTXCID003977

> <qc_level>
DSSTox_Low

> <Canonical_QSARr>
CC1C=CC=CC=1Cl

> <InChI_Code_QSARr>
InChI=1S/C7H7Cl/c1-6-4-2-3-5-7(6)8/h2-5H,1H3

> <InChI Key_QSARr>
IBSQPLPBRSHTTG-UHFFFAOYSA-N

> <Salt_Solvent>


> <Salt_Solvent_ID>
0

> <MPID>
98070

> <LogBCF>
1.82

> <Tr_1_Tst_0>
1

$$$$
100140
  Mrv171c012241911322D          

  8  8  0  0  0  0            999 V2000
    0.0913   -0.7358    0.0000 Cl  0  0  0  0  0  0  0  0  0  0  0  0
    0.8057   -1.1483    0.0000 C   0  0  0  0  0  0  0  0  0  0  0  0
    0.8057   -1.9733    0.0000 C   0  0  0  0  0  0  0  0  0  0  0  0
    1.5202   -2.3858    0.0000 C   0  0  0  0  0  0  0  0  0  0  0  0
    2.2347   -1.9733    0.0000 C   0  0  0  0  0  0  0  0  0  0  0  0
    2.2347   -1.1483    0.0000 C   0  0  0  0  0  0  0  0  0  0  0  0
    1.5202   -0.7358    0.0000 C   0  0  0  0  0  0  0  0  0  0  0  0
    1.5202    0.0892    0.0000 Cl  0  0  0  0  0  0  0  0  0  0  0  0
  1  2  1  0  0  0  0
  3  2  1  0  0  0  0
  4  3  2  0  0  0  0
  5  4  1  0  0  0  0
  6  5  2  0  0  0  0
  7  6  1  0  0  0  0
  2  7  2  0  0  0  0
  7  8  1  0  0  0  0
M  END
> <ChemID>
100140

> <CAS>
95-50-1

> <Original_SMILES>
Clc1ccccc1Cl

> <preferred_name>
1,2-Dichlorobenzene

> <dsstox_substance_id>
DTXSID6020430

> <dsstox_compound_id>
DTXCID00430

> <qc_level>
DSSTox_Low

> <Canonical_QSARr>
ClC1C=CC=CC=1Cl

> <InChI_Code_QSARr>
InChI=1S/C6H4Cl2/c7-5-3-1-2-4-6(5)8/h1-4H

> <InChI Key_QSARr>
RFFLAFLAYFXFSW-UHFFFAOYSA-N

> <Salt_Solvent>


> <Salt_Solvent_ID>
0

> <MPID>
98071

> <LogBCF>
2.43

> <Tr_1_Tst_0>
1

$$$$
100141
  Mrv171c012241911322D          

  8  8  0  0  0  0            999 V2000
    0.0913   -0.7358    0.0000 N   0  0  0  0  0  0  0  0  0  0  0  0
    0.8057   -1.1483    0.0000 C   0  0  0  0  0  0  0  0  0  0  0  0
    0.8057   -1.9733    0.0000 C   0  0  0  0  0  0  0  0  0  0  0  0
    1.5202   -2.3858    0.0000 C   0  0  0  0  0  0  0  0  0  0  0  0
    2.2347   -1.9733    0.0000 C   0  0  0  0  0  0  0  0  0  0  0  0
    2.2347   -1.1483    0.0000 C   0  0  0  0  0  0  0  0  0  0  0  0
    1.5202   -0.7358    0.0000 C   0  0  0  0  0  0  0  0  0  0  0  0
    1.5202    0.0892    0.0000 Cl  0  0  0  0  0  0  0  0  0  0  0  0
  1  2  1  0  0  0  0
  3  2  1  0  0  0  0
  4  3  2  0  0  0  0
  5  4  1  0  0  0  0
  6  5  2  0  0  0  0
  7  6  1  0  0  0  0
  2  7  2  0  0  0  0
  7  8  1  0  0  0  0
M  END
> <ChemID>
100141

> <CAS>
95-51-2

> <Original_SMILES>
Nc1ccccc1Cl

> <preferred_name>
2-Chloroaniline

> <dsstox_substance_id>
DTXSID2021810

> <dsstox_compound_id>
DTXCID001810

> <qc_level>
DSSTox_Low

> <Canonical_QSARr>
NC1C=CC=CC=1Cl

> <InChI_Code_QSARr>
InChI=1S/C6H6ClN/c7-5-3-1-2-4-6(5)8/h1-4H,8H2

> <InChI Key_QSARr>
AKCRQHGQIJBRMN-UHFFFAOYSA-N

> <Salt_Solvent>


> <Salt_Solvent_ID>
0

> <MPID>
98072

> <LogBCF>
0.95

> <Tr_1_Tst_0>
1

$$$$
100142
  Mrv171c012241911322D          

  8  8  0  0  0  0            999 V2000
    1.4296   -1.2347    0.0000 C   0  0  0  0  0  0  0  0  0  0  0  0
    2.1440   -0.8222    0.0000 Br  0  0  0  0  0  0  0  0  0  0  0  0
    0.7151   -0.8222    0.0000 C   0  0  0  0  0  0  0  0  0  0  0  0
    0.7151    0.0028    0.0000 O   0  0  0  0  0  0  0  0  0  0  0  0
    0.0006   -1.2347    0.0000 C   0  0  0  0  0  0  0  0  0  0  0  0
    0.0006   -2.0597    0.0000 C   0  0  0  0  0  0  0  0  0  0  0  0
    0.7151   -2.4722    0.0000 C   0  0  0  0  0  0  0  0  0  0  0  0
    1.4296   -2.0597    0.0000 C   0  0  0  0  0  0  0  0  0  0  0  0
  1  2  1  0  0  0  0
  3  1  2  0  0  0  0
  3  4  1  0  0  0  0
  5  3  1  0  0  0  0
  6  5  2  0  0  0  0
  7  6  1  0  0  0  0
  8  7  2  0  0  0  0
  1  8  1  0  0  0  0
M  END
> <ChemID>
100142

> <CAS>
95-56-7

> <Original_SMILES>
Oc1ccccc1Br

> <preferred_name>
2-Bromophenol

> <dsstox_substance_id>
DTXSID8052641

> <dsstox_compound_id>
DTXCID5031214

> <qc_level>
DSSTox_Low

> <Canonical_QSARr>
OC1C=CC=CC=1Br

> <InChI_Code_QSARr>
InChI=1S/C6H5BrO/c7-5-3-1-2-4-6(5)8/h1-4,8H

> <InChI Key_QSARr>
VADKRMSMGWJZCF-UHFFFAOYSA-N

> <Salt_Solvent>


> <Salt_Solvent_ID>
0

> <MPID>
98073

> <LogBCF>
1.52

> <Tr_1_Tst_0>
0

$$$$
100143
  Mrv171c012241911322D          

  8  8  0  0  0  0            999 V2000
    2.3863   -0.7358    0.0000 O   0  0  0  0  0  0  0  0  0  0  0  0
    1.6718   -1.1483    0.0000 C   0  0  0  0  0  0  0  0  0  0  0  0
    0.9573   -0.7358    0.0000 C   0  0  0  0  0  0  0  0  0  0  0  0
    0.9573    0.0892    0.0000 Cl  0  0  0  0  0  0  0  0  0  0  0  0
    0.2429   -1.1483    0.0000 C   0  0  0  0  0  0  0  0  0  0  0  0
    0.2429   -1.9733    0.0000 C   0  0  0  0  0  0  0  0  0  0  0  0
    0.9573   -2.3858    0.0000 C   0  0  0  0  0  0  0  0  0  0  0  0
    1.6718   -1.9733    0.0000 C   0  0  0  0  0  0  0  0  0  0  0  0
  1  2  1  0  0  0  0
  3  2  1  0  0  0  0
  3  4  1  0  0  0  0
  5  3  2  0  0  0  0
  6  5  1  0  0  0  0
  7  6  2  0  0  0  0
  8  7  1  0  0  0  0
  2  8  2  0  0  0  0
M  END
> <ChemID>
100143

> <CAS>
95-57-8

> <Original_SMILES>
Oc1ccccc1Cl

> <preferred_name>
2-Chlorophenol

> <dsstox_substance_id>
DTXSID5021544

> <dsstox_compound_id>
DTXCID901544

> <qc_level>
DSSTox_Low

> <Canonical_QSARr>
OC1=CC=CC=C1Cl

> <InChI_Code_QSARr>
InChI=1S/C6H5ClO/c7-5-3-1-2-4-6(5)8/h1-4,8H

> <InChI Key_QSARr>
ISPYQTSUDJAMAB-UHFFFAOYSA-N

> <Salt_Solvent>


> <Salt_Solvent_ID>
0

> <MPID>
98074

> <LogBCF>
1.35

> <Tr_1_Tst_0>
1

$$$$
100144
  Mrv171c012241911322D          

  9  9  0  0  0  0            999 V2000
    2.5410   -1.6499    0.0000 C   0  0  0  0  0  0  0  0  0  0  0  0
    1.8266   -1.2374    0.0000 C   0  0  0  0  0  0  0  0  0  0  0  0
    1.8266   -0.4124    0.0000 C   0  0  0  0  0  0  0  0  0  0  0  0
    1.1121    0.0001    0.0000 C   0  0  0  0  0  0  0  0  0  0  0  0
    1.1121    0.8251    0.0000 C   0  0  0  0  0  0  0  0  0  0  0  0
    0.3976   -0.4124    0.0000 C   0  0  0  0  0  0  0  0  0  0  0  0
    0.3976   -1.2374    0.0000 C   0  0  0  0  0  0  0  0  0  0  0  0
    1.1121   -1.6499    0.0000 C   0  0  0  0  0  0  0  0  0  0  0  0
    1.1121   -2.4749    0.0000 C   0  0  0  0  0  0  0  0  0  0  0  0
  1  2  1  0  0  0  0
  3  2  1  0  0  0  0
  4  3  2  0  0  0  0
  4  5  1  0  0  0  0
  6  4  1  0  0  0  0
  7  6  2  0  0  0  0
  8  7  1  0  0  0  0
  2  8  2  0  0  0  0
  8  9  1  0  0  0  0
M  END
> <ChemID>
100144

> <CAS>
95-63-6

> <Original_SMILES>
Cc1cc(C)c(C)cc1

> <preferred_name>
1,2,4-Trimethylbenzene

> <dsstox_substance_id>
DTXSID6021402

> <dsstox_compound_id>
DTXCID701402

> <qc_level>
DSSTox_Low

> <Canonical_QSARr>
CC1=CC(C)=C(C)C=C1

> <InChI_Code_QSARr>
InChI=1S/C9H12/c1-7-4-5-8(2)9(3)6-7/h4-6H,1-3H3

> <InChI Key_QSARr>
GWHJZXXIDMPWGX-UHFFFAOYSA-N

> <Salt_Solvent>


> <Salt_Solvent_ID>
0

> <MPID>
98075

> <LogBCF>
2.08

> <Tr_1_Tst_0>
1

$$$$
100145
  Mrv171c012241911322D          

  9  9  0  0  0  0            999 V2000
    2.8588   -0.1833    0.0000 C   0  0  0  0  0  0  0  0  0  0  0  0
    2.1443   -0.5958    0.0000 C   0  0  0  0  0  0  0  0  0  0  0  0
    1.4298   -0.1833    0.0000 C   0  0  0  0  0  0  0  0  0  0  0  0
    1.4298    0.6417    0.0000 C   0  0  0  0  0  0  0  0  0  0  0  0
    0.7153   -0.5958    0.0000 C   0  0  0  0  0  0  0  0  0  0  0  0
    0.7153   -1.4208    0.0000 C   0  0  0  0  0  0  0  0  0  0  0  0
    1.4298   -1.8333    0.0000 C   0  0  0  0  0  0  0  0  0  0  0  0
    1.4298   -2.6583    0.0000 N   0  0  0  0  0  0  0  0  0  0  0  0
    2.1443   -1.4208    0.0000 C   0  0  0  0  0  0  0  0  0  0  0  0
  1  2  1  0  0  0  0
  3  2  1  0  0  0  0
  3  4  1  0  0  0  0
  5  3  2  0  0  0  0
  6  5  1  0  0  0  0
  7  6  2  0  0  0  0
  7  8  1  0  0  0  0
  9  7  1  0  0  0  0
  2  9  2  0  0  0  0
M  END
> <ChemID>
100145

> <CAS>
95-64-7

> <Original_SMILES>
Cc1cc(N)ccc1C

> <preferred_name>
3,4-Dimethylaniline

> <dsstox_substance_id>
DTXSID3026308

> <dsstox_compound_id>
DTXCID406308

> <qc_level>
DSSTox_Low

> <Canonical_QSARr>
CC1=CC(N)=CC=C1C

> <InChI_Code_QSARr>
InChI=1S/C8H11N/c1-6-3-4-8(9)5-7(6)2/h3-5H,9H2,1-2H3

> <InChI Key_QSARr>
DOLQYFPDPKPQSS-UHFFFAOYSA-N

> <Salt_Solvent>


> <Salt_Solvent_ID>
0

> <MPID>
98076

> <LogBCF>
0.95

> <Tr_1_Tst_0>
1

$$$$
100146
  Mrv171c012241911322D          

  9  9  0  0  0  0            999 V2000
    1.4222   -2.4624    0.0000 N   0  0  0  0  0  0  0  0  0  0  0  0
    1.4222   -1.6374    0.0000 C   0  0  0  0  0  0  0  0  0  0  0  0
    2.1367   -1.2249    0.0000 C   0  0  0  0  0  0  0  0  0  0  0  0
    2.1367   -0.3999    0.0000 C   0  0  0  0  0  0  0  0  0  0  0  0
    1.4222    0.0126    0.0000 C   0  0  0  0  0  0  0  0  0  0  0  0
    1.4222    0.8376    0.0000 Cl  0  0  0  0  0  0  0  0  0  0  0  0
    0.7078   -0.3999    0.0000 C   0  0  0  0  0  0  0  0  0  0  0  0
    0.7078   -1.2249    0.0000 C   0  0  0  0  0  0  0  0  0  0  0  0
   -0.0067   -1.6374    0.0000 C   0  0  0  0  0  0  0  0  0  0  0  0
  1  2  1  0  0  0  0
  3  2  1  0  0  0  0
  4  3  2  0  0  0  0
  5  4  1  0  0  0  0
  5  6  1  0  0  0  0
  7  5  2  0  0  0  0
  8  7  1  0  0  0  0
  2  8  2  0  0  0  0
  8  9  1  0  0  0  0
M  END
> <ChemID>
100146

> <CAS>
95-69-2

> <Original_SMILES>
Cc1cc(Cl)ccc1N

> <preferred_name>
4-Chloro-2-methylaniline

> <dsstox_substance_id>
DTXSID1041508

> <dsstox_compound_id>
DTXCID9021508

> <qc_level>
DSSTox_Low

> <Canonical_QSARr>
CC1C=C(Cl)C=CC=1N

> <InChI_Code_QSARr>
InChI=1S/C7H8ClN/c1-5-4-6(8)2-3-7(5)9/h2-4H,9H2,1H3

> <InChI Key_QSARr>
CXNVOWPRHWWCQR-UHFFFAOYSA-N

> <Salt_Solvent>


> <Salt_Solvent_ID>
0

> <MPID>
98077

> <LogBCF>
1.54

> <Tr_1_Tst_0>
0

$$$$
100147
  Mrv171c012241911322D          

  9  9  0  0  0  0            999 V2000
    1.4296   -2.6583    0.0000 N   0  0  0  0  0  0  0  0  0  0  0  0
    1.4296   -1.8333    0.0000 C   0  0  0  0  0  0  0  0  0  0  0  0
    2.1441   -1.4208    0.0000 C   0  0  0  0  0  0  0  0  0  0  0  0
    2.1441   -0.5958    0.0000 C   0  0  0  0  0  0  0  0  0  0  0  0
    1.4296   -0.1833    0.0000 C   0  0  0  0  0  0  0  0  0  0  0  0
    1.4296    0.6417    0.0000 Cl  0  0  0  0  0  0  0  0  0  0  0  0
    0.7151   -0.5958    0.0000 C   0  0  0  0  0  0  0  0  0  0  0  0
    0.0007   -0.1833    0.0000 Cl  0  0  0  0  0  0  0  0  0  0  0  0
    0.7151   -1.4208    0.0000 C   0  0  0  0  0  0  0  0  0  0  0  0
  1  2  1  0  0  0  0
  3  2  1  0  0  0  0
  4  3  2  0  0  0  0
  5  4  1  0  0  0  0
  5  6  1  0  0  0  0
  7  5  2  0  0  0  0
  7  8  1  0  0  0  0
  9  7  1  0  0  0  0
  2  9  2  0  0  0  0
M  END
> <ChemID>
100147

> <CAS>
95-76-1

> <Original_SMILES>
Nc1cc(Cl)c(Cl)cc1

> <preferred_name>
3,4-Dichloroaniline

> <dsstox_substance_id>
DTXSID7021815

> <dsstox_compound_id>
DTXCID001815

> <qc_level>
DSSTox_Low

> <Canonical_QSARr>
NC1=CC(Cl)=C(Cl)C=C1

> <InChI_Code_QSARr>
InChI=1S/C6H5Cl2N/c7-5-2-1-4(9)3-6(5)8/h1-3H,9H2

> <InChI Key_QSARr>
SDYWXFYBZPNOFX-UHFFFAOYSA-N

> <Salt_Solvent>


> <Salt_Solvent_ID>
0

> <MPID>
98078

> <LogBCF>
1.11

> <Tr_1_Tst_0>
1

$$$$
100148
  Mrv171c012241911322D          

  9  9  0  0  0  0            999 V2000
    2.8587   -0.1833    0.0000 Cl  0  0  0  0  0  0  0  0  0  0  0  0
    2.1442   -0.5958    0.0000 C   0  0  0  0  0  0  0  0  0  0  0  0
    1.4298   -0.1833    0.0000 C   0  0  0  0  0  0  0  0  0  0  0  0
    1.4298    0.6417    0.0000 Cl  0  0  0  0  0  0  0  0  0  0  0  0
    0.7153   -0.5958    0.0000 C   0  0  0  0  0  0  0  0  0  0  0  0
    0.7153   -1.4208    0.0000 C   0  0  0  0  0  0  0  0  0  0  0  0
    1.4298   -1.8333    0.0000 C   0  0  0  0  0  0  0  0  0  0  0  0
    1.4298   -2.6583    0.0000 O   0  0  0  0  0  0  0  0  0  0  0  0
    2.1442   -1.4208    0.0000 C   0  0  0  0  0  0  0  0  0  0  0  0
  1  2  1  0  0  0  0
  3  2  1  0  0  0  0
  3  4  1  0  0  0  0
  5  3  2  0  0  0  0
  6  5  1  0  0  0  0
  7  6  2  0  0  0  0
  7  8  1  0  0  0  0
  9  7  1  0  0  0  0
  2  9  2  0  0  0  0
M  END
> <ChemID>
100148

> <CAS>
95-77-2

> <Original_SMILES>
Oc1cc(Cl)c(Cl)cc1

> <preferred_name>
3,4-Dichlorophenol

> <dsstox_substance_id>
DTXSID7025005

> <dsstox_compound_id>
DTXCID505005

> <qc_level>
DSSTox_Low

> <Canonical_QSARr>
OC1C=C(Cl)C(Cl)=CC=1

> <InChI_Code_QSARr>
InChI=1S/C6H4Cl2O/c7-5-2-1-4(9)3-6(5)8/h1-3,9H

> <InChI Key_QSARr>
WDNBURPWRNALGP-UHFFFAOYSA-N

> <Salt_Solvent>


> <Salt_Solvent_ID>
0

> <MPID>
98079

> <LogBCF>
1.69

> <Tr_1_Tst_0>
1

$$$$
100149
  Mrv171c012241911322D          

  9  9  0  0  0  0            999 V2000
    2.5410   -1.6499    0.0000 N   0  0  0  0  0  0  0  0  0  0  0  0
    1.8266   -1.2374    0.0000 C   0  0  0  0  0  0  0  0  0  0  0  0
    1.8266   -0.4124    0.0000 C   0  0  0  0  0  0  0  0  0  0  0  0
    1.1121    0.0001    0.0000 C   0  0  0  0  0  0  0  0  0  0  0  0
    1.1121    0.8251    0.0000 C   0  0  0  0  0  0  0  0  0  0  0  0
    0.3976   -0.4124    0.0000 C   0  0  0  0  0  0  0  0  0  0  0  0
    0.3976   -1.2374    0.0000 C   0  0  0  0  0  0  0  0  0  0  0  0
    1.1121   -1.6499    0.0000 C   0  0  0  0  0  0  0  0  0  0  0  0
    1.1121   -2.4749    0.0000 C   0  0  0  0  0  0  0  0  0  0  0  0
  1  2  1  0  0  0  0
  3  2  1  0  0  0  0
  4  3  2  0  0  0  0
  4  5  1  0  0  0  0
  6  4  1  0  0  0  0
  7  6  2  0  0  0  0
  8  7  1  0  0  0  0
  2  8  2  0  0  0  0
  8  9  1  0  0  0  0
M  END
> <ChemID>
100149

> <CAS>
95-78-3

> <Original_SMILES>
Cc1cc(N)c(C)cc1

> <preferred_name>
2,5-Dimethylaniline

> <dsstox_substance_id>
DTXSID3026306

> <dsstox_compound_id>
DTXCID606306

> <qc_level>
DSSTox_Low

> <Canonical_QSARr>
CC1=CC(N)=C(C)C=C1

> <InChI_Code_QSARr>
InChI=1S/C8H11N/c1-6-3-4-7(2)8(9)5-6/h3-5H,9H2,1-2H3

> <InChI Key_QSARr>
VOWZNBNDMFLQGM-UHFFFAOYSA-N

> <Salt_Solvent>


> <Salt_Solvent_ID>
0

> <MPID>
98080

> <LogBCF>
0.58

> <Tr_1_Tst_0>
1

$$$$
100150
  Mrv171c012241911322D          

  9  9  0  0  0  0            999 V2000
    2.5410   -1.6499    0.0000 N   0  0  0  0  0  0  0  0  0  0  0  0
    1.8265   -1.2374    0.0000 C   0  0  0  0  0  0  0  0  0  0  0  0
    1.8265   -0.4124    0.0000 C   0  0  0  0  0  0  0  0  0  0  0  0
    1.1121    0.0001    0.0000 C   0  0  0  0  0  0  0  0  0  0  0  0
    1.1121    0.8251    0.0000 N   0  0  0  0  0  0  0  0  0  0  0  0
    0.3976   -0.4124    0.0000 C   0  0  0  0  0  0  0  0  0  0  0  0
    0.3976   -1.2374    0.0000 C   0  0  0  0  0  0  0  0  0  0  0  0
    1.1121   -1.6499    0.0000 C   0  0  0  0  0  0  0  0  0  0  0  0
    1.1121   -2.4749    0.0000 C   0  0  0  0  0  0  0  0  0  0  0  0
  1  2  1  0  0  0  0
  3  2  1  0  0  0  0
  4  3  2  0  0  0  0
  4  5  1  0  0  0  0
  6  4  1  0  0  0  0
  7  6  2  0  0  0  0
  8  7  1  0  0  0  0
  2  8  2  0  0  0  0
  8  9  1  0  0  0  0
M  END
> <ChemID>
100150

> <CAS>
95-80-7

> <Original_SMILES>
Cc1ccc(N)cc1N

> <preferred_name>
2,4-Diaminotoluene

> <dsstox_substance_id>
DTXSID4020402

> <dsstox_compound_id>
DTXCID00402

> <qc_level>
DSSTox_High

> <Canonical_QSARr>
CC1C=CC(N)=CC=1N

> <InChI_Code_QSARr>
InChI=1S/C7H10N2/c1-5-2-3-6(8)4-7(5)9/h2-4H,8-9H2,1H3

> <InChI Key_QSARr>
VOZKAJLKRJDJLL-UHFFFAOYSA-N

> <Salt_Solvent>


> <Salt_Solvent_ID>
0

> <MPID>
98081

> <LogBCF>
1.7

> <Tr_1_Tst_0>
0

$$$$
100151
  Mrv171c012241911322D          

  9  9  0  0  0  0            999 V2000
    2.5410   -1.6499    0.0000 N   0  0  0  0  0  0  0  0  0  0  0  0
    1.8265   -1.2374    0.0000 C   0  0  0  0  0  0  0  0  0  0  0  0
    1.8265   -0.4124    0.0000 C   0  0  0  0  0  0  0  0  0  0  0  0
    1.1121    0.0001    0.0000 C   0  0  0  0  0  0  0  0  0  0  0  0
    1.1121    0.8251    0.0000 Cl  0  0  0  0  0  0  0  0  0  0  0  0
    0.3976   -0.4124    0.0000 C   0  0  0  0  0  0  0  0  0  0  0  0
    0.3976   -1.2374    0.0000 C   0  0  0  0  0  0  0  0  0  0  0  0
    1.1121   -1.6499    0.0000 C   0  0  0  0  0  0  0  0  0  0  0  0
    1.1121   -2.4749    0.0000 Cl  0  0  0  0  0  0  0  0  0  0  0  0
  1  2  1  0  0  0  0
  3  2  1  0  0  0  0
  4  3  2  0  0  0  0
  4  5  1  0  0  0  0
  6  4  1  0  0  0  0
  7  6  2  0  0  0  0
  8  7  1  0  0  0  0
  2  8  2  0  0  0  0
  8  9  1  0  0  0  0
M  END
> <ChemID>
100151

> <CAS>
95-82-9

> <Original_SMILES>
Nc1cc(Cl)ccc1Cl

> <preferred_name>
2,5-Dichloroaniline

> <dsstox_substance_id>
DTXSID6024967

> <dsstox_compound_id>
DTXCID804967

> <qc_level>
DSSTox_Low

> <Canonical_QSARr>
NC1C=C(Cl)C=CC=1Cl

> <InChI_Code_QSARr>
InChI=1S/C6H5Cl2N/c7-4-1-2-5(8)6(9)3-4/h1-3H,9H2

> <InChI Key_QSARr>
AVYGCQXNNJPXSS-UHFFFAOYSA-N

> <Salt_Solvent>


> <Salt_Solvent_ID>
0

> <MPID>
98082

> <LogBCF>
1.18

> <Tr_1_Tst_0>
1

$$$$
100152
  Mrv171c012241911322D          

 10 10  0  0  0  0            999 V2000
    3.0867   -0.6079    0.0000 Cl  0  0  0  0  0  0  0  0  0  0  0  0
    2.3722   -1.0204    0.0000 C   0  0  0  0  0  0  0  0  0  0  0  0
    1.6577   -0.6079    0.0000 C   0  0  0  0  0  0  0  0  0  0  0  0
    1.6577    0.2171    0.0000 Cl  0  0  0  0  0  0  0  0  0  0  0  0
    0.9433   -1.0204    0.0000 C   0  0  0  0  0  0  0  0  0  0  0  0
    0.9433   -1.8454    0.0000 C   0  0  0  0  0  0  0  0  0  0  0  0
    0.2288   -2.2579    0.0000 Cl  0  0  0  0  0  0  0  0  0  0  0  0
    1.6577   -2.2579    0.0000 C   0  0  0  0  0  0  0  0  0  0  0  0
    1.6577   -3.0829    0.0000 Cl  0  0  0  0  0  0  0  0  0  0  0  0
    2.3722   -1.8454    0.0000 C   0  0  0  0  0  0  0  0  0  0  0  0
  1  2  1  0  0  0  0
  3  2  2  0  0  0  0
  3  4  1  0  0  0  0
  5  3  1  0  0  0  0
  6  5  2  0  0  0  0
  6  7  1  0  0  0  0
  8  6  1  0  0  0  0
  8  9  1  0  0  0  0
 10  8  2  0  0  0  0
  2 10  1  0  0  0  0
M  END
> <ChemID>
100152

> <CAS>
95-94-3

> <Original_SMILES>
Clc1cc(Cl)c(Cl)cc1Cl

> <preferred_name>
1,2,4,5-Tetrachlorobenzene

> <dsstox_substance_id>
DTXSID7024320

> <dsstox_compound_id>
DTXCID604320

> <qc_level>
DSSTox_Low

> <Canonical_QSARr>
ClC1C=C(Cl)C(Cl)=CC=1Cl

> <InChI_Code_QSARr>
InChI=1S/C6H2Cl4/c7-3-1-4(8)6(10)2-5(3)9/h1-2H

> <InChI Key_QSARr>
JHBKHLUZVFWLAG-UHFFFAOYSA-N

> <Salt_Solvent>


> <Salt_Solvent_ID>
0

> <MPID>
98083

> <LogBCF>
3.44

> <Tr_1_Tst_0>
1

$$$$
100153
  Mrv171c012241911322D          

 10 10  0  0  0  0            999 V2000
    2.8552   -1.6506    0.0000 Cl  0  0  0  0  0  0  0  0  0  0  0  0
    2.1408   -1.2381    0.0000 C   0  0  0  0  0  0  0  0  0  0  0  0
    2.1408   -0.4131    0.0000 C   0  0  0  0  0  0  0  0  0  0  0  0
    1.4263   -0.0006    0.0000 C   0  0  0  0  0  0  0  0  0  0  0  0
    1.4263    0.8244    0.0000 Cl  0  0  0  0  0  0  0  0  0  0  0  0
    0.7118   -0.4131    0.0000 C   0  0  0  0  0  0  0  0  0  0  0  0
   -0.0026   -0.0006    0.0000 Cl  0  0  0  0  0  0  0  0  0  0  0  0
    0.7118   -1.2381    0.0000 C   0  0  0  0  0  0  0  0  0  0  0  0
    1.4263   -1.6506    0.0000 C   0  0  0  0  0  0  0  0  0  0  0  0
    1.4263   -2.4756    0.0000 O   0  0  0  0  0  0  0  0  0  0  0  0
  1  2  1  0  0  0  0
  3  2  1  0  0  0  0
  4  3  2  0  0  0  0
  4  5  1  0  0  0  0
  6  4  1  0  0  0  0
  6  7  1  0  0  0  0
  8  6  2  0  0  0  0
  9  8  1  0  0  0  0
  2  9  2  0  0  0  0
  9 10  1  0  0  0  0
M  END
> <ChemID>
100153

> <CAS>
95-95-4

> <Original_SMILES>
Oc1cc(Cl)c(Cl)cc1Cl

> <preferred_name>
2,4,5-Trichlorophenol

> <dsstox_substance_id>
DTXSID4024359

> <dsstox_compound_id>
DTXCID104359

> <qc_level>
DSSTox_High

> <Canonical_QSARr>
OC1C=C(Cl)C(Cl)=CC=1Cl

> <InChI_Code_QSARr>
InChI=1S/C6H3Cl3O/c7-3-1-5(9)6(10)2-4(3)8/h1-2,10H

> <InChI Key_QSARr>
LHJGJYXLEPZJPM-UHFFFAOYSA-N

> <Salt_Solvent>


> <Salt_Solvent_ID>
0

> <MPID>
98084

> <LogBCF>
2.73

> <Tr_1_Tst_0>
1

$$$$
100154
  Mrv171c012241911322D          

  6  5  0  0  0  0            999 V2000
    0.8266   -1.6670    0.0000 Br  0  0  0  0  0  0  0  0  0  0  0  0
    1.2391   -0.9525    0.0000 C   0  0  0  0  0  0  0  0  0  0  0  0
    2.0641   -0.9525    0.0000 C   0  0  0  0  0  0  0  0  0  0  0  0
    2.4766   -1.6670    0.0000 Br  0  0  0  0  0  0  0  0  0  0  0  0
    0.8266   -0.2381    0.0000 C   0  0  0  0  0  0  0  0  0  0  0  0
    0.0016   -0.2381    0.0000 Cl  0  0  0  0  0  0  0  0  0  0  0  0
  1  2  1  0  0  0  0
  2  3  1  0  0  0  0
  3  4  1  0  0  0  0
  2  5  1  0  0  0  0
  5  6  1  0  0  0  0
M  END
> <ChemID>
100154

> <CAS>
96-12-8

> <Original_SMILES>
ClCC(Br)CBr

> <preferred_name>
1,2-Dibromo-3-chloropropane

> <dsstox_substance_id>
DTXSID3020413

> <dsstox_compound_id>
DTXCID50413

> <qc_level>
DSSTox_Low

> <Canonical_QSARr>
ClCC(Br)CBr

> <InChI_Code_QSARr>
InChI=1S/C3H5Br2Cl/c4-1-3(5)2-6/h3H,1-2H2

> <InChI Key_QSARr>
WBEJYOJJBDISQU-UHFFFAOYSA-N

> <Salt_Solvent>


> <Salt_Solvent_ID>
0

> <MPID>
98085

> <LogBCF>
1.06

> <Tr_1_Tst_0>
0

$$$$
100155
  Mrv171c012241911322D          

  6  5  0  0  0  0            999 V2000
    0.8266   -1.6670    0.0000 Cl  0  0  0  0  0  0  0  0  0  0  0  0
    1.2391   -0.9525    0.0000 C   0  0  0  0  0  0  0  0  0  0  0  0
    2.0641   -0.9525    0.0000 C   0  0  0  0  0  0  0  0  0  0  0  0
    2.4766   -1.6670    0.0000 Cl  0  0  0  0  0  0  0  0  0  0  0  0
    0.8266   -0.2381    0.0000 C   0  0  0  0  0  0  0  0  0  0  0  0
    0.0016   -0.2381    0.0000 Cl  0  0  0  0  0  0  0  0  0  0  0  0
  1  2  1  0  0  0  0
  2  3  1  0  0  0  0
  3  4  1  0  0  0  0
  2  5  1  0  0  0  0
  5  6  1  0  0  0  0
M  END
> <ChemID>
100155

> <CAS>
96-18-4

> <Original_SMILES>
ClC(CCl)CCl

> <preferred_name>
1,2,3-Trichloropropane

> <dsstox_substance_id>
DTXSID9021390

> <dsstox_compound_id>
DTXCID401390

> <qc_level>
DSSTox_Low

> <Canonical_QSARr>
ClC(CCl)CCl

> <InChI_Code_QSARr>
InChI=1S/C3H5Cl3/c4-1-3(6)2-5/h3H,1-2H2

> <InChI Key_QSARr>
CFXQEHVMCRXUSD-UHFFFAOYSA-N

> <Salt_Solvent>


> <Salt_Solvent_ID>
0

> <MPID>
98086

> <LogBCF>
1.11

> <Tr_1_Tst_0>
1

$$$$
100156
  Mrv171c012241911322D          

  6  5  0  0  0  0            999 V2000
    2.8146   -0.1146    0.0000 C   0  0  0  0  0  0  0  0  0  0  0  0
    1.9896   -0.1146    0.0000 C   0  0  0  0  0  0  0  0  0  0  0  0
    1.5771   -0.8291    0.0000 C   0  0  0  0  0  0  0  0  0  0  0  0
    0.7521   -0.8291    0.0000 N   0  0  0  0  0  0  0  0  0  0  0  0
    0.3396   -1.5436    0.0000 O   0  0  0  0  0  0  0  0  0  0  0  0
    1.9896   -1.5436    0.0000 C   0  0  0  0  0  0  0  0  0  0  0  0
  1  2  1  0  0  0  0
  2  3  1  0  0  0  0
  3  4  2  0  0  0  0
  4  5  1  4  0  0  0
  3  6  1  0  0  0  0
M  END
> <ChemID>
100156

> <CAS>
96-29-7

> <Original_SMILES>
CCC(C)=NO

> <preferred_name>
2-Butanone oxime

> <dsstox_substance_id>
DTXSID1021821

> <dsstox_compound_id>
DTXCID701821

> <qc_level>
DSSTox_Low

> <Canonical_QSARr>
CCC(C)=NO

> <InChI_Code_QSARr>
InChI=1S/C4H9NO/c1-3-4(2)5-6/h6H,3H2,1-2H3

> <InChI Key_QSARr>
WHIVNJATOVLWBW-UHFFFAOYSA-N

> <Salt_Solvent>


> <Salt_Solvent_ID>
0

> <MPID>
98087

> <LogBCF>
0.7

> <Tr_1_Tst_0>
1

$$$$
100157
  Mrv171c012241911322D          

  6  6  0  0  0  0            999 V2000
    1.2717    0.6061    0.0000 S   0  0  0  0  0  0  0  0  0  0  0  0
    1.2717   -0.2189    0.0000 C   0  0  0  0  0  0  0  0  0  0  0  0
    0.6043   -0.7038    0.0000 N   0  0  0  0  0  0  0  0  0  0  0  0
    0.8592   -1.4885    0.0000 C   0  0  0  0  0  0  0  0  0  0  0  0
    1.6842   -1.4885    0.0000 C   0  0  0  0  0  0  0  0  0  0  0  0
    1.9392   -0.7038    0.0000 N   0  0  0  0  0  0  0  0  0  0  0  0
  1  2  2  0  0  0  0
  3  2  1  0  0  0  0
  4  3  1  0  0  0  0
  5  4  1  0  0  0  0
  6  5  1  0  0  0  0
  2  6  1  0  0  0  0
M  END
> <ChemID>
100157

> <CAS>
96-45-7

> <Original_SMILES>
S=C1NCCN1

> <preferred_name>
Ethylene thiourea

> <dsstox_substance_id>
DTXSID5020601

> <dsstox_compound_id>
DTXCID90601

> <qc_level>
DSSTox_Low

> <Canonical_QSARr>
S=C1NCCN1

> <InChI_Code_QSARr>
InChI=1S/C3H6N2S/c6-3-4-1-2-5-3/h1-2H2,(H2,4,5,6)

> <InChI Key_QSARr>
PDQAZBWRQCGBEV-UHFFFAOYSA-N

> <Salt_Solvent>


> <Salt_Solvent_ID>
0

> <MPID>
98088

> <LogBCF>
0.26

> <Tr_1_Tst_0>
1

$$$$
100158
  Mrv171c012241911322D          

 15 15  0  0  0  0            999 V2000
    1.6800   -2.7827    0.0000 C   0  0  0  0  0  0  0  0  0  0  0  0
    2.3945   -2.3702    0.0000 C   0  0  0  0  0  0  0  0  0  0  0  0
    2.3945   -1.5452    0.0000 C   0  0  0  0  0  0  0  0  0  0  0  0
    1.6800   -1.1327    0.0000 C   0  0  0  0  0  0  0  0  0  0  0  0
    1.6800   -0.3077    0.0000 C   0  0  0  0  0  0  0  0  0  0  0  0
    1.6800    0.5173    0.0000 C   0  0  0  0  0  0  0  0  0  0  0  0
    0.8550   -0.3077    0.0000 C   0  0  0  0  0  0  0  0  0  0  0  0
    2.5050   -0.3077    0.0000 C   0  0  0  0  0  0  0  0  0  0  0  0
    0.9655   -1.5452    0.0000 C   0  0  0  0  0  0  0  0  0  0  0  0
    0.9655   -2.3702    0.0000 C   0  0  0  0  0  0  0  0  0  0  0  0
    0.2511   -2.7827    0.0000 C   0  0  0  0  0  0  0  0  0  0  0  0
   -0.4634   -3.1952    0.0000 C   0  0  0  0  0  0  0  0  0  0  0  0
   -0.1614   -2.0682    0.0000 C   0  0  0  0  0  0  0  0  0  0  0  0
    0.6636   -3.4972    0.0000 C   0  0  0  0  0  0  0  0  0  0  0  0
    1.6800   -3.6077    0.0000 O   0  0  0  0  0  0  0  0  0  0  0  0
  2  1  1  0  0  0  0
  3  2  2  0  0  0  0
  4  3  1  0  0  0  0
  4  5  1  0  0  0  0
  5  6  1  0  0  0  0
  5  7  1  0  0  0  0
  5  8  1  0  0  0  0
  9  4  2  0  0  0  0
 10  9  1  0  0  0  0
  1 10  2  0  0  0  0
 10 11  1  0  0  0  0
 11 12  1  0  0  0  0
 11 13  1  0  0  0  0
 11 14  1  0  0  0  0
  1 15  1  0  0  0  0
M  END
> <ChemID>
100158

> <CAS>
96-76-4

> <Original_SMILES>
CC(C)(C)c1cc(ccc1O)C(C)(C)C

> <preferred_name>
2,4-Di-tert-butylphenol

> <dsstox_substance_id>
DTXSID2026602

> <dsstox_compound_id>
DTXCID606602

> <qc_level>
DSSTox_Low

> <Canonical_QSARr>
CC(C)(C)C1C=C(C=CC=1O)C(C)(C)C

> <InChI_Code_QSARr>
InChI=1S/C14H22O/c1-13(2,3)10-7-8-12(15)11(9-10)14(4,5)6/h7-9,15H,1-6H3

> <InChI Key_QSARr>
ICKWICRCANNIBI-UHFFFAOYSA-N

> <Salt_Solvent>


> <Salt_Solvent_ID>
0

> <MPID>
98089

> <LogBCF>
2.4

> <Tr_1_Tst_0>
0

$$$$
100159
  Mrv171c012241911322D          

 14 14  0  0  0  0            999 V2000
    3.0264   -1.1316    0.0000 N   0  3  0  0  0  0  0  0  0  0  0  0
    2.3120   -1.5441    0.0000 C   0  0  0  0  0  0  0  0  0  0  0  0
    1.5975   -1.1316    0.0000 C   0  0  0  0  0  0  0  0  0  0  0  0
    1.5975   -0.3066    0.0000 O   0  0  0  0  0  0  0  0  0  0  0  0
    0.8830   -1.5441    0.0000 C   0  0  0  0  0  0  0  0  0  0  0  0
    0.1685   -1.1316    0.0000 N   0  0  0  0  0  0  0  0  0  0  0  0
    0.8830   -2.3691    0.0000 C   0  0  0  0  0  0  0  0  0  0  0  0
    1.5975   -2.7816    0.0000 C   0  0  0  0  0  0  0  0  0  0  0  0
    1.5975   -3.6066    0.0000 N   0  3  0  0  0  0  0  0  0  0  0  0
    2.3120   -4.0191    0.0000 O   0  5  0  0  0  0  0  0  0  0  0  0
    0.8830   -4.0191    0.0000 O   0  0  0  0  0  0  0  0  0  0  0  0
    2.3120   -2.3691    0.0000 C   0  0  0  0  0  0  0  0  0  0  0  0
    3.7409   -1.5441    0.0000 O   0  5  0  0  0  0  0  0  0  0  0  0
    3.0264   -0.3066    0.0000 O   0  0  0  0  0  0  0  0  0  0  0  0
  1  2  1  0  0  0  0
  3  2  1  0  0  0  0
  3  4  1  0  0  0  0
  5  3  2  0  0  0  0
  5  6  1  0  0  0  0
  7  5  1  0  0  0  0
  8  7  2  0  0  0  0
  8  9  1  0  0  0  0
  9 10  1  0  0  0  0
  9 11  2  0  0  0  0
 12  8  1  0  0  0  0
  2 12  2  0  0  0  0
  1 13  1  0  0  0  0
  1 14  2  0  0  0  0
M  CHG  4   1   1   9   1  10  -1  13  -1
M  END
> <ChemID>
100159

> <CAS>
96-91-3

> <Original_SMILES>
Nc1cc(cc(c1O)[N+]([O-])=O)[N+]([O-])=O

> <preferred_name>
2-Amino-4,6-dinitrophenol

> <dsstox_substance_id>
DTXSID5024479

> <dsstox_compound_id>
DTXCID904479

> <qc_level>
DSSTox_Low

> <Canonical_QSARr>
NC1C=C(C=C(C=1O)[N+]([O-])=O)[N+]([O-])=O

> <InChI_Code_QSARr>
InChI=1S/C6H5N3O5/c7-4-1-3(8(11)12)2-5(6(4)10)9(13)14/h1-2,10H,7H2

> <InChI Key_QSARr>
QXYMVUZOGFVPGH-UHFFFAOYSA-N

> <Salt_Solvent>


> <Salt_Solvent_ID>
0

> <MPID>
98090

> <LogBCF>
0.47

> <Tr_1_Tst_0>
1

$$$$
100160
  Mrv171c012241911322D          

 12 12  0  0  0  0            999 V2000
    2.6240   -1.5145    0.0000 C   0  0  0  0  0  0  0  0  0  0  0  0
    3.3385   -1.1020    0.0000 N   0  0  0  0  0  0  0  0  0  0  0  0
    1.9096   -1.1020    0.0000 C   0  0  0  0  0  0  0  0  0  0  0  0
    1.9096   -0.2770    0.0000 N   0  3  0  0  0  0  0  0  0  0  0  0
    1.1951    0.1355    0.0000 O   0  0  0  0  0  0  0  0  0  0  0  0
    2.6240    0.1355    0.0000 O   0  5  0  0  0  0  0  0  0  0  0  0
    1.1951   -1.5145    0.0000 C   0  0  0  0  0  0  0  0  0  0  0  0
    1.1951   -2.3395    0.0000 C   0  0  0  0  0  0  0  0  0  0  0  0
    0.4806   -2.7520    0.0000 O   0  0  0  0  0  0  0  0  0  0  0  0
    0.4806   -3.5770    0.0000 C   0  0  0  0  0  0  0  0  0  0  0  0
    1.9096   -2.7520    0.0000 C   0  0  0  0  0  0  0  0  0  0  0  0
    2.6240   -2.3395    0.0000 C   0  0  0  0  0  0  0  0  0  0  0  0
  1  2  1  0  0  0  0
  3  1  1  0  0  0  0
  3  4  1  0  0  0  0
  4  5  2  0  0  0  0
  4  6  1  0  0  0  0
  7  3  2  0  0  0  0
  8  7  1  0  0  0  0
  8  9  1  0  0  0  0
  9 10  1  0  0  0  0
 11  8  2  0  0  0  0
 12 11  1  0  0  0  0
  1 12  2  0  0  0  0
M  CHG  2   4   1   6  -1
M  END
> <ChemID>
100160

> <CAS>
96-96-8

> <Original_SMILES>
COc1cc(c(N)cc1)[N+]([O-])=O

> <preferred_name>
4-Methoxy-2-nitroaniline

> <dsstox_substance_id>
DTXSID3044750

> <dsstox_compound_id>
DTXCID1024750

> <qc_level>
DSSTox_Low

> <Canonical_QSARr>
COC1C=C(C(N)=CC=1)[N+]([O-])=O

> <InChI_Code_QSARr>
InChI=1S/C7H8N2O3/c1-12-5-2-3-6(8)7(4-5)9(10)11/h2-4H,8H2,1H3

> <InChI Key_QSARr>
QFMJFXFXQAFGBO-UHFFFAOYSA-N

> <Salt_Solvent>


> <Salt_Solvent_ID>
0

> <MPID>
98091

> <LogBCF>
0.85

> <Tr_1_Tst_0>
1

$$$$
100161
  Mrv171c012241911322D          

 17 18  0  0  0  0            999 V2000
    0.0822   -2.5206    0.0000 O   0  0  0  0  0  0  0  0  0  0  0  0
    0.7967   -2.9331    0.0000 C   0  0  0  0  0  0  0  0  0  0  0  0
    1.5111   -2.5206    0.0000 C   0  0  0  0  0  0  0  0  0  0  0  0
    1.5111   -1.6956    0.0000 C   0  0  0  0  0  0  0  0  0  0  0  0
    2.2256   -1.2831    0.0000 C   0  0  0  0  0  0  0  0  0  0  0  0
    2.9401   -1.6956    0.0000 C   0  0  0  0  0  0  0  0  0  0  0  0
    2.9401   -2.5206    0.0000 O   0  0  0  0  0  0  0  0  0  0  0  0
    3.6545   -1.2831    0.0000 C   0  0  0  0  0  0  0  0  0  0  0  0
    3.6545   -0.4581    0.0000 C   0  0  0  0  0  0  0  0  0  0  0  0
    2.9401   -0.0456    0.0000 C   0  0  0  0  0  0  0  0  0  0  0  0
    2.9401    0.7794    0.0000 Cl  0  0  0  0  0  0  0  0  0  0  0  0
    2.2256   -0.4581    0.0000 C   0  0  0  0  0  0  0  0  0  0  0  0
    2.2256   -2.9331    0.0000 C   0  0  0  0  0  0  0  0  0  0  0  0
    2.2256   -3.7581    0.0000 C   0  0  0  0  0  0  0  0  0  0  0  0
    2.9401   -4.1706    0.0000 Cl  0  0  0  0  0  0  0  0  0  0  0  0
    1.5111   -4.1706    0.0000 C   0  0  0  0  0  0  0  0  0  0  0  0
    0.7967   -3.7581    0.0000 C   0  0  0  0  0  0  0  0  0  0  0  0
  1  2  1  0  0  0  0
  3  2  1  0  0  0  0
  3  4  1  0  0  0  0
  4  5  1  0  0  0  0
  6  5  1  0  0  0  0
  6  7  1  0  0  0  0
  8  6  2  0  0  0  0
  9  8  1  0  0  0  0
 10  9  2  0  0  0  0
 10 11  1  0  0  0  0
 12 10  1  0  0  0  0
  5 12  2  0  0  0  0
 13  3  2  0  0  0  0
 14 13  1  0  0  0  0
 14 15  1  0  0  0  0
 16 14  2  0  0  0  0
 17 16  1  0  0  0  0
  2 17  2  0  0  0  0
M  END
> <ChemID>
100161

> <CAS>
97-23-4

> <Original_SMILES>
Oc1ccc(Cl)cc1Cc1cc(Cl)ccc1O

> <preferred_name>
Dichlorophen

> <dsstox_substance_id>
DTXSID6021824

> <dsstox_compound_id>
DTXCID901824

> <qc_level>
DSSTox_High

> <Canonical_QSARr>
OC1=CC=C(Cl)C=C1CC1=CC(Cl)=CC=C1O

> <InChI_Code_QSARr>
InChI=1S/C13H10Cl2O2/c14-10-1-3-12(16)8(6-10)5-9-7-11(15)2-4-13(9)17/h1-4,6-7,16-17H,5H2

> <InChI Key_QSARr>
MDNWOSOZYLHTCG-UHFFFAOYSA-N

> <Salt_Solvent>


> <Salt_Solvent_ID>
0

> <MPID>
98092

> <LogBCF>
2.28

> <Tr_1_Tst_0>
1

$$$$
100162
  Mrv171c012241911322D          

 10 10  0  0  0  0            999 V2000
    1.5649    0.9089    0.0000 F   0  0  0  0  0  0  0  0  0  0  0  0
    1.5649    0.0839    0.0000 C   0  0  0  0  0  0  0  0  0  0  0  0
    1.5649   -0.7411    0.0000 C   0  0  0  0  0  0  0  0  0  0  0  0
    0.8505   -1.1536    0.0000 C   0  0  0  0  0  0  0  0  0  0  0  0
    0.8505   -1.9786    0.0000 C   0  0  0  0  0  0  0  0  0  0  0  0
    1.5649   -2.3911    0.0000 C   0  0  0  0  0  0  0  0  0  0  0  0
    2.2794   -1.9786    0.0000 C   0  0  0  0  0  0  0  0  0  0  0  0
    2.2794   -1.1536    0.0000 C   0  0  0  0  0  0  0  0  0  0  0  0
    0.7399    0.0839    0.0000 F   0  0  0  0  0  0  0  0  0  0  0  0
    2.3899    0.0839    0.0000 F   0  0  0  0  0  0  0  0  0  0  0  0
  1  2  1  0  0  0  0
  2  3  1  0  0  0  0
  4  3  1  0  0  0  0
  5  4  2  0  0  0  0
  6  5  1  0  0  0  0
  7  6  2  0  0  0  0
  8  7  1  0  0  0  0
  3  8  2  0  0  0  0
  2  9  1  0  0  0  0
  2 10  1  0  0  0  0
M  END
> <ChemID>
100162

> <CAS>
98-08-8

> <Original_SMILES>
FC(F)(F)c1ccccc1

> <preferred_name>
Benzotrifluoride

> <dsstox_substance_id>
DTXSID2024589

> <dsstox_compound_id>
DTXCID404589

> <qc_level>
DSSTox_Low

> <Canonical_QSARr>
FC(F)(F)C1C=CC=CC=1

> <InChI_Code_QSARr>
InChI=1S/C7H5F3/c8-7(9,10)6-4-2-1-3-5-6/h1-5H

> <InChI Key_QSARr>
GETTZEONDQJALK-UHFFFAOYSA-N

> <Salt_Solvent>


> <Salt_Solvent_ID>
0

> <MPID>
98093

> <LogBCF>
1.65

> <Tr_1_Tst_0>
0

$$$$
100163
  Mrv171c012241911322D          

 10 10  0  0  0  0            999 V2000
    0.7145    1.2375    0.0000 C   0  0  0  0  0  0  0  0  0  0  0  0
    0.7145    2.0625    0.0000 S   0  0  0  0  0  0  0  0  0  0  0  0
    0.7145    2.8875    0.0000 O   0  0  0  0  0  0  0  0  0  0  0  0
   -0.1105    2.0625    0.0000 O   0  0  0  0  0  0  0  0  0  0  0  0
    1.5395    2.0625    0.0000 N   0  0  0  0  0  0  0  0  0  0  0  0
    0.0000    0.8250    0.0000 C   0  0  0  0  0  0  0  0  0  0  0  0
    0.0000   -0.0000    0.0000 C   0  0  0  0  0  0  0  0  0  0  0  0
    0.7145   -0.4125    0.0000 C   0  0  0  0  0  0  0  0  0  0  0  0
    1.4289    0.0000    0.0000 C   0  0  0  0  0  0  0  0  0  0  0  0
    1.4289    0.8250    0.0000 C   0  0  0  0  0  0  0  0  0  0  0  0
  1  2  1  0  0  0  0
  2  3  2  0  0  0  0
  2  4  2  0  0  0  0
  2  5  1  0  0  0  0
  6  1  1  0  0  0  0
  7  6  2  0  0  0  0
  8  7  1  0  0  0  0
  9  8  2  0  0  0  0
 10  9  1  0  0  0  0
  1 10  2  0  0  0  0
M  END
> <ChemID>
100163

> <CAS>
98-10-2

> <Original_SMILES>
NS(=O)(=O)c1ccccc1

> <preferred_name>
Benzenesulfonamide

> <dsstox_substance_id>
DTXSID1059159

> <dsstox_compound_id>
DTXCID8049042

> <qc_level>
Public_High

> <Canonical_QSARr>
NS(=O)(=O)C1C=CC=CC=1

> <InChI_Code_QSARr>
InChI=1S/C6H7NO2S/c7-10(8,9)6-4-2-1-3-5-6/h1-5H,(H2,7,8,9)

> <InChI Key_QSARr>
KHBQMWCZKVMBLN-UHFFFAOYSA-N

> <Salt_Solvent>


> <Salt_Solvent_ID>
0

> <MPID>
98094

> <LogBCF>
0.68

> <Tr_1_Tst_0>
1

$$$$
100164
  Mrv171c012241911322D          

 11 11  0  0  0  0            999 V2000
    3.2481   -2.2887    0.0000 F   0  0  0  0  0  0  0  0  0  0  0  0
    2.5337   -1.8762    0.0000 C   0  0  0  0  0  0  0  0  0  0  0  0
    1.8192   -1.4637    0.0000 C   0  0  0  0  0  0  0  0  0  0  0  0
    1.8192   -0.6387    0.0000 C   0  0  0  0  0  0  0  0  0  0  0  0
    1.1047   -0.2262    0.0000 C   0  0  0  0  0  0  0  0  0  0  0  0
    1.1047    0.5988    0.0000 Cl  0  0  0  0  0  0  0  0  0  0  0  0
    0.3903   -0.6387    0.0000 C   0  0  0  0  0  0  0  0  0  0  0  0
    0.3903   -1.4637    0.0000 C   0  0  0  0  0  0  0  0  0  0  0  0
    1.1047   -1.8762    0.0000 C   0  0  0  0  0  0  0  0  0  0  0  0
    2.9462   -1.1617    0.0000 F   0  0  0  0  0  0  0  0  0  0  0  0
    2.1212   -2.5907    0.0000 F   0  0  0  0  0  0  0  0  0  0  0  0
  1  2  1  0  0  0  0
  2  3  1  0  0  0  0
  4  3  1  0  0  0  0
  5  4  2  0  0  0  0
  5  6  1  0  0  0  0
  7  5  1  0  0  0  0
  8  7  2  0  0  0  0
  9  8  1  0  0  0  0
  3  9  2  0  0  0  0
  2 10  1  0  0  0  0
  2 11  1  0  0  0  0
M  END
> <ChemID>
100164

> <CAS>
98-15-7

> <Original_SMILES>
FC(F)(F)c1cccc(Cl)c1

> <preferred_name>
3-Chlorobenzotrifluoride

> <dsstox_substance_id>
DTXSID4024773

> <dsstox_compound_id>
DTXCID104773

> <qc_level>
DSSTox_Low

> <Canonical_QSARr>
FC(F)(F)C1C=C(Cl)C=CC=1

> <InChI_Code_QSARr>
InChI=1S/C7H4ClF3/c8-6-3-1-2-5(4-6)7(9,10)11/h1-4H

> <InChI Key_QSARr>
YTCGOUNVIAWCMG-UHFFFAOYSA-N

> <Salt_Solvent>


> <Salt_Solvent_ID>
0

> <MPID>
98095

> <LogBCF>
2.35

> <Tr_1_Tst_0>
1

$$$$
100165
  Mrv171c012241911322D          

 11 11  0  0  0  0            999 V2000
    2.1750   -1.9500    0.0000 C   0  0  0  0  0  0  0  0  0  0  0  0
    2.1750   -2.7750    0.0000 C   0  0  0  0  0  0  0  0  0  0  0  0
    3.0000   -1.9500    0.0000 C   0  0  0  0  0  0  0  0  0  0  0  0
    1.3500   -1.9500    0.0000 C   0  0  0  0  0  0  0  0  0  0  0  0
    2.1750   -1.1250    0.0000 C   0  0  0  0  0  0  0  0  0  0  0  0
    2.8895   -0.7125    0.0000 C   0  0  0  0  0  0  0  0  0  0  0  0
    2.8895    0.1125    0.0000 C   0  0  0  0  0  0  0  0  0  0  0  0
    2.1750    0.5250    0.0000 C   0  0  0  0  0  0  0  0  0  0  0  0
    2.1750    1.3500    0.0000 O   0  0  0  0  0  0  0  0  0  0  0  0
    1.4606    0.1125    0.0000 C   0  0  0  0  0  0  0  0  0  0  0  0
    1.4606   -0.7125    0.0000 C   0  0  0  0  0  0  0  0  0  0  0  0
  1  2  1  0  0  0  0
  1  3  1  0  0  0  0
  1  4  1  0  0  0  0
  1  5  1  0  0  0  0
  6  5  1  0  0  0  0
  7  6  2  0  0  0  0
  8  7  1  0  0  0  0
  8  9  1  0  0  0  0
 10  8  2  0  0  0  0
 11 10  1  0  0  0  0
  5 11  2  0  0  0  0
M  END
> <ChemID>
100165

> <CAS>
98-54-4

> <Original_SMILES>
CC(C)(C)c1ccc(O)cc1

> <preferred_name>
4-tert-Butylphenol

> <dsstox_substance_id>
DTXSID1020221

> <dsstox_compound_id>
DTXCID90221

> <qc_level>
DSSTox_Low

> <Canonical_QSARr>
CC(C)(C)C1C=CC(O)=CC=1

> <InChI_Code_QSARr>
InChI=1S/C10H14O/c1-10(2,3)8-4-6-9(11)7-5-8/h4-7,11H,1-3H3

> <InChI Key_QSARr>
QHPQWRBYOIRBIT-UHFFFAOYSA-N

> <Salt_Solvent>


> <Salt_Solvent_ID>
0

> <MPID>
98096

> <LogBCF>
1.83

> <Tr_1_Tst_0>
1

$$$$
100166
  Mrv171c012241911322D          

 13 13  0  0  0  0            999 V2000
    2.3461   -2.6030    0.0000 C   0  0  0  0  0  0  0  0  0  0  0  0
    1.6316   -3.0155    0.0000 O   0  0  0  0  0  0  0  0  0  0  0  0
    2.3461   -1.7780    0.0000 C   0  0  0  0  0  0  0  0  0  0  0  0
    3.0606   -1.3655    0.0000 C   0  0  0  0  0  0  0  0  0  0  0  0
    3.0606   -0.5405    0.0000 C   0  0  0  0  0  0  0  0  0  0  0  0
    2.3461   -0.1280    0.0000 C   0  0  0  0  0  0  0  0  0  0  0  0
    2.3461    0.6970    0.0000 C   0  0  0  0  0  0  0  0  0  0  0  0
    2.3461    1.5220    0.0000 C   0  0  0  0  0  0  0  0  0  0  0  0
    3.1711    0.6970    0.0000 C   0  0  0  0  0  0  0  0  0  0  0  0
    1.5211    0.6970    0.0000 C   0  0  0  0  0  0  0  0  0  0  0  0
    1.6316   -0.5405    0.0000 C   0  0  0  0  0  0  0  0  0  0  0  0
    1.6316   -1.3655    0.0000 C   0  0  0  0  0  0  0  0  0  0  0  0
    3.0606   -3.0155    0.0000 O   0  0  0  0  0  0  0  0  0  0  0  0
  1  2  1  0  0  0  0
  1  3  1  0  0  0  0
  4  3  1  0  0  0  0
  5  4  2  0  0  0  0
  6  5  1  0  0  0  0
  6  7  1  0  0  0  0
  7  8  1  0  0  0  0
  7  9  1  0  0  0  0
  7 10  1  0  0  0  0
 11  6  2  0  0  0  0
 12 11  1  0  0  0  0
  3 12  2  0  0  0  0
  1 13  2  0  0  0  0
M  END
> <ChemID>
100166

> <CAS>
98-73-7

> <Original_SMILES>
CC(C)(C)c1ccc(cc1)C(O)=O

> <preferred_name>
4-tert-Butylbenzoic acid

> <dsstox_substance_id>
DTXSID0040703

> <dsstox_compound_id>
DTXCID8020703

> <qc_level>
DSSTox_High

> <Canonical_QSARr>
CC(C)(C)C1C=CC(=CC=1)C(O)=O

> <InChI_Code_QSARr>
InChI=1S/C11H14O2/c1-11(2,3)9-6-4-8(5-7-9)10(12)13/h4-7H,1-3H3,(H,12,13)

> <InChI Key_QSARr>
KDVYCTOWXSLNNI-UHFFFAOYSA-N

> <Salt_Solvent>


> <Salt_Solvent_ID>
0

> <MPID>
98097

> <LogBCF>
0.66

> <Tr_1_Tst_0>
0

$$$$
100167
  Mrv171c012241911322D          

  9  9  0  0  0  0            999 V2000
    2.1337   -0.9436    0.0000 C   0  0  0  0  0  0  0  0  0  0  0  0
    1.4193   -0.5311    0.0000 C   0  0  0  0  0  0  0  0  0  0  0  0
    1.4193    0.2939    0.0000 C   0  0  0  0  0  0  0  0  0  0  0  0
    0.7048    0.7064    0.0000 C   0  0  0  0  0  0  0  0  0  0  0  0
    2.1337    0.7064    0.0000 C   0  0  0  0  0  0  0  0  0  0  0  0
    0.7048   -0.9436    0.0000 C   0  0  0  0  0  0  0  0  0  0  0  0
    0.7048   -1.7686    0.0000 C   0  0  0  0  0  0  0  0  0  0  0  0
    1.4193   -2.1811    0.0000 C   0  0  0  0  0  0  0  0  0  0  0  0
    2.1337   -1.7686    0.0000 C   0  0  0  0  0  0  0  0  0  0  0  0
  2  1  1  0  0  0  0
  2  3  1  0  0  0  0
  3  4  1  0  0  0  0
  3  5  1  0  0  0  0
  6  2  2  0  0  0  0
  7  6  1  0  0  0  0
  8  7  2  0  0  0  0
  9  8  1  0  0  0  0
  1  9  2  0  0  0  0
M  END
> <ChemID>
100167

> <CAS>
98-82-8

> <Original_SMILES>
CC(C)c1ccccc1

> <preferred_name>
Cumene

> <dsstox_substance_id>
DTXSID1021827

> <dsstox_compound_id>
DTXCID101827

> <qc_level>
DSSTox_High

> <Canonical_QSARr>
CC(C)C1C=CC=CC=1

> <InChI_Code_QSARr>
InChI=1S/C9H12/c1-8(2)9-6-4-3-5-7-9/h3-8H,1-2H3

> <InChI Key_QSARr>
RWGFKTVRMDUZSP-UHFFFAOYSA-N

> <Salt_Solvent>


> <Salt_Solvent_ID>
0

> <MPID>
98098

> <LogBCF>
1.55

> <Tr_1_Tst_0>
1

$$$$
100168
  Mrv171c012241911322D          

  9  9  0  0  0  0            999 V2000
    1.4193    0.2939    0.0000 C   0  0  0  0  0  0  0  0  0  0  0  0
    1.4193   -0.5311    0.0000 C   0  0  0  0  0  0  0  0  0  0  0  0
    0.7048   -0.9436    0.0000 C   0  0  0  0  0  0  0  0  0  0  0  0
    0.7048   -1.7686    0.0000 C   0  0  0  0  0  0  0  0  0  0  0  0
    1.4193   -2.1811    0.0000 C   0  0  0  0  0  0  0  0  0  0  0  0
    2.1337   -1.7686    0.0000 C   0  0  0  0  0  0  0  0  0  0  0  0
    2.1337   -0.9436    0.0000 C   0  0  0  0  0  0  0  0  0  0  0  0
    0.7048    0.7064    0.0000 C   0  0  0  0  0  0  0  0  0  0  0  0
    2.1337    0.7064    0.0000 C   0  0  0  0  0  0  0  0  0  0  0  0
  1  2  1  0  0  0  0
  3  2  1  0  0  0  0
  4  3  2  0  0  0  0
  5  4  1  0  0  0  0
  6  5  2  0  0  0  0
  7  6  1  0  0  0  0
  2  7  2  0  0  0  0
  1  8  2  0  0  0  0
  1  9  1  0  0  0  0
M  END
> <ChemID>
100168

> <CAS>
98-83-9

> <Original_SMILES>
CC(=C)c1ccccc1

> <preferred_name>
alpha-Methylstyrene

> <dsstox_substance_id>
DTXSID9025661

> <dsstox_compound_id>
DTXCID905661

> <qc_level>
DSSTox_Low

> <Canonical_QSARr>
CC(=C)C1C=CC=CC=1

> <InChI_Code_QSARr>
InChI=1S/C9H10/c1-8(2)9-6-4-3-5-7-9/h3-7H,1H2,2H3

> <InChI Key_QSARr>
XYLMUPLGERFSHI-UHFFFAOYSA-N

> <Salt_Solvent>


> <Salt_Solvent_ID>
0

> <MPID>
98099

> <LogBCF>
1.8

> <Tr_1_Tst_0>
1

$$$$
100169
  Mrv171c012241911322D          

  9  9  0  0  0  0            999 V2000
    1.1537   -1.4002    0.0000 C   0  0  0  0  0  0  0  0  0  0  0  0
    1.1537   -0.5752    0.0000 C   0  0  0  0  0  0  0  0  0  0  0  0
    1.8682   -0.1627    0.0000 C   0  0  0  0  0  0  0  0  0  0  0  0
    0.4392   -0.1627    0.0000 N   0  0  0  0  0  0  0  0  0  0  0  0
    0.4392   -1.8127    0.0000 C   0  0  0  0  0  0  0  0  0  0  0  0
    0.4392   -2.6377    0.0000 C   0  0  0  0  0  0  0  0  0  0  0  0
    1.1537   -3.0502    0.0000 C   0  0  0  0  0  0  0  0  0  0  0  0
    1.8682   -2.6377    0.0000 C   0  0  0  0  0  0  0  0  0  0  0  0
    1.8682   -1.8127    0.0000 C   0  0  0  0  0  0  0  0  0  0  0  0
  1  2  1  0  0  0  0
  2  3  1  0  0  0  0
  2  4  1  0  0  0  0
  5  1  1  0  0  0  0
  6  5  2  0  0  0  0
  7  6  1  0  0  0  0
  8  7  2  0  0  0  0
  9  8  1  0  0  0  0
  1  9  2  0  0  0  0
M  END
> <ChemID>
100169

> <CAS>
618-36-0

> <Original_SMILES>
CC(N)c1ccccc1

> <preferred_name>


> <dsstox_substance_id>
DTXSID40862301

> <dsstox_compound_id>
DTXCID20198913

> <qc_level>


> <Canonical_QSARr>
CC(N)C1C=CC=CC=1

> <InChI_Code_QSARr>
InChI=1S/C8H11N/c1-7(9)8-5-3-2-4-6-8/h2-7H,9H2,1H3

> <InChI Key_QSARr>
RQEUFEKYXDPUSK-UHFFFAOYSA-N

> <Salt_Solvent>


> <Salt_Solvent_ID>
0

> <MPID>
98100

> <LogBCF>
0.82

> <Tr_1_Tst_0>
1

$$$$
100170
  Mrv171c012241911322D          

  9  9  0  0  0  0            999 V2000
    2.1337    0.7064    0.0000 O   0  0  0  0  0  0  0  0  0  0  0  0
    1.4193    0.2939    0.0000 N   0  3  0  0  0  0  0  0  0  0  0  0
    0.7048    0.7064    0.0000 O   0  5  0  0  0  0  0  0  0  0  0  0
    1.4193   -0.5311    0.0000 C   0  0  0  0  0  0  0  0  0  0  0  0
    0.7048   -0.9436    0.0000 C   0  0  0  0  0  0  0  0  0  0  0  0
    0.7048   -1.7686    0.0000 C   0  0  0  0  0  0  0  0  0  0  0  0
    1.4193   -2.1811    0.0000 C   0  0  0  0  0  0  0  0  0  0  0  0
    2.1337   -1.7686    0.0000 C   0  0  0  0  0  0  0  0  0  0  0  0
    2.1337   -0.9436    0.0000 C   0  0  0  0  0  0  0  0  0  0  0  0
  1  2  2  0  0  0  0
  2  3  1  0  0  0  0
  2  4  1  0  0  0  0
  5  4  1  0  0  0  0
  6  5  2  0  0  0  0
  7  6  1  0  0  0  0
  8  7  2  0  0  0  0
  9  8  1  0  0  0  0
  4  9  2  0  0  0  0
M  CHG  2   2   1   3  -1
M  END
> <ChemID>
100170

> <CAS>
98-95-3

> <Original_SMILES>
[O-][N+](=O)c1ccccc1

> <preferred_name>
Nitrobenzene

> <dsstox_substance_id>
DTXSID3020964

> <dsstox_compound_id>
DTXCID30964

> <qc_level>
DSSTox_Low

> <Canonical_QSARr>
[O-][N+](=O)C1C=CC=CC=1

> <InChI_Code_QSARr>
InChI=1S/C6H5NO2/c8-7(9)6-4-2-1-3-5-6/h1-5H

> <InChI Key_QSARr>
LQNUZADURLCDLV-UHFFFAOYSA-N

> <Salt_Solvent>


> <Salt_Solvent_ID>
0

> <MPID>
98101

> <LogBCF>
0.67

> <Tr_1_Tst_0>
0

$$$$
100171
  Mrv171c012241911322D          

 10 10  0  0  0  0            999 V2000
    0.0338   -2.6052    0.0000 C   0  0  0  0  0  0  0  0  0  0  0  0
    0.7483   -2.1927    0.0000 C   0  0  0  0  0  0  0  0  0  0  0  0
    1.4628   -2.6052    0.0000 C   0  0  0  0  0  0  0  0  0  0  0  0
    2.1772   -2.1927    0.0000 C   0  0  0  0  0  0  0  0  0  0  0  0
    2.1772   -1.3677    0.0000 C   0  0  0  0  0  0  0  0  0  0  0  0
    1.4628   -0.9552    0.0000 C   0  0  0  0  0  0  0  0  0  0  0  0
    1.4628   -0.1302    0.0000 N   0  3  0  0  0  0  0  0  0  0  0  0
    0.7483    0.2823    0.0000 O   0  5  0  0  0  0  0  0  0  0  0  0
    2.1772    0.2823    0.0000 O   0  0  0  0  0  0  0  0  0  0  0  0
    0.7483   -1.3677    0.0000 C   0  0  0  0  0  0  0  0  0  0  0  0
  1  2  1  0  0  0  0
  3  2  1  0  0  0  0
  4  3  2  0  0  0  0
  5  4  1  0  0  0  0
  6  5  2  0  0  0  0
  6  7  1  0  0  0  0
  7  8  1  0  0  0  0
  7  9  2  0  0  0  0
 10  6  1  0  0  0  0
  2 10  2  0  0  0  0
M  CHG  2   7   1   8  -1
M  END
> <ChemID>
100171

> <CAS>
99-08-1

> <Original_SMILES>
Cc1cc(ccc1)[N+]([O-])=O

> <preferred_name>
3-Nitrotoluene

> <dsstox_substance_id>
DTXSID5021831

> <dsstox_compound_id>
DTXCID001831

> <qc_level>
DSSTox_Low

> <Canonical_QSARr>
CC1=CC(=CC=C1)[N+]([O-])=O

> <InChI_Code_QSARr>
InChI=1S/C7H7NO2/c1-6-3-2-4-7(5-6)8(9)10/h2-5H,1H3

> <InChI Key_QSARr>
QZYHIOPPLUPUJF-UHFFFAOYSA-N

> <Salt_Solvent>


> <Salt_Solvent_ID>
0

> <MPID>
98102

> <LogBCF>
1.08

> <Tr_1_Tst_0>
1

$$$$
100172
  Mrv171c012241911322D          

 10 10  0  0  0  0            999 V2000
    2.2482   -1.9860    0.0000 N   0  3  0  0  0  0  0  0  0  0  0  0
    1.5337   -1.5735    0.0000 C   0  0  0  0  0  0  0  0  0  0  0  0
    1.5337   -0.7485    0.0000 C   0  0  0  0  0  0  0  0  0  0  0  0
    0.8192   -0.3360    0.0000 C   0  0  0  0  0  0  0  0  0  0  0  0
    0.8192    0.4890    0.0000 N   0  0  0  0  0  0  0  0  0  0  0  0
    0.1048   -0.7485    0.0000 C   0  0  0  0  0  0  0  0  0  0  0  0
    0.1048   -1.5735    0.0000 C   0  0  0  0  0  0  0  0  0  0  0  0
    0.8192   -1.9860    0.0000 C   0  0  0  0  0  0  0  0  0  0  0  0
    2.9627   -1.5735    0.0000 O   0  5  0  0  0  0  0  0  0  0  0  0
    2.2482   -2.8110    0.0000 O   0  0  0  0  0  0  0  0  0  0  0  0
  1  2  1  0  0  0  0
  3  2  1  0  0  0  0
  4  3  2  0  0  0  0
  4  5  1  0  0  0  0
  6  4  1  0  0  0  0
  7  6  2  0  0  0  0
  8  7  1  0  0  0  0
  2  8  2  0  0  0  0
  1  9  1  0  0  0  0
  1 10  2  0  0  0  0
M  CHG  2   1   1   9  -1
M  END
> <ChemID>
100172

> <CAS>
99-09-2

> <Original_SMILES>
Nc1cc(ccc1)[N+]([O-])=O

> <preferred_name>
3-Nitroaniline

> <dsstox_substance_id>
DTXSID6025725

> <dsstox_compound_id>
DTXCID505725

> <qc_level>
DSSTox_High

> <Canonical_QSARr>
NC1=CC(=CC=C1)[N+]([O-])=O

> <InChI_Code_QSARr>
InChI=1S/C6H6N2O2/c7-5-2-1-3-6(4-5)8(9)10/h1-4H,7H2

> <InChI Key_QSARr>
XJCVRTZCHMZPBD-UHFFFAOYSA-N

> <Salt_Solvent>


> <Salt_Solvent_ID>
0

> <MPID>
98103

> <LogBCF>
0.48

> <Tr_1_Tst_0>
1

$$$$
100173
  Mrv171c012241911322D          

 11 11  0  0  0  0            999 V2000
    3.0507   -2.0835    0.0000 N   0  3  0  0  0  0  0  0  0  0  0  0
    2.3362   -1.6710    0.0000 C   0  0  0  0  0  0  0  0  0  0  0  0
    2.3362   -0.8460    0.0000 C   0  0  0  0  0  0  0  0  0  0  0  0
    1.6217   -0.4335    0.0000 C   0  0  0  0  0  0  0  0  0  0  0  0
    1.6217    0.3915    0.0000 Cl  0  0  0  0  0  0  0  0  0  0  0  0
    0.9073   -0.8460    0.0000 C   0  0  0  0  0  0  0  0  0  0  0  0
    0.1928   -0.4335    0.0000 Cl  0  0  0  0  0  0  0  0  0  0  0  0
    0.9073   -1.6710    0.0000 C   0  0  0  0  0  0  0  0  0  0  0  0
    1.6217   -2.0835    0.0000 C   0  0  0  0  0  0  0  0  0  0  0  0
    3.7651   -1.6710    0.0000 O   0  5  0  0  0  0  0  0  0  0  0  0
    3.0507   -2.9085    0.0000 O   0  0  0  0  0  0  0  0  0  0  0  0
  1  2  1  0  0  0  0
  3  2  1  0  0  0  0
  4  3  2  0  0  0  0
  4  5  1  0  0  0  0
  6  4  1  0  0  0  0
  6  7  1  0  0  0  0
  8  6  2  0  0  0  0
  9  8  1  0  0  0  0
  2  9  2  0  0  0  0
  1 10  1  0  0  0  0
  1 11  2  0  0  0  0
M  CHG  2   1   1  10  -1
M  END
> <ChemID>
100173

> <CAS>
99-54-7

> <Original_SMILES>
[O-][N+](=O)c1cc(Cl)c(Cl)cc1

> <preferred_name>
3,4-Dichloronitrobenzene

> <dsstox_substance_id>
DTXSID8024999

> <dsstox_compound_id>
DTXCID504999

> <qc_level>
DSSTox_Low

> <Canonical_QSARr>
[O-][N+](=O)C1C=C(Cl)C(Cl)=CC=1

> <InChI_Code_QSARr>
InChI=1S/C6H3Cl2NO2/c7-5-2-1-4(9(10)11)3-6(5)8/h1-3H

> <InChI Key_QSARr>
NTBYINQTYWZXLH-UHFFFAOYSA-N

> <Salt_Solvent>


> <Salt_Solvent_ID>
0

> <MPID>
98104

> <LogBCF>
1.71

> <Tr_1_Tst_0>
1

$$$$
100174
  Mrv171c012241911322D          

 12 12  0  0  0  0            999 V2000
    2.4342   -1.8225    0.0000 C   0  0  0  0  0  0  0  0  0  0  0  0
    3.1487   -2.2350    0.0000 C   0  0  0  0  0  0  0  0  0  0  0  0
    3.1487   -3.0600    0.0000 C   0  0  0  0  0  0  0  0  0  0  0  0
    3.8632   -1.8225    0.0000 C   0  0  0  0  0  0  0  0  0  0  0  0
    2.4342   -0.9975    0.0000 C   0  0  0  0  0  0  0  0  0  0  0  0
    1.7198   -0.5850    0.0000 C   0  0  0  0  0  0  0  0  0  0  0  0
    1.7198    0.2400    0.0000 C   0  0  0  0  0  0  0  0  0  0  0  0
    1.0053    0.6525    0.0000 C   0  0  0  0  0  0  0  0  0  0  0  0
    2.4342    0.6525    0.0000 C   0  0  0  0  0  0  0  0  0  0  0  0
    1.0053   -0.9975    0.0000 C   0  0  0  0  0  0  0  0  0  0  0  0
    1.0053   -1.8225    0.0000 C   0  0  0  0  0  0  0  0  0  0  0  0
    1.7198   -2.2350    0.0000 C   0  0  0  0  0  0  0  0  0  0  0  0
  1  2  1  0  0  0  0
  2  3  1  0  0  0  0
  2  4  1  0  0  0  0
  5  1  1  0  0  0  0
  6  5  2  0  0  0  0
  6  7  1  0  0  0  0
  7  8  1  0  0  0  0
  7  9  1  0  0  0  0
 10  6  1  0  0  0  0
 11 10  2  0  0  0  0
 12 11  1  0  0  0  0
  1 12  2  0  0  0  0
M  END
> <ChemID>
100174

> <CAS>
99-62-7

> <Original_SMILES>
CC(C)c1cc(ccc1)C(C)C

> <preferred_name>
1,3-Diisopropylbenzene

> <dsstox_substance_id>
DTXSID8026640

> <dsstox_compound_id>
DTXCID006640

> <qc_level>
DSSTox_Low

> <Canonical_QSARr>
CC(C)C1C=C(C=CC=1)C(C)C

> <InChI_Code_QSARr>
InChI=1S/C12H18/c1-9(2)11-6-5-7-12(8-11)10(3)4/h5-10H,1-4H3

> <InChI Key_QSARr>
UNEATYXSUBPPKP-UHFFFAOYSA-N

> <Salt_Solvent>


> <Salt_Solvent_ID>
0

> <MPID>
98105

> <LogBCF>
3.28

> <Tr_1_Tst_0>
0

$$$$
100175
  Mrv171c012241911322D          

 12 12  0  0  0  0            999 V2000
    2.1162   -2.3778    0.0000 C   0  0  0  0  0  0  0  0  0  0  0  0
    2.8307   -2.7903    0.0000 N   0  3  0  0  0  0  0  0  0  0  0  0
    2.8307   -3.6153    0.0000 O   0  0  0  0  0  0  0  0  0  0  0  0
    3.5452   -2.3778    0.0000 O   0  5  0  0  0  0  0  0  0  0  0  0
    2.1162   -1.5528    0.0000 C   0  0  0  0  0  0  0  0  0  0  0  0
    1.4018   -1.1403    0.0000 C   0  0  0  0  0  0  0  0  0  0  0  0
    1.4018   -0.3153    0.0000 N   0  3  0  0  0  0  0  0  0  0  0  0
    0.6873    0.0972    0.0000 O   0  0  0  0  0  0  0  0  0  0  0  0
    2.1162    0.0972    0.0000 O   0  5  0  0  0  0  0  0  0  0  0  0
    0.6873   -1.5528    0.0000 C   0  0  0  0  0  0  0  0  0  0  0  0
    0.6873   -2.3778    0.0000 C   0  0  0  0  0  0  0  0  0  0  0  0
    1.4018   -2.7903    0.0000 C   0  0  0  0  0  0  0  0  0  0  0  0
  1  2  1  0  0  0  0
  2  3  2  0  0  0  0
  2  4  1  0  0  0  0
  5  1  1  0  0  0  0
  6  5  2  0  0  0  0
  6  7  1  0  0  0  0
  7  8  2  0  0  0  0
  7  9  1  0  0  0  0
 10  6  1  0  0  0  0
 11 10  2  0  0  0  0
 12 11  1  0  0  0  0
  1 12  2  0  0  0  0
M  CHG  4   2   1   4  -1   7   1   9  -1
M  END
> <ChemID>
100175

> <CAS>
99-65-0

> <Original_SMILES>
[O-][N+](=O)c1cc(ccc1)[N+]([O-])=O

> <preferred_name>
1,3-Dinitrobenzene

> <dsstox_substance_id>
DTXSID9024065

> <dsstox_compound_id>
DTXCID204065

> <qc_level>
DSSTox_Low

> <Canonical_QSARr>
[O-][N+](=O)C1C=C(C=CC=1)[N+]([O-])=O

> <InChI_Code_QSARr>
InChI=1S/C6H4N2O4/c9-7(10)5-2-1-3-6(4-5)8(11)12/h1-4H

> <InChI Key_QSARr>
WDCYWAQPCXBPJA-UHFFFAOYSA-N

> <Salt_Solvent>


> <Salt_Solvent_ID>
0

> <MPID>
98106

> <LogBCF>
0.77

> <Tr_1_Tst_0>
1

$$$$
100176
  Mrv171c012241911322D          

 11 11  0  0  0  0            999 V2000
    1.6875   -1.8697    0.0000 C   0  0  0  0  0  0  0  0  0  0  0  0
    1.6875   -2.6947    0.0000 C   0  0  0  0  0  0  0  0  0  0  0  0
    2.4020   -3.1072    0.0000 C   0  0  0  0  0  0  0  0  0  0  0  0
    0.9730   -3.1072    0.0000 C   0  0  0  0  0  0  0  0  0  0  0  0
    0.9730   -3.9322    0.0000 C   0  0  0  0  0  0  0  0  0  0  0  0
    2.4020   -1.4572    0.0000 C   0  0  0  0  0  0  0  0  0  0  0  0
    2.4020   -0.6322    0.0000 C   0  0  0  0  0  0  0  0  0  0  0  0
    1.6875   -0.2197    0.0000 C   0  0  0  0  0  0  0  0  0  0  0  0
    1.6875    0.6053    0.0000 O   0  0  0  0  0  0  0  0  0  0  0  0
    0.9730   -0.6322    0.0000 C   0  0  0  0  0  0  0  0  0  0  0  0
    0.9730   -1.4572    0.0000 C   0  0  0  0  0  0  0  0  0  0  0  0
  1  2  1  0  0  0  0
  2  3  1  0  0  0  0
  2  4  1  0  0  0  0
  4  5  1  0  0  0  0
  6  1  1  0  0  0  0
  7  6  2  0  0  0  0
  8  7  1  0  0  0  0
  8  9  1  0  0  0  0
 10  8  2  0  0  0  0
 11 10  1  0  0  0  0
  1 11  2  0  0  0  0
M  END
> <ChemID>
100176

> <CAS>
99-71-8

> <Original_SMILES>
CCC(C)c1ccc(O)cc1

> <preferred_name>
4-(Butan-2-yl)phenol

> <dsstox_substance_id>
DTXSID7022332

> <dsstox_compound_id>
DTXCID502332

> <qc_level>
DSSTox_Low

> <Canonical_QSARr>
CC(CC)C1C=CC(O)=CC=1

> <InChI_Code_QSARr>
InChI=1S/C10H14O/c1-3-8(2)9-4-6-10(11)7-5-9/h4-8,11H,3H2,1-2H3

> <InChI Key_QSARr>
ZUTYZAFDFLLILI-UHFFFAOYSA-N

> <Salt_Solvent>


> <Salt_Solvent_ID>
0

> <MPID>
98107

> <LogBCF>
1.31

> <Tr_1_Tst_0>
1

$$$$
100177
  Mrv171c012241911322D          

 10 10  0  0  0  0            999 V2000
    2.7572   -0.8138    0.0000 C   0  0  0  0  0  0  0  0  0  0  0  0
    2.0427   -0.4013    0.0000 C   0  0  0  0  0  0  0  0  0  0  0  0
    2.0427    0.4237    0.0000 N   0  3  0  0  0  0  0  0  0  0  0  0
    1.3283    0.8362    0.0000 O   0  5  0  0  0  0  0  0  0  0  0  0
    2.7572    0.8362    0.0000 O   0  0  0  0  0  0  0  0  0  0  0  0
    1.3283   -0.8138    0.0000 C   0  0  0  0  0  0  0  0  0  0  0  0
    1.3283   -1.6388    0.0000 C   0  0  0  0  0  0  0  0  0  0  0  0
    2.0427   -2.0513    0.0000 C   0  0  0  0  0  0  0  0  0  0  0  0
    2.0427   -2.8763    0.0000 C   0  0  0  0  0  0  0  0  0  0  0  0
    2.7572   -1.6388    0.0000 C   0  0  0  0  0  0  0  0  0  0  0  0
  2  1  1  0  0  0  0
  2  3  1  0  0  0  0
  3  4  1  0  0  0  0
  3  5  2  0  0  0  0
  6  2  2  0  0  0  0
  7  6  1  0  0  0  0
  8  7  2  0  0  0  0
  8  9  1  0  0  0  0
 10  8  1  0  0  0  0
  1 10  2  0  0  0  0
M  CHG  2   3   1   4  -1
M  END
> <ChemID>
100177

> <CAS>
99-99-0

> <Original_SMILES>
Cc1ccc(cc1)[N+]([O-])=O

> <preferred_name>
4-Nitrotoluene

> <dsstox_substance_id>
DTXSID5023792

> <dsstox_compound_id>
DTXCID203792

> <qc_level>
DSSTox_Low

> <Canonical_QSARr>
CC1=CC=C(C=C1)[N+]([O-])=O

> <InChI_Code_QSARr>
InChI=1S/C7H7NO2/c1-6-2-4-7(5-3-6)8(9)10/h2-5H,1H3

> <InChI Key_QSARr>
ZPTVNYMJQHSSEA-UHFFFAOYSA-N

> <Salt_Solvent>


> <Salt_Solvent_ID>
0

> <MPID>
98108

> <LogBCF>
0.9

> <Tr_1_Tst_0>
1

$$$$
100178
  Mrv171c012241911322D          

 10 10  0  0  0  0            999 V2000
    0.9322   -2.3640    0.0000 O   0  0  0  0  0  0  0  0  0  0  0  0
    1.6467   -1.9515    0.0000 N   0  3  0  0  0  0  0  0  0  0  0  0
    2.3611   -2.3640    0.0000 O   0  5  0  0  0  0  0  0  0  0  0  0
    1.6467   -1.1265    0.0000 C   0  0  0  0  0  0  0  0  0  0  0  0
    2.3611   -0.7140    0.0000 C   0  0  0  0  0  0  0  0  0  0  0  0
    2.3611    0.1110    0.0000 C   0  0  0  0  0  0  0  0  0  0  0  0
    1.6467    0.5235    0.0000 C   0  0  0  0  0  0  0  0  0  0  0  0
    1.6467    1.3485    0.0000 Cl  0  0  0  0  0  0  0  0  0  0  0  0
    0.9322    0.1110    0.0000 C   0  0  0  0  0  0  0  0  0  0  0  0
    0.9322   -0.7140    0.0000 C   0  0  0  0  0  0  0  0  0  0  0  0
  1  2  2  0  0  0  0
  2  3  1  0  0  0  0
  2  4  1  0  0  0  0
  5  4  1  0  0  0  0
  6  5  2  0  0  0  0
  7  6  1  0  0  0  0
  7  8  1  0  0  0  0
  9  7  2  0  0  0  0
 10  9  1  0  0  0  0
  4 10  2  0  0  0  0
M  CHG  2   2   1   3  -1
M  END
> <ChemID>
100178

> <CAS>
100-00-5

> <Original_SMILES>
[O-][N+](=O)c1ccc(Cl)cc1

> <preferred_name>
1-Chloro-4-nitrobenzene

> <dsstox_substance_id>
DTXSID5020281

> <dsstox_compound_id>
DTXCID10281

> <qc_level>
DSSTox_Low

> <Canonical_QSARr>
[O-][N+](=O)C1C=CC(Cl)=CC=1

> <InChI_Code_QSARr>
InChI=1S/C6H4ClNO2/c7-5-1-3-6(4-2-5)8(9)10/h1-4H

> <InChI Key_QSARr>
CZGCEKJOLUNIFY-UHFFFAOYSA-N

> <Salt_Solvent>


> <Salt_Solvent_ID>
0

> <MPID>
98109

> <LogBCF>
1.3

> <Tr_1_Tst_0>
0

$$$$
100179
  Mrv171c012241911322D          

 10 10  0  0  0  0            999 V2000
    0.9322   -2.3640    0.0000 O   0  0  0  0  0  0  0  0  0  0  0  0
    1.6467   -1.9515    0.0000 N   0  3  0  0  0  0  0  0  0  0  0  0
    2.3611   -2.3640    0.0000 O   0  5  0  0  0  0  0  0  0  0  0  0
    1.6467   -1.1265    0.0000 C   0  0  0  0  0  0  0  0  0  0  0  0
    2.3611   -0.7140    0.0000 C   0  0  0  0  0  0  0  0  0  0  0  0
    2.3611    0.1110    0.0000 C   0  0  0  0  0  0  0  0  0  0  0  0
    1.6467    0.5235    0.0000 C   0  0  0  0  0  0  0  0  0  0  0  0
    1.6467    1.3485    0.0000 N   0  0  0  0  0  0  0  0  0  0  0  0
    0.9322    0.1110    0.0000 C   0  0  0  0  0  0  0  0  0  0  0  0
    0.9322   -0.7140    0.0000 C   0  0  0  0  0  0  0  0  0  0  0  0
  1  2  2  0  0  0  0
  2  3  1  0  0  0  0
  2  4  1  0  0  0  0
  5  4  1  0  0  0  0
  6  5  2  0  0  0  0
  7  6  1  0  0  0  0
  7  8  1  0  0  0  0
  9  7  2  0  0  0  0
 10  9  1  0  0  0  0
  4 10  2  0  0  0  0
M  CHG  2   2   1   3  -1
M  END
> <ChemID>
100179

> <CAS>
100-01-6

> <Original_SMILES>
Nc1ccc(cc1)[N+]([O-])=O

> <preferred_name>
4-Nitroaniline

> <dsstox_substance_id>
DTXSID8020961

> <dsstox_compound_id>
DTXCID40961

> <qc_level>
DSSTox_Low

> <Canonical_QSARr>
NC1=CC=C(C=C1)[N+]([O-])=O

> <InChI_Code_QSARr>
InChI=1S/C6H6N2O2/c7-5-1-3-6(4-2-5)8(9)10/h1-4H,7H2

> <InChI Key_QSARr>
TYMLOMAKGOJONV-UHFFFAOYSA-N

> <Salt_Solvent>


> <Salt_Solvent_ID>
0

> <MPID>
98110

> <LogBCF>
0.6

> <Tr_1_Tst_0>
1

$$$$
100180
  Mrv171c012241911322D          

 10 10  0  0  0  0            999 V2000
    1.6467   -2.7765    0.0000 O   0  0  0  0  0  0  0  0  0  0  0  0
    1.6467   -1.9515    0.0000 C   0  0  0  0  0  0  0  0  0  0  0  0
    2.3611   -1.5390    0.0000 C   0  0  0  0  0  0  0  0  0  0  0  0
    2.3611   -0.7140    0.0000 C   0  0  0  0  0  0  0  0  0  0  0  0
    1.6467   -0.3015    0.0000 C   0  0  0  0  0  0  0  0  0  0  0  0
    1.6467    0.5235    0.0000 N   0  3  0  0  0  0  0  0  0  0  0  0
    0.9322    0.9360    0.0000 O   0  5  0  0  0  0  0  0  0  0  0  0
    2.3611    0.9360    0.0000 O   0  0  0  0  0  0  0  0  0  0  0  0
    0.9322   -0.7140    0.0000 C   0  0  0  0  0  0  0  0  0  0  0  0
    0.9322   -1.5390    0.0000 C   0  0  0  0  0  0  0  0  0  0  0  0
  1  2  1  0  0  0  0
  3  2  1  0  0  0  0
  4  3  2  0  0  0  0
  5  4  1  0  0  0  0
  5  6  1  0  0  0  0
  6  7  1  0  0  0  0
  6  8  2  0  0  0  0
  9  5  2  0  0  0  0
 10  9  1  0  0  0  0
  2 10  2  0  0  0  0
M  CHG  2   6   1   7  -1
M  END
> <ChemID>
100180

> <CAS>
100-02-7

> <Original_SMILES>
[O-][N+](=O)c1ccc(O)cc1

> <preferred_name>
4-Nitrophenol

> <dsstox_substance_id>
DTXSID0021834

> <dsstox_compound_id>
DTXCID201834

> <qc_level>
DSSTox_Low

> <Canonical_QSARr>
[O-][N+](=O)C1C=CC(O)=CC=1

> <InChI_Code_QSARr>
InChI=1S/C6H5NO3/c8-6-3-1-5(2-4-6)7(9)10/h1-4,8H

> <InChI Key_QSARr>
BTJIUGUIPKRLHP-UHFFFAOYSA-N

> <Salt_Solvent>


> <Salt_Solvent_ID>
0

> <MPID>
98111

> <LogBCF>
0.71

> <Tr_1_Tst_0>
1

$$$$
100181
  Mrv171c012241911322D          

 11 11  0  0  0  0            999 V2000
    0.7145   -0.0375    0.0000 C   0  0  0  0  0  0  0  0  0  0  0  0
    0.7145   -0.8625    0.0000 N   0  3  0  0  0  0  0  0  0  0  0  0
   -0.0000   -1.2750    0.0000 O   0  5  0  0  0  0  0  0  0  0  0  0
    1.4289   -1.2750    0.0000 O   0  0  0  0  0  0  0  0  0  0  0  0
    1.4289    0.3750    0.0000 C   0  0  0  0  0  0  0  0  0  0  0  0
    1.4289    1.2000    0.0000 C   0  0  0  0  0  0  0  0  0  0  0  0
    0.7145    1.6125    0.0000 C   0  0  0  0  0  0  0  0  0  0  0  0
    0.7145    2.4375    0.0000 O   0  0  0  0  0  0  0  0  0  0  0  0
   -0.0000    2.8500    0.0000 C   0  0  0  0  0  0  0  0  0  0  0  0
   -0.0000    1.2000    0.0000 C   0  0  0  0  0  0  0  0  0  0  0  0
   -0.0000    0.3750    0.0000 C   0  0  0  0  0  0  0  0  0  0  0  0
  1  2  1  0  0  0  0
  2  3  1  0  0  0  0
  2  4  2  0  0  0  0
  5  1  1  0  0  0  0
  6  5  2  0  0  0  0
  7  6  1  0  0  0  0
  7  8  1  0  0  0  0
  8  9  1  0  0  0  0
 10  7  2  0  0  0  0
 11 10  1  0  0  0  0
  1 11  2  0  0  0  0
M  CHG  2   2   1   3  -1
M  END
> <ChemID>
100181

> <CAS>
100-17-4

> <Original_SMILES>
COc1ccc(cc1)[N+]([O-])=O

> <preferred_name>
p-Nitroanisole

> <dsstox_substance_id>
DTXSID9059208

> <dsstox_compound_id>
DTXCID5032448

> <qc_level>
Public_High

> <Canonical_QSARr>
COC1C=CC(=CC=1)[N+]([O-])=O

> <InChI_Code_QSARr>
InChI=1S/C7H7NO3/c1-11-7-4-2-6(3-5-7)8(9)10/h2-5H,1H3

> <InChI Key_QSARr>
BNUHAJGCKIQFGE-UHFFFAOYSA-N

> <Salt_Solvent>


> <Salt_Solvent_ID>
0

> <MPID>
98112

> <LogBCF>
1.08

> <Tr_1_Tst_0>
1

$$$$
100182
  Mrv171c012241911322D          

 12 12  0  0  0  0            999 V2000
    2.0640   -1.5369    0.0000 C   0  0  0  0  0  0  0  0  0  0  0  0
    2.0640   -2.3619    0.0000 C   0  0  0  0  0  0  0  0  0  0  0  0
    1.3496   -2.7744    0.0000 C   0  0  0  0  0  0  0  0  0  0  0  0
    2.7785   -2.7744    0.0000 C   0  0  0  0  0  0  0  0  0  0  0  0
    2.7785   -1.1244    0.0000 C   0  0  0  0  0  0  0  0  0  0  0  0
    2.7785   -0.2994    0.0000 C   0  0  0  0  0  0  0  0  0  0  0  0
    2.0640    0.1131    0.0000 C   0  0  0  0  0  0  0  0  0  0  0  0
    2.0640    0.9381    0.0000 C   0  0  0  0  0  0  0  0  0  0  0  0
    1.3496    1.3506    0.0000 C   0  0  0  0  0  0  0  0  0  0  0  0
    2.7785    1.3506    0.0000 C   0  0  0  0  0  0  0  0  0  0  0  0
    1.3496   -0.2994    0.0000 C   0  0  0  0  0  0  0  0  0  0  0  0
    1.3496   -1.1244    0.0000 C   0  0  0  0  0  0  0  0  0  0  0  0
  1  2  1  0  0  0  0
  2  3  1  0  0  0  0
  2  4  1  0  0  0  0
  5  1  1  0  0  0  0
  6  5  2  0  0  0  0
  7  6  1  0  0  0  0
  7  8  1  0  0  0  0
  8  9  1  0  0  0  0
  8 10  1  0  0  0  0
 11  7  2  0  0  0  0
 12 11  1  0  0  0  0
  1 12  2  0  0  0  0
M  END
> <ChemID>
100182

> <CAS>
100-18-5

> <Original_SMILES>
CC(C)c1ccc(cc1)C(C)C

> <preferred_name>
1,4-Diisopropylbenzene

> <dsstox_substance_id>
DTXSID2026652

> <dsstox_compound_id>
DTXCID106652

> <qc_level>
DSSTox_Low

> <Canonical_QSARr>
CC(C)C1C=CC(=CC=1)C(C)C

> <InChI_Code_QSARr>
InChI=1S/C12H18/c1-9(2)11-5-7-12(8-6-11)10(3)4/h5-10H,1-4H3

> <InChI Key_QSARr>
SPPWGCYEYAMHDT-UHFFFAOYSA-N

> <Salt_Solvent>


> <Salt_Solvent_ID>
0

> <MPID>
98113

> <LogBCF>
3.24

> <Tr_1_Tst_0>
0

$$$$
100183
  Mrv171c012241911322D          

 12 12  0  0  0  0            999 V2000
    0.7145   -0.4125    0.0000 C   0  0  0  0  0  0  0  0  0  0  0  0
    1.4289    0.0000    0.0000 C   0  0  0  0  0  0  0  0  0  0  0  0
    1.4289    0.8250    0.0000 N   0  0  0  0  0  0  0  0  0  0  0  0
    0.7145    1.2375    0.0000 C   0  0  0  0  0  0  0  0  0  0  0  0
    0.7145    2.0625    0.0000 C   0  0  0  0  0  0  0  0  0  0  0  0
   -0.0000    2.4750    0.0000 O   0  0  0  0  0  0  0  0  0  0  0  0
    1.4289    2.4750    0.0000 O   0  0  0  0  0  0  0  0  0  0  0  0
   -0.0000    0.8250    0.0000 C   0  0  0  0  0  0  0  0  0  0  0  0
   -0.0000    0.0000    0.0000 C   0  0  0  0  0  0  0  0  0  0  0  0
    0.7145   -1.2375    0.0000 C   0  0  0  0  0  0  0  0  0  0  0  0
    1.4289   -1.6500    0.0000 O   0  0  0  0  0  0  0  0  0  0  0  0
   -0.0000   -1.6500    0.0000 O   0  0  0  0  0  0  0  0  0  0  0  0
  2  1  1  0  0  0  0
  3  2  2  0  0  0  0
  4  3  1  0  0  0  0
  4  5  1  0  0  0  0
  5  6  2  0  0  0  0
  5  7  1  0  0  0  0
  8  4  2  0  0  0  0
  9  8  1  0  0  0  0
  1  9  2  0  0  0  0
  1 10  1  0  0  0  0
 10 11  2  0  0  0  0
 10 12  1  0  0  0  0
M  END
> <ChemID>
100183

> <CAS>
100-26-5

> <Original_SMILES>
OC(=O)c1ccc(c[n]1)C(O)=O

> <preferred_name>
2,5-Pyridinedicarboxylic acid

> <dsstox_substance_id>
DTXSID3059210

> <dsstox_compound_id>
DTXCID9032450

> <qc_level>
Public_High

> <Canonical_QSARr>
OC(=O)C1=CC=C(C=N1)C(O)=O

> <InChI_Code_QSARr>
InChI=1S/C7H5NO4/c9-6(10)4-1-2-5(7(11)12)8-3-4/h1-3H,(H,9,10)(H,11,12)

> <InChI Key_QSARr>
LVPMIMZXDYBCDF-UHFFFAOYSA-N

> <Salt_Solvent>


> <Salt_Solvent_ID>
0

> <MPID>
98114

> <LogBCF>
0.76

> <Tr_1_Tst_0>
1

$$$$
100184
  Mrv171c012241911322D          

  8  8  0  0  0  0            999 V2000
    2.2218    0.9732    0.0000 C   0  0  0  0  0  0  0  0  0  0  0  0
    1.5073    0.5607    0.0000 C   0  0  0  0  0  0  0  0  0  0  0  0
    1.5073   -0.2643    0.0000 C   0  0  0  0  0  0  0  0  0  0  0  0
    0.7928   -0.6768    0.0000 C   0  0  0  0  0  0  0  0  0  0  0  0
    0.7928   -1.5018    0.0000 C   0  0  0  0  0  0  0  0  0  0  0  0
    1.5073   -1.9143    0.0000 C   0  0  0  0  0  0  0  0  0  0  0  0
    2.2218   -1.5018    0.0000 C   0  0  0  0  0  0  0  0  0  0  0  0
    2.2218   -0.6768    0.0000 C   0  0  0  0  0  0  0  0  0  0  0  0
  1  2  2  0  0  0  0
  2  3  1  0  0  0  0
  4  3  1  0  0  0  0
  5  4  1  0  0  0  0
  6  5  2  0  0  0  0
  7  6  1  0  0  0  0
  8  7  1  0  0  0  0
  3  8  1  0  0  0  0
M  END
> <ChemID>
100184

> <CAS>
100-40-3

> <Original_SMILES>
C=CC1CC=CCC1

> <preferred_name>
4-Vinylcyclohexene

> <dsstox_substance_id>
DTXSID3021437

> <dsstox_compound_id>
DTXCID601437

> <qc_level>
DSSTox_Low

> <Canonical_QSARr>
C=CC1CC=CCC1

> <InChI_Code_QSARr>
InChI=1S/C8H12/c1-2-8-6-4-3-5-7-8/h2-4,8H,1,5-7H2

> <InChI Key_QSARr>
BBDKZWKEPDTENS-UHFFFAOYSA-N

> <Salt_Solvent>


> <Salt_Solvent_ID>
0

> <MPID>
98115

> <LogBCF>
2.22

> <Tr_1_Tst_0>
1

$$$$
100185
  Mrv171c012241911322D          

  8  8  0  0  0  0            999 V2000
    3.1082    0.5344    0.0000 C   0  0  0  0  0  0  0  0  0  0  0  0
    2.3938    0.1219    0.0000 C   0  0  0  0  0  0  0  0  0  0  0  0
    2.3938   -0.7031    0.0000 C   0  0  0  0  0  0  0  0  0  0  0  0
    1.6793   -1.1156    0.0000 C   0  0  0  0  0  0  0  0  0  0  0  0
    1.6793   -1.9406    0.0000 C   0  0  0  0  0  0  0  0  0  0  0  0
    2.3938   -2.3531    0.0000 C   0  0  0  0  0  0  0  0  0  0  0  0
    3.1082   -1.9406    0.0000 C   0  0  0  0  0  0  0  0  0  0  0  0
    3.1082   -1.1156    0.0000 C   0  0  0  0  0  0  0  0  0  0  0  0
  1  2  2  0  0  0  0
  2  3  1  0  0  0  0
  4  3  1  0  0  0  0
  5  4  2  0  0  0  0
  6  5  1  0  0  0  0
  7  6  2  0  0  0  0
  8  7  1  0  0  0  0
  3  8  2  0  0  0  0
M  END
> <ChemID>
100185

> <CAS>
100-42-5

> <Original_SMILES>
C=Cc1ccccc1

> <preferred_name>
Styrene

> <dsstox_substance_id>
DTXSID2021284

> <dsstox_compound_id>
DTXCID501284

> <qc_level>
DSSTox_High

> <Canonical_QSARr>
C=CC1C=CC=CC=1

> <InChI_Code_QSARr>
InChI=1S/C8H8/c1-2-8-6-4-3-5-7-8/h2-7H,1H2

> <InChI Key_QSARr>
PPBRXRYQALVLMV-UHFFFAOYSA-N

> <Salt_Solvent>


> <Salt_Solvent_ID>
0

> <MPID>
98116

> <LogBCF>
1.13

> <Tr_1_Tst_0>
1

$$$$
100186
  Mrv171c012241911322D          

  8  8  0  0  0  0            999 V2000
    0.7136   -2.8852    0.0000 N   0  0  0  0  0  0  0  0  0  0  0  0
    1.4280   -2.4727    0.0000 C   0  0  0  0  0  0  0  0  0  0  0  0
    1.4280   -1.6477    0.0000 C   0  0  0  0  0  0  0  0  0  0  0  0
    0.7136   -1.2352    0.0000 C   0  0  0  0  0  0  0  0  0  0  0  0
    0.7136   -0.4102    0.0000 C   0  0  0  0  0  0  0  0  0  0  0  0
   -0.0009    0.0023    0.0000 C   0  0  0  0  0  0  0  0  0  0  0  0
   -0.0009   -1.6477    0.0000 C   0  0  0  0  0  0  0  0  0  0  0  0
   -0.0009   -2.4727    0.0000 C   0  0  0  0  0  0  0  0  0  0  0  0
  2  1  1  0  0  0  0
  3  2  2  0  0  0  0
  4  3  1  0  0  0  0
  4  5  1  0  0  0  0
  5  6  2  0  0  0  0
  7  4  2  0  0  0  0
  8  7  1  0  0  0  0
  1  8  2  0  0  0  0
M  END
> <ChemID>
100186

> <CAS>
100-43-6

> <Original_SMILES>
C=Cc1cc[n]cc1

> <preferred_name>
4-Vinylpyridine

> <dsstox_substance_id>
DTXSID0051499

> <dsstox_compound_id>
DTXCID4030047

> <qc_level>
DSSTox_High

> <Canonical_QSARr>
C=CC1C=CN=CC=1

> <InChI_Code_QSARr>
InChI=1S/C7H7N/c1-2-7-3-5-8-6-4-7/h2-6H,1H2

> <InChI Key_QSARr>
KFDVPJUYSDEJTH-UHFFFAOYSA-N

> <Salt_Solvent>


> <Salt_Solvent_ID>
0

> <MPID>
98117

> <LogBCF>
1.86

> <Tr_1_Tst_0>
0

$$$$
100187
  Mrv171c012241911322D          

  8  8  0  0  0  0            999 V2000
    1.6859   -1.9143    0.0000 C   0  0  0  0  0  0  0  0  0  0  0  0
    2.4004   -1.5018    0.0000 C   0  0  0  0  0  0  0  0  0  0  0  0
    2.4004   -0.6768    0.0000 C   0  0  0  0  0  0  0  0  0  0  0  0
    1.6859   -0.2643    0.0000 C   0  0  0  0  0  0  0  0  0  0  0  0
    1.6859    0.5607    0.0000 N   0  0  0  0  0  0  0  0  0  0  0  0
    0.9715    0.9732    0.0000 C   0  0  0  0  0  0  0  0  0  0  0  0
    0.9715   -0.6768    0.0000 C   0  0  0  0  0  0  0  0  0  0  0  0
    0.9715   -1.5018    0.0000 C   0  0  0  0  0  0  0  0  0  0  0  0
  2  1  1  0  0  0  0
  3  2  2  0  0  0  0
  4  3  1  0  0  0  0
  4  5  1  0  0  0  0
  5  6  1  0  0  0  0
  7  4  2  0  0  0  0
  8  7  1  0  0  0  0
  1  8  2  0  0  0  0
M  END
> <ChemID>
100187

> <CAS>
100-61-8

> <Original_SMILES>
CNc1ccccc1

> <preferred_name>
N-Methylaniline

> <dsstox_substance_id>
DTXSID9021841

> <dsstox_compound_id>
DTXCID301841

> <qc_level>
DSSTox_Low

> <Canonical_QSARr>
CNC1C=CC=CC=1

> <InChI_Code_QSARr>
InChI=1S/C7H9N/c1-8-7-5-3-2-4-6-7/h2-6,8H,1H3

> <InChI Key_QSARr>
AFBPFSWMIHJQDM-UHFFFAOYSA-N

> <Salt_Solvent>


> <Salt_Solvent_ID>
0

> <MPID>
98118

> <LogBCF>
1.0

> <Tr_1_Tst_0>
1

$$$$
100188
  Mrv171c012241911322D          

  9  9  0  0  0  0            999 V2000
    2.1372   -1.4348    0.0000 C   0  0  0  0  0  0  0  0  0  0  0  0
    2.8516   -1.8473    0.0000 C   0  0  0  0  0  0  0  0  0  0  0  0
    2.8516   -2.6723    0.0000 C   0  0  0  0  0  0  0  0  0  0  0  0
    2.1372   -0.6098    0.0000 C   0  0  0  0  0  0  0  0  0  0  0  0
    1.4227   -0.1973    0.0000 C   0  0  0  0  0  0  0  0  0  0  0  0
    1.4227    0.6277    0.0000 C   0  0  0  0  0  0  0  0  0  0  0  0
    0.7082   -0.6098    0.0000 C   0  0  0  0  0  0  0  0  0  0  0  0
    0.7082   -1.4348    0.0000 C   0  0  0  0  0  0  0  0  0  0  0  0
    1.4227   -1.8473    0.0000 C   0  0  0  0  0  0  0  0  0  0  0  0
  1  2  1  0  0  0  0
  2  3  2  0  0  0  0
  4  1  1  0  0  0  0
  5  4  2  0  0  0  0
  5  6  1  0  0  0  0
  7  5  1  0  0  0  0
  8  7  2  0  0  0  0
  9  8  1  0  0  0  0
  1  9  2  0  0  0  0
M  END
> <ChemID>
100188

> <CAS>
100-80-1

> <Original_SMILES>
Cc1cc(C=C)ccc1

> <preferred_name>
3-Methylstyrene

> <dsstox_substance_id>
DTXSID9051454

> <dsstox_compound_id>
DTXCID201436

> <qc_level>
DSSTox_High

> <Canonical_QSARr>
CC1=CC(C=C)=CC=C1

> <InChI_Code_QSARr>
InChI=1S/C9H10/c1-3-9-6-4-5-8(2)7-9/h3-7H,1H2,2H3

> <InChI Key_QSARr>
JZHGRUMIRATHIU-UHFFFAOYSA-N

> <Salt_Solvent>


> <Salt_Solvent_ID>
0

> <MPID>
98119

> <LogBCF>
1.55

> <Tr_1_Tst_0>
1

$$$$
100189
  Mrv171c012241911322D          

 17 18  0  0  0  0            999 V2000
    4.9610   -3.4941    0.0000 Cl  0  0  0  0  0  0  0  0  0  0  0  0
    4.2465   -3.0816    0.0000 C   0  0  0  0  0  0  0  0  0  0  0  0
    4.2465   -2.2566    0.0000 C   0  0  0  0  0  0  0  0  0  0  0  0
    3.5321   -1.8441    0.0000 C   0  0  0  0  0  0  0  0  0  0  0  0
    3.5321   -1.0191    0.0000 C   0  0  0  0  0  0  0  0  0  0  0  0
    2.8176   -0.6066    0.0000 C   0  0  0  0  0  0  0  0  0  0  0  0
    2.8176    0.2184    0.0000 C   0  0  0  0  0  0  0  0  0  0  0  0
    2.1031    0.6309    0.0000 C   0  0  0  0  0  0  0  0  0  0  0  0
    1.3887    0.2184    0.0000 C   0  0  0  0  0  0  0  0  0  0  0  0
    0.6742    0.6309    0.0000 N   0  0  0  0  0  0  0  0  0  0  0  0
    1.3887   -0.6066    0.0000 C   0  0  0  0  0  0  0  0  0  0  0  0
    0.6742   -1.0191    0.0000 Cl  0  0  0  0  0  0  0  0  0  0  0  0
    2.1031   -1.0191    0.0000 C   0  0  0  0  0  0  0  0  0  0  0  0
    2.8176   -2.2566    0.0000 C   0  0  0  0  0  0  0  0  0  0  0  0
    2.8176   -3.0816    0.0000 C   0  0  0  0  0  0  0  0  0  0  0  0
    3.5321   -3.4941    0.0000 C   0  0  0  0  0  0  0  0  0  0  0  0
    3.5321   -4.3191    0.0000 N   0  0  0  0  0  0  0  0  0  0  0  0
  1  2  1  0  0  0  0
  3  2  1  0  0  0  0
  4  3  2  0  0  0  0
  4  5  1  0  0  0  0
  5  6  1  0  0  0  0
  7  6  1  0  0  0  0
  8  7  2  0  0  0  0
  9  8  1  0  0  0  0
  9 10  1  0  0  0  0
 11  9  2  0  0  0  0
 11 12  1  0  0  0  0
 13 11  1  0  0  0  0
  6 13  2  0  0  0  0
 14  4  1  0  0  0  0
 15 14  2  0  0  0  0
 16 15  1  0  0  0  0
  2 16  2  0  0  0  0
 16 17  1  0  0  0  0
M  END
> <ChemID>
100189

> <CAS>
101-14-4

> <Original_SMILES>
Nc1ccc(Cc2cc(Cl)c(N)cc2)cc1Cl

> <preferred_name>
4,4'-Methylenebis(2-chloroaniline)

> <dsstox_substance_id>
DTXSID5020865

> <dsstox_compound_id>
DTXCID50865

> <qc_level>
DSSTox_High

> <Canonical_QSARr>
NC1C=CC(CC2=CC(Cl)=C(N)C=C2)=CC=1Cl

> <InChI_Code_QSARr>
InChI=1S/C13H12Cl2N2/c14-10-6-8(1-3-12(10)16)5-9-2-4-13(17)11(15)7-9/h1-4,6-7H,5,16-17H2

> <InChI Key_QSARr>
IBOFVQJTBBUKMU-UHFFFAOYSA-N

> <Salt_Solvent>


> <Salt_Solvent_ID>
0

> <MPID>
98120

> <LogBCF>
2.24

> <Tr_1_Tst_0>
1

$$$$
100190
  Mrv171c012241911322D          

 14 15  0  0  0  0            999 V2000
    2.9753   -2.7147    0.0000 C   0  0  0  0  0  0  0  0  0  0  0  0
    3.6897   -2.3022    0.0000 C   0  0  0  0  0  0  0  0  0  0  0  0
    3.6897   -1.4772    0.0000 C   0  0  0  0  0  0  0  0  0  0  0  0
    2.9753   -1.0647    0.0000 C   0  0  0  0  0  0  0  0  0  0  0  0
    2.9753   -0.2397    0.0000 C   0  0  0  0  0  0  0  0  0  0  0  0
    2.2608    0.1728    0.0000 C   0  0  0  0  0  0  0  0  0  0  0  0
    2.2608    0.9978    0.0000 C   0  0  0  0  0  0  0  0  0  0  0  0
    1.5463    1.4103    0.0000 C   0  0  0  0  0  0  0  0  0  0  0  0
    0.8319    0.9978    0.0000 C   0  0  0  0  0  0  0  0  0  0  0  0
    0.8319    0.1728    0.0000 C   0  0  0  0  0  0  0  0  0  0  0  0
    1.5463   -0.2397    0.0000 C   0  0  0  0  0  0  0  0  0  0  0  0
    2.2608   -1.4772    0.0000 C   0  0  0  0  0  0  0  0  0  0  0  0
    2.2608   -2.3022    0.0000 C   0  0  0  0  0  0  0  0  0  0  0  0
    2.9753   -3.5397    0.0000 O   0  0  0  0  0  0  0  0  0  0  0  0
  2  1  1  0  0  0  0
  3  2  2  0  0  0  0
  4  3  1  0  0  0  0
  4  5  1  0  0  0  0
  5  6  1  0  0  0  0
  7  6  1  0  0  0  0
  8  7  2  0  0  0  0
  9  8  1  0  0  0  0
 10  9  2  0  0  0  0
 11 10  1  0  0  0  0
  6 11  2  0  0  0  0
 12  4  2  0  0  0  0
 13 12  1  0  0  0  0
  1 13  2  0  0  0  0
  1 14  1  0  0  0  0
M  END
> <ChemID>
100190

> <CAS>
101-53-1

> <Original_SMILES>
Oc1ccc(Cc2ccccc2)cc1

> <preferred_name>
4-Benzylphenol

> <dsstox_substance_id>
DTXSID9047962

> <dsstox_compound_id>
DTXCID5027938

> <qc_level>
DSSTox_Low

> <Canonical_QSARr>
OC1C=CC(CC2C=CC=CC=2)=CC=1

> <InChI_Code_QSARr>
InChI=1S/C13H12O/c14-13-8-6-12(7-9-13)10-11-4-2-1-3-5-11/h1-9,14H,10H2

> <InChI Key_QSARr>
HJSPWKGEPDZNLK-UHFFFAOYSA-N

> <Salt_Solvent>


> <Salt_Solvent_ID>
0

> <MPID>
98121

> <LogBCF>
1.33

> <Tr_1_Tst_0>
0

$$$$
100191
  Mrv171c012241911322D          

 15 16  0  0  0  0            999 V2000
    3.6216   -2.9165    0.0000 C   0  0  0  0  0  0  0  0  0  0  0  0
    4.3361   -2.5040    0.0000 C   0  0  0  0  0  0  0  0  0  0  0  0
    4.3361   -1.6790    0.0000 C   0  0  0  0  0  0  0  0  0  0  0  0
    3.6216   -1.2665    0.0000 C   0  0  0  0  0  0  0  0  0  0  0  0
    3.6216   -0.4415    0.0000 C   0  0  0  0  0  0  0  0  0  0  0  0
    2.9071   -0.0290    0.0000 C   0  0  0  0  0  0  0  0  0  0  0  0
    2.9071    0.7960    0.0000 C   0  0  0  0  0  0  0  0  0  0  0  0
    2.1927    1.2085    0.0000 C   0  0  0  0  0  0  0  0  0  0  0  0
    1.4782    0.7960    0.0000 C   0  0  0  0  0  0  0  0  0  0  0  0
    0.7637    1.2085    0.0000 N   0  0  0  0  0  0  0  0  0  0  0  0
    1.4782   -0.0290    0.0000 C   0  0  0  0  0  0  0  0  0  0  0  0
    2.1927   -0.4415    0.0000 C   0  0  0  0  0  0  0  0  0  0  0  0
    2.9071   -1.6790    0.0000 C   0  0  0  0  0  0  0  0  0  0  0  0
    2.9071   -2.5040    0.0000 C   0  0  0  0  0  0  0  0  0  0  0  0
    3.6216   -3.7415    0.0000 N   0  0  0  0  0  0  0  0  0  0  0  0
  2  1  2  0  0  0  0
  3  2  1  0  0  0  0
  4  3  2  0  0  0  0
  4  5  1  0  0  0  0
  5  6  1  0  0  0  0
  7  6  1  0  0  0  0
  8  7  2  0  0  0  0
  9  8  1  0  0  0  0
  9 10  1  0  0  0  0
 11  9  2  0  0  0  0
 12 11  1  0  0  0  0
  6 12  2  0  0  0  0
 13  4  1  0  0  0  0
 14 13  2  0  0  0  0
  1 14  1  0  0  0  0
  1 15  1  0  0  0  0
M  END
> <ChemID>
100191

> <CAS>
101-77-9

> <Original_SMILES>
Nc1ccc(Cc2ccc(N)cc2)cc1

> <preferred_name>
4,4'-Methylenedianiline

> <dsstox_substance_id>
DTXSID6022422

> <dsstox_compound_id>
DTXCID402422

> <qc_level>
DSSTox_Low

> <Canonical_QSARr>
NC1C=CC(CC2C=CC(N)=CC=2)=CC=1

> <InChI_Code_QSARr>
InChI=1S/C13H14N2/c14-12-5-1-10(2-6-12)9-11-3-7-13(15)8-4-11/h1-8H,9,14-15H2

> <InChI Key_QSARr>
YBRVSVVVWCFQMG-UHFFFAOYSA-N

> <Salt_Solvent>


> <Salt_Solvent_ID>
0

> <MPID>
98122

> <LogBCF>
1.18

> <Tr_1_Tst_0>
1

$$$$
100192
  Mrv171c012241911322D          

 13 14  0  0  0  0            999 V2000
    2.7968   -0.3827    0.0000 C   0  0  0  0  0  0  0  0  0  0  0  0
    2.7968   -1.2077    0.0000 C   0  0  0  0  0  0  0  0  0  0  0  0
    2.0824   -1.6202    0.0000 C   0  0  0  0  0  0  0  0  0  0  0  0
    2.0824   -2.4452    0.0000 C   0  0  0  0  0  0  0  0  0  0  0  0
    2.7968   -2.8577    0.0000 C   0  0  0  0  0  0  0  0  0  0  0  0
    3.5113   -2.4452    0.0000 C   0  0  0  0  0  0  0  0  0  0  0  0
    3.5113   -1.6202    0.0000 C   0  0  0  0  0  0  0  0  0  0  0  0
    2.0824    0.0298    0.0000 C   0  0  0  0  0  0  0  0  0  0  0  0
    2.0824    0.8548    0.0000 C   0  0  0  0  0  0  0  0  0  0  0  0
    1.3679    1.2673    0.0000 C   0  0  0  0  0  0  0  0  0  0  0  0
    0.6534    0.8548    0.0000 C   0  0  0  0  0  0  0  0  0  0  0  0
    0.6534    0.0298    0.0000 C   0  0  0  0  0  0  0  0  0  0  0  0
    1.3679   -0.3827    0.0000 C   0  0  0  0  0  0  0  0  0  0  0  0
  1  2  1  0  0  0  0
  3  2  1  0  0  0  0
  4  3  2  0  0  0  0
  5  4  1  0  0  0  0
  6  5  2  0  0  0  0
  7  6  1  0  0  0  0
  2  7  2  0  0  0  0
  1  8  1  0  0  0  0
  9  8  2  0  0  0  0
 10  9  1  0  0  0  0
 11 10  2  0  0  0  0
 12 11  1  0  0  0  0
 13 12  2  0  0  0  0
  8 13  1  0  0  0  0
M  END
> <ChemID>
100192

> <CAS>
101-81-5

> <Original_SMILES>
C(c1ccccc1)c1ccccc1

> <preferred_name>
Diphenylmethane

> <dsstox_substance_id>
DTXSID1041891

> <dsstox_compound_id>
DTXCID9021891

> <qc_level>
DSSTox_Low

> <Canonical_QSARr>
C(C1C=CC=CC=1)C1C=CC=CC=1

> <InChI_Code_QSARr>
InChI=1S/C13H12/c1-3-7-12(8-4-1)11-13-9-5-2-6-10-13/h1-10H,11H2

> <InChI Key_QSARr>
CZZYITDELCSZES-UHFFFAOYSA-N

> <Salt_Solvent>


> <Salt_Solvent_ID>
0

> <MPID>
98123

> <LogBCF>
2.94

> <Tr_1_Tst_0>
1

$$$$
100193
  Mrv171c012241911322D          

 13 14  0  0  0  0            999 V2000
    3.5155   -1.7446    0.0000 C   0  0  0  0  0  0  0  0  0  0  0  0
    2.8010   -1.3321    0.0000 C   0  0  0  0  0  0  0  0  0  0  0  0
    2.8010   -0.5071    0.0000 O   0  0  0  0  0  0  0  0  0  0  0  0
    2.0865   -0.0946    0.0000 C   0  0  0  0  0  0  0  0  0  0  0  0
    2.0865    0.7304    0.0000 C   0  0  0  0  0  0  0  0  0  0  0  0
    1.3721    1.1429    0.0000 C   0  0  0  0  0  0  0  0  0  0  0  0
    0.6576    0.7304    0.0000 C   0  0  0  0  0  0  0  0  0  0  0  0
    0.6576   -0.0946    0.0000 C   0  0  0  0  0  0  0  0  0  0  0  0
    1.3721   -0.5071    0.0000 C   0  0  0  0  0  0  0  0  0  0  0  0
    2.0865   -1.7446    0.0000 C   0  0  0  0  0  0  0  0  0  0  0  0
    2.0865   -2.5696    0.0000 C   0  0  0  0  0  0  0  0  0  0  0  0
    2.8010   -2.9821    0.0000 C   0  0  0  0  0  0  0  0  0  0  0  0
    3.5155   -2.5696    0.0000 C   0  0  0  0  0  0  0  0  0  0  0  0
  2  1  1  0  0  0  0
  2  3  1  0  0  0  0
  3  4  1  0  0  0  0
  5  4  1  0  0  0  0
  6  5  2  0  0  0  0
  7  6  1  0  0  0  0
  8  7  2  0  0  0  0
  9  8  1  0  0  0  0
  4  9  2  0  0  0  0
 10  2  2  0  0  0  0
 11 10  1  0  0  0  0
 12 11  2  0  0  0  0
 13 12  1  0  0  0  0
  1 13  2  0  0  0  0
M  END
> <ChemID>
100193

> <CAS>
101-84-8

> <Original_SMILES>
c1ccccc1Oc1ccccc1

> <preferred_name>
Diphenyl oxide

> <dsstox_substance_id>
DTXSID9021847

> <dsstox_compound_id>
DTXCID701847

> <qc_level>
DSSTox_Low

> <Canonical_QSARr>
C1=CC=CC=C1OC1C=CC=CC=1

> <InChI_Code_QSARr>
InChI=1S/C12H10O/c1-3-7-11(8-4-1)13-12-9-5-2-6-10-12/h1-10H

> <InChI Key_QSARr>
USIUVYZYUHIAEV-UHFFFAOYSA-N

> <Salt_Solvent>


> <Salt_Solvent_ID>
0

> <MPID>
98124

> <LogBCF>
2.5

> <Tr_1_Tst_0>
1

$$$$
100194
  Mrv171c012241911322D          

 16 17  0  0  0  0            999 V2000
    2.4129   -1.1875    0.0000 N   0  0  0  0  0  0  0  0  0  0  0  0
    3.1274   -0.7750    0.0000 C   0  0  0  0  0  0  0  0  0  0  0  0
    3.8418   -1.1875    0.0000 N   0  0  0  0  0  0  0  0  0  0  0  0
    3.8418   -2.0125    0.0000 C   0  0  0  0  0  0  0  0  0  0  0  0
    3.1274   -2.4250    0.0000 C   0  0  0  0  0  0  0  0  0  0  0  0
    3.1274   -3.2500    0.0000 C   0  0  0  0  0  0  0  0  0  0  0  0
    3.8418   -3.6625    0.0000 C   0  0  0  0  0  0  0  0  0  0  0  0
    4.5563   -3.2500    0.0000 C   0  0  0  0  0  0  0  0  0  0  0  0
    4.5563   -2.4250    0.0000 C   0  0  0  0  0  0  0  0  0  0  0  0
    3.1274    0.0500    0.0000 N   0  0  0  0  0  0  0  0  0  0  0  0
    2.4129    0.4625    0.0000 C   0  0  0  0  0  0  0  0  0  0  0  0
    2.4129    1.2875    0.0000 C   0  0  0  0  0  0  0  0  0  0  0  0
    1.6984    1.7000    0.0000 C   0  0  0  0  0  0  0  0  0  0  0  0
    0.9839    1.2875    0.0000 C   0  0  0  0  0  0  0  0  0  0  0  0
    0.9839    0.4625    0.0000 C   0  0  0  0  0  0  0  0  0  0  0  0
    1.6984    0.0500    0.0000 C   0  0  0  0  0  0  0  0  0  0  0  0
  1  2  2  0  0  0  0
  2  3  1  0  0  0  0
  3  4  1  0  0  0  0
  5  4  1  0  0  0  0
  6  5  2  0  0  0  0
  7  6  1  0  0  0  0
  8  7  2  0  0  0  0
  9  8  1  0  0  0  0
  4  9  2  0  0  0  0
  2 10  1  0  0  0  0
 10 11  1  0  0  0  0
 12 11  1  0  0  0  0
 13 12  2  0  0  0  0
 14 13  1  0  0  0  0
 15 14  2  0  0  0  0
 16 15  1  0  0  0  0
 11 16  2  0  0  0  0
M  END
> <ChemID>
100194

> <CAS>
102-06-7

> <Original_SMILES>
N=C(Nc1ccccc1)Nc1ccccc1

> <preferred_name>
1,3-Diphenylguanidine

> <dsstox_substance_id>
DTXSID3025178

> <dsstox_compound_id>
DTXCID005178

> <qc_level>
DSSTox_Low

> <Canonical_QSARr>
N=C(NC1C=CC=CC=1)NC1C=CC=CC=1

> <InChI_Code_QSARr>
InChI=1S/C13H13N3/c14-13(15-11-7-3-1-4-8-11)16-12-9-5-2-6-10-12/h1-10H,(H3,14,15,16)

> <InChI Key_QSARr>
OWRCNXZUPFZXOS-UHFFFAOYSA-N

> <Salt_Solvent>


> <Salt_Solvent_ID>
0

> <MPID>
98125

> <LogBCF>
1.3

> <Tr_1_Tst_0>
0

$$$$
100195
  Mrv171c012241911322D          

 10  9  0  0  0  0            999 V2000
    1.9211   -2.3944    0.0000 N   0  0  0  0  0  0  0  0  0  0  0  0
    1.9211   -3.2194    0.0000 C   0  0  0  0  0  0  0  0  0  0  0  0
    2.6356   -3.6319    0.0000 C   0  0  0  0  0  0  0  0  0  0  0  0
    2.6356   -4.4569    0.0000 C   0  0  0  0  0  0  0  0  0  0  0  0
    1.2066   -1.9819    0.0000 C   0  0  0  0  0  0  0  0  0  0  0  0
    1.2066   -1.1569    0.0000 C   0  0  0  0  0  0  0  0  0  0  0  0
    0.4922   -0.7444    0.0000 C   0  0  0  0  0  0  0  0  0  0  0  0
    2.6356   -1.9819    0.0000 C   0  0  0  0  0  0  0  0  0  0  0  0
    2.6356   -1.1569    0.0000 C   0  0  0  0  0  0  0  0  0  0  0  0
    3.3501   -0.7444    0.0000 C   0  0  0  0  0  0  0  0  0  0  0  0
  1  2  1  0  0  0  0
  2  3  1  0  0  0  0
  3  4  2  0  0  0  0
  1  5  1  0  0  0  0
  5  6  1  0  0  0  0
  6  7  2  0  0  0  0
  1  8  1  0  0  0  0
  8  9  1  0  0  0  0
  9 10  2  0  0  0  0
M  END
> <ChemID>
100195

> <CAS>
102-70-5

> <Original_SMILES>
C=CCN(CC=C)CC=C

> <preferred_name>
Triallylamine

> <dsstox_substance_id>
DTXSID5026174

> <dsstox_compound_id>
DTXCID506174

> <qc_level>
DSSTox_Low

> <Canonical_QSARr>
C=CCN(CC=C)CC=C

> <InChI_Code_QSARr>
InChI=1S/C9H15N/c1-4-7-10(8-5-2)9-6-3/h4-6H,1-3,7-9H2

> <InChI Key_QSARr>
VPYJNCGUESNPMV-UHFFFAOYSA-N

> <Salt_Solvent>


> <Salt_Solvent_ID>
0

> <MPID>
98126

> <LogBCF>
0.55

> <Tr_1_Tst_0>
1

$$$$
100196
  Mrv171c012241911322D          

 10  9  0  0  0  0            999 V2000
    1.9752   -3.3108    0.0000 O   0  0  0  0  0  0  0  0  0  0  0  0
    1.9752   -2.4858    0.0000 C   0  0  0  0  0  0  0  0  0  0  0  0
    1.2608   -2.0733    0.0000 C   0  0  0  0  0  0  0  0  0  0  0  0
    1.2608   -1.2483    0.0000 N   0  0  0  0  0  0  0  0  0  0  0  0
    0.5463   -0.8358    0.0000 C   0  0  0  0  0  0  0  0  0  0  0  0
    0.5463   -0.0108    0.0000 C   0  0  0  0  0  0  0  0  0  0  0  0
   -0.1682    0.4017    0.0000 O   0  0  0  0  0  0  0  0  0  0  0  0
    1.9752   -0.8358    0.0000 C   0  0  0  0  0  0  0  0  0  0  0  0
    1.9752   -0.0108    0.0000 C   0  0  0  0  0  0  0  0  0  0  0  0
    2.6897    0.4017    0.0000 O   0  0  0  0  0  0  0  0  0  0  0  0
  1  2  1  0  0  0  0
  2  3  1  0  0  0  0
  3  4  1  0  0  0  0
  4  5  1  0  0  0  0
  5  6  1  0  0  0  0
  6  7  1  0  0  0  0
  4  8  1  0  0  0  0
  8  9  1  0  0  0  0
  9 10  1  0  0  0  0
M  END
> <ChemID>
100196

> <CAS>
102-71-6

> <Original_SMILES>
OCCN(CCO)CCO

> <preferred_name>
Triethanolamine

> <dsstox_substance_id>
DTXSID9021392

> <dsstox_compound_id>
DTXCID201392

> <qc_level>
DSSTox_High

> <Canonical_QSARr>
OCCN(CCO)CCO

> <InChI_Code_QSARr>
InChI=1S/C6H15NO3/c8-4-1-7(2-5-9)3-6-10/h8-10H,1-6H2

> <InChI Key_QSARr>
GSEJCLTVZPLZKY-UHFFFAOYSA-N

> <Salt_Solvent>


> <Salt_Solvent_ID>
0

> <MPID>
98127

> <LogBCF>
0.59

> <Tr_1_Tst_0>
1

$$$$
100197
  Mrv171c012241911322D          

 13 12  0  0  0  0            999 V2000
    1.8710   -0.7711    0.0000 N   0  0  0  0  0  0  0  0  0  0  0  0
    1.8710    0.0539    0.0000 C   0  0  0  0  0  0  0  0  0  0  0  0
    2.5855    0.4664    0.0000 C   0  0  0  0  0  0  0  0  0  0  0  0
    2.5855    1.2914    0.0000 C   0  0  0  0  0  0  0  0  0  0  0  0
    3.2999    1.7039    0.0000 C   0  0  0  0  0  0  0  0  0  0  0  0
    1.1565   -1.1836    0.0000 C   0  0  0  0  0  0  0  0  0  0  0  0
    1.1565   -2.0086    0.0000 C   0  0  0  0  0  0  0  0  0  0  0  0
    0.4421   -2.4211    0.0000 C   0  0  0  0  0  0  0  0  0  0  0  0
    0.4421   -3.2461    0.0000 C   0  0  0  0  0  0  0  0  0  0  0  0
    2.5855   -1.1836    0.0000 C   0  0  0  0  0  0  0  0  0  0  0  0
    2.5855   -2.0086    0.0000 C   0  0  0  0  0  0  0  0  0  0  0  0
    3.2999   -2.4211    0.0000 C   0  0  0  0  0  0  0  0  0  0  0  0
    3.2999   -3.2461    0.0000 C   0  0  0  0  0  0  0  0  0  0  0  0
  1  2  1  0  0  0  0
  2  3  1  0  0  0  0
  3  4  1  0  0  0  0
  4  5  1  0  0  0  0
  1  6  1  0  0  0  0
  6  7  1  0  0  0  0
  7  8  1  0  0  0  0
  8  9  1  0  0  0  0
  1 10  1  0  0  0  0
 10 11  1  0  0  0  0
 11 12  1  0  0  0  0
 12 13  1  0  0  0  0
M  END
> <ChemID>
100197

> <CAS>
102-82-9

> <Original_SMILES>
CCCCN(CCCC)CCCC

> <preferred_name>
Tributylamine

> <dsstox_substance_id>
DTXSID4026183

> <dsstox_compound_id>
DTXCID406183

> <qc_level>
DSSTox_Low

> <Canonical_QSARr>
CCCCN(CCCC)CCCC

> <InChI_Code_QSARr>
InChI=1S/C12H27N/c1-4-7-10-13(11-8-5-2)12-9-6-3/h4-12H2,1-3H3

> <InChI Key_QSARr>
IMFACGCPASFAPR-UHFFFAOYSA-N

> <Salt_Solvent>


> <Salt_Solvent_ID>
0

> <MPID>
98128

> <LogBCF>
1.4

> <Tr_1_Tst_0>
1

$$$$
100198
  Mrv171c012241911322D          

 11 10  0  0  0  0            999 V2000
    4.0253   -1.5085    0.0000 O   0  0  0  0  0  0  0  0  0  0  0  0
    3.3108   -1.9210    0.0000 C   0  0  0  0  0  0  0  0  0  0  0  0
    2.5964   -1.5085    0.0000 C   0  0  0  0  0  0  0  0  0  0  0  0
    2.5964   -0.6835    0.0000 C   0  0  0  0  0  0  0  0  0  0  0  0
    1.8819   -0.2710    0.0000 C   0  0  0  0  0  0  0  0  0  0  0  0
    1.8819   -1.9210    0.0000 C   0  0  0  0  0  0  0  0  0  0  0  0
    1.1674   -1.5085    0.0000 C   0  0  0  0  0  0  0  0  0  0  0  0
    0.4530   -1.9210    0.0000 C   0  0  0  0  0  0  0  0  0  0  0  0
   -0.2615   -1.5085    0.0000 C   0  0  0  0  0  0  0  0  0  0  0  0
    4.7398   -1.9210    0.0000 C   0  0  0  0  0  0  0  0  0  0  0  0
    5.4543   -1.5085    0.0000 C   0  0  0  0  0  0  0  0  0  0  0  0
  1  2  1  0  0  0  0
  2  3  1  0  0  0  0
  3  4  1  0  0  0  0
  4  5  1  0  0  0  0
  3  6  1  0  0  0  0
  6  7  1  0  0  0  0
  7  8  1  0  0  0  0
  8  9  1  0  0  0  0
  1 10  1  0  0  0  0
 10 11  2  0  0  0  0
M  END
> <ChemID>
100198

> <CAS>
103-44-6

> <Original_SMILES>
CCCCC(COC=C)CC

> <preferred_name>


> <dsstox_substance_id>
DTXSID20870444

> <dsstox_compound_id>
DTXCID40818166

> <qc_level>


> <Canonical_QSARr>
CCCCC(COC=C)CC

> <InChI_Code_QSARr>
InChI=1S/C10H20O/c1-4-7-8-10(5-2)9-11-6-3/h6,10H,3-5,7-9H2,1-2H3

> <InChI Key_QSARr>
DSSAWHFZNWVJEC-UHFFFAOYSA-N

> <Salt_Solvent>


> <Salt_Solvent_ID>
0

> <MPID>
98129

> <LogBCF>
2.78

> <Tr_1_Tst_0>
0

$$$$
100199
  Mrv171c012241911322D          

 15 16  0  0  0  0            999 V2000
    3.0977   -0.8267    0.0000 O   0  0  0  0  0  0  0  0  0  0  0  0
    3.8121   -1.2392    0.0000 C   0  0  0  0  0  0  0  0  0  0  0  0
    3.8121   -2.0642    0.0000 C   0  0  0  0  0  0  0  0  0  0  0  0
    3.0977   -2.4767    0.0000 C   0  0  0  0  0  0  0  0  0  0  0  0
    3.0977   -3.3017    0.0000 C   0  0  0  0  0  0  0  0  0  0  0  0
    3.8121   -3.7142    0.0000 C   0  0  0  0  0  0  0  0  0  0  0  0
    4.5266   -3.3017    0.0000 C   0  0  0  0  0  0  0  0  0  0  0  0
    4.5266   -2.4767    0.0000 C   0  0  0  0  0  0  0  0  0  0  0  0
    3.0977   -0.0017    0.0000 C   0  0  0  0  0  0  0  0  0  0  0  0
    2.3832    0.4108    0.0000 C   0  0  0  0  0  0  0  0  0  0  0  0
    2.3832    1.2358    0.0000 C   0  0  0  0  0  0  0  0  0  0  0  0
    1.6687    1.6483    0.0000 C   0  0  0  0  0  0  0  0  0  0  0  0
    0.9543    1.2358    0.0000 C   0  0  0  0  0  0  0  0  0  0  0  0
    0.9543    0.4108    0.0000 C   0  0  0  0  0  0  0  0  0  0  0  0
    1.6687   -0.0017    0.0000 C   0  0  0  0  0  0  0  0  0  0  0  0
  1  2  1  0  0  0  0
  2  3  1  0  0  0  0
  4  3  1  0  0  0  0
  5  4  2  0  0  0  0
  6  5  1  0  0  0  0
  7  6  2  0  0  0  0
  8  7  1  0  0  0  0
  3  8  2  0  0  0  0
  1  9  1  0  0  0  0
  9 10  1  0  0  0  0
 11 10  1  0  0  0  0
 12 11  2  0  0  0  0
 13 12  1  0  0  0  0
 14 13  2  0  0  0  0
 15 14  1  0  0  0  0
 10 15  2  0  0  0  0
M  END
> <ChemID>
100199

> <CAS>
103-50-4

> <Original_SMILES>
C(OCc1ccccc1)c1ccccc1

> <preferred_name>
Dibenzyl ether

> <dsstox_substance_id>
DTXSID5025819

> <dsstox_compound_id>
DTXCID005819

> <qc_level>
DSSTox_Low

> <Canonical_QSARr>
C(OCC1C=CC=CC=1)C1C=CC=CC=1

> <InChI_Code_QSARr>
InChI=1S/C14H14O/c1-3-7-13(8-4-1)11-15-12-14-9-5-2-6-10-14/h1-10H,11-12H2

> <InChI Key_QSARr>
MHDVGSVTJDSBDK-UHFFFAOYSA-N

> <Salt_Solvent>


> <Salt_Solvent_ID>
0

> <MPID>
98130

> <LogBCF>
2.43

> <Tr_1_Tst_0>
1

$$$$
100200
  Mrv171c012241911322D          

  9  9  0  0  0  0            999 V2000
    1.9978    0.3597    0.0000 N   0  0  0  0  0  0  0  0  0  0  0  0
    2.7123    0.7722    0.0000 C   0  0  0  0  0  0  0  0  0  0  0  0
    2.7123    1.5972    0.0000 C   0  0  0  0  0  0  0  0  0  0  0  0
    1.9978   -0.4653    0.0000 C   0  0  0  0  0  0  0  0  0  0  0  0
    1.2833   -0.8778    0.0000 C   0  0  0  0  0  0  0  0  0  0  0  0
    1.2833   -1.7028    0.0000 C   0  0  0  0  0  0  0  0  0  0  0  0
    1.9978   -2.1153    0.0000 C   0  0  0  0  0  0  0  0  0  0  0  0
    2.7123   -1.7028    0.0000 C   0  0  0  0  0  0  0  0  0  0  0  0
    2.7123   -0.8778    0.0000 C   0  0  0  0  0  0  0  0  0  0  0  0
  1  2  1  0  0  0  0
  2  3  1  0  0  0  0
  1  4  1  0  0  0  0
  5  4  1  0  0  0  0
  6  5  2  0  0  0  0
  7  6  1  0  0  0  0
  8  7  2  0  0  0  0
  9  8  1  0  0  0  0
  4  9  2  0  0  0  0
M  END
> <ChemID>
100200

> <CAS>
103-69-5

> <Original_SMILES>
CCNc1ccccc1

> <preferred_name>
N-Ethylaniline

> <dsstox_substance_id>
DTXSID1025271

> <dsstox_compound_id>
DTXCID405271

> <qc_level>
DSSTox_Low

> <Canonical_QSARr>
CCNC1C=CC=CC=1

> <InChI_Code_QSARr>
InChI=1S/C8H11N/c1-2-9-8-6-4-3-5-7-8/h3-7,9H,2H2,1H3

> <InChI Key_QSARr>
OJGMBLNIHDZDGS-UHFFFAOYSA-N

> <Salt_Solvent>


> <Salt_Solvent_ID>
0

> <MPID>
98131

> <LogBCF>
1.11

> <Tr_1_Tst_0>
1

$$$$
100201
  Mrv171c012241911322D          

 10 10  0  0  0  0            999 V2000
    2.4287    1.0714    0.0000 C   0  0  0  0  0  0  0  0  0  0  0  0
    2.4287    0.2464    0.0000 N   0  0  0  0  0  0  0  0  0  0  0  0
    1.7142   -0.1661    0.0000 C   0  0  0  0  0  0  0  0  0  0  0  0
    1.7142   -0.9911    0.0000 C   0  0  0  0  0  0  0  0  0  0  0  0
    0.9997   -1.4036    0.0000 C   0  0  0  0  0  0  0  0  0  0  0  0
    0.9997   -2.2286    0.0000 C   0  0  0  0  0  0  0  0  0  0  0  0
    1.7142   -2.6411    0.0000 C   0  0  0  0  0  0  0  0  0  0  0  0
    2.4287   -2.2286    0.0000 C   0  0  0  0  0  0  0  0  0  0  0  0
    2.4287   -1.4036    0.0000 C   0  0  0  0  0  0  0  0  0  0  0  0
    3.1432   -0.1661    0.0000 C   0  0  0  0  0  0  0  0  0  0  0  0
  1  2  1  0  0  0  0
  2  3  1  0  0  0  0
  3  4  1  0  0  0  0
  5  4  1  0  0  0  0
  6  5  2  0  0  0  0
  7  6  1  0  0  0  0
  8  7  2  0  0  0  0
  9  8  1  0  0  0  0
  4  9  2  0  0  0  0
  2 10  1  0  0  0  0
M  END
> <ChemID>
100201

> <CAS>
103-83-3

> <Original_SMILES>
CN(C)Cc1ccccc1

> <preferred_name>
N,N-Dimethylbenzylamine

> <dsstox_substance_id>
DTXSID8021854

> <dsstox_compound_id>
DTXCID801854

> <qc_level>
DSSTox_Low

> <Canonical_QSARr>
CN(C)CC1C=CC=CC=1

> <InChI_Code_QSARr>
InChI=1S/C9H13N/c1-10(2)8-9-6-4-3-5-7-9/h3-7H,8H2,1-2H3

> <InChI Key_QSARr>
XXBDWLFCJWSEKW-UHFFFAOYSA-N

> <Salt_Solvent>


> <Salt_Solvent_ID>
0

> <MPID>
98132

> <LogBCF>
1.15

> <Tr_1_Tst_0>
1

$$$$
100202
  Mrv171c012241911322D          

 16 16  0  0  0  0            999 V2000
    0.0169   -1.6513    0.0000 C   0  0  0  0  0  0  0  0  0  0  0  0
    0.7314   -1.2388    0.0000 C   0  0  0  0  0  0  0  0  0  0  0  0
    1.4459   -1.6513    0.0000 C   0  0  0  0  0  0  0  0  0  0  0  0
    2.1603   -1.2388    0.0000 C   0  0  0  0  0  0  0  0  0  0  0  0
    2.8748   -1.6513    0.0000 C   0  0  0  0  0  0  0  0  0  0  0  0
    3.5893   -1.2388    0.0000 C   0  0  0  0  0  0  0  0  0  0  0  0
    4.3037   -1.6513    0.0000 C   0  0  0  0  0  0  0  0  0  0  0  0
    5.0182   -1.2388    0.0000 C   0  0  0  0  0  0  0  0  0  0  0  0
    5.7327   -1.6513    0.0000 C   0  0  0  0  0  0  0  0  0  0  0  0
    6.4472   -1.2388    0.0000 C   0  0  0  0  0  0  0  0  0  0  0  0
    7.1616   -1.6513    0.0000 C   0  0  0  0  0  0  0  0  0  0  0  0
    7.8761   -1.2388    0.0000 C   0  0  0  0  0  0  0  0  0  0  0  0
    7.8761   -0.4138    0.0000 C   0  0  0  0  0  0  0  0  0  0  0  0
    8.5906   -0.0013    0.0000 O   0  0  0  0  0  0  0  0  0  0  0  0
    7.1616   -0.0013    0.0000 C   0  0  0  0  0  0  0  0  0  0  0  0
    6.4472   -0.4138    0.0000 C   0  0  0  0  0  0  0  0  0  0  0  0
  1  2  1  0  0  0  0
  2  3  1  0  0  0  0
  3  4  1  0  0  0  0
  4  5  1  0  0  0  0
  5  6  1  0  0  0  0
  6  7  1  0  0  0  0
  7  8  1  0  0  0  0
  8  9  1  0  0  0  0
  9 10  1  0  0  0  0
 11 10  1  0  0  0  0
 12 11  2  0  0  0  0
 13 12  1  0  0  0  0
 13 14  1  0  0  0  0
 15 13  2  0  0  0  0
 16 15  1  0  0  0  0
 10 16  2  0  0  0  0
M  END
> <ChemID>
100202

> <CAS>
104-40-5

> <Original_SMILES>
CCCCCCCCCc1ccc(O)cc1

> <preferred_name>
4-Nonylphenol

> <dsstox_substance_id>
DTXSID5033836

> <dsstox_compound_id>
DTXCID001857

> <qc_level>
DSSTox_High

> <Canonical_QSARr>
CCCCCCCCCC1C=CC(O)=CC=1

> <InChI_Code_QSARr>
InChI=1S/C15H24O/c1-2-3-4-5-6-7-8-9-14-10-12-15(16)13-11-14/h10-13,16H,2-9H2,1H3

> <InChI Key_QSARr>
IGFHQQFPSIBGKE-UHFFFAOYSA-N

> <Salt_Solvent>


> <Salt_Solvent_ID>
0

> <MPID>
98133

> <LogBCF>
2.58

> <Tr_1_Tst_0>
0

$$$$
100203
  Mrv171c012241911322D          

  9  9  0  0  0  0            999 V2000
    1.9091   -2.5140    0.0000 Cl  0  0  0  0  0  0  0  0  0  0  0  0
    1.9091   -1.6890    0.0000 C   0  0  0  0  0  0  0  0  0  0  0  0
    2.6235   -1.2765    0.0000 C   0  0  0  0  0  0  0  0  0  0  0  0
    2.6235   -0.4515    0.0000 C   0  0  0  0  0  0  0  0  0  0  0  0
    1.9091   -0.0390    0.0000 C   0  0  0  0  0  0  0  0  0  0  0  0
    1.9091    0.7860    0.0000 C   0  0  0  0  0  0  0  0  0  0  0  0
    1.1946    1.1985    0.0000 O   0  0  0  0  0  0  0  0  0  0  0  0
    1.1946   -0.4515    0.0000 C   0  0  0  0  0  0  0  0  0  0  0  0
    1.1946   -1.2765    0.0000 C   0  0  0  0  0  0  0  0  0  0  0  0
  1  2  1  0  0  0  0
  3  2  1  0  0  0  0
  4  3  2  0  0  0  0
  5  4  1  0  0  0  0
  5  6  1  0  0  0  0
  6  7  2  0  0  0  0
  8  5  2  0  0  0  0
  9  8  1  0  0  0  0
  2  9  2  0  0  0  0
M  END
> <ChemID>
100203

> <CAS>
104-88-1

> <Original_SMILES>
O=Cc1ccc(Cl)cc1

> <preferred_name>
4-Chlorobenzaldehyde

> <dsstox_substance_id>
DTXSID2021860

> <dsstox_compound_id>
DTXCID501860

> <qc_level>
DSSTox_Low

> <Canonical_QSARr>
O=CC1C=CC(Cl)=CC=1

> <InChI_Code_QSARr>
InChI=1S/C7H5ClO/c8-7-3-1-6(5-9)2-4-7/h1-5H

> <InChI Key_QSARr>
AVPYQKSLYISFPO-UHFFFAOYSA-N

> <Salt_Solvent>


> <Salt_Solvent_ID>
0

> <MPID>
98134

> <LogBCF>
0.32

> <Tr_1_Tst_0>
1

$$$$
100204
  Mrv171c012241911322D          

 10 10  0  0  0  0            999 V2000
    2.2035   -1.5415    0.0000 C   0  0  0  0  0  0  0  0  0  0  0  0
    2.2035   -2.3665    0.0000 C   0  0  0  0  0  0  0  0  0  0  0  0
    1.4891   -2.7790    0.0000 C   0  0  0  0  0  0  0  0  0  0  0  0
    2.9180   -1.1290    0.0000 C   0  0  0  0  0  0  0  0  0  0  0  0
    2.9180   -0.3040    0.0000 C   0  0  0  0  0  0  0  0  0  0  0  0
    2.2035    0.1085    0.0000 C   0  0  0  0  0  0  0  0  0  0  0  0
    2.2035    0.9335    0.0000 C   0  0  0  0  0  0  0  0  0  0  0  0
    1.4891    1.3460    0.0000 C   0  0  0  0  0  0  0  0  0  0  0  0
    1.4891   -0.3040    0.0000 C   0  0  0  0  0  0  0  0  0  0  0  0
    1.4891   -1.1290    0.0000 C   0  0  0  0  0  0  0  0  0  0  0  0
  1  2  1  0  0  0  0
  2  3  1  0  0  0  0
  4  1  1  0  0  0  0
  5  4  2  0  0  0  0
  6  5  1  0  0  0  0
  6  7  1  0  0  0  0
  7  8  1  0  0  0  0
  9  6  2  0  0  0  0
 10  9  1  0  0  0  0
  1 10  2  0  0  0  0
M  END
> <ChemID>
100204

> <CAS>
105-05-5

> <Original_SMILES>
CCc1ccc(CC)cc1

> <preferred_name>
1,4-Diethylbenzene

> <dsstox_substance_id>
DTXSID4026711

> <dsstox_compound_id>
DTXCID706711

> <qc_level>
DSSTox_Low

> <Canonical_QSARr>
CCC1C=CC(CC)=CC=1

> <InChI_Code_QSARr>
InChI=1S/C10H14/c1-3-9-5-7-10(4-2)8-6-9/h5-8H,3-4H2,1-2H3

> <InChI Key_QSARr>
DSNHSQKRULAAEI-UHFFFAOYSA-N

> <Salt_Solvent>


> <Salt_Solvent_ID>
0

> <MPID>
98135

> <LogBCF>
2.68

> <Tr_1_Tst_0>
1

$$$$
100205
  Mrv171c012241911322D          

 10 10  0  0  0  0            999 V2000
    3.4524   -1.9748    0.0000 C   0  0  0  0  0  0  0  0  0  0  0  0
    3.4524   -2.7998    0.0000 C   0  0  0  0  0  0  0  0  0  0  0  0
    2.7379   -3.2123    0.0000 C   0  0  0  0  0  0  0  0  0  0  0  0
    4.1668   -1.5623    0.0000 C   0  0  0  0  0  0  0  0  0  0  0  0
    4.1668   -0.7373    0.0000 C   0  0  0  0  0  0  0  0  0  0  0  0
    3.4524   -0.3248    0.0000 C   0  0  0  0  0  0  0  0  0  0  0  0
    3.4524    0.5002    0.0000 C   0  0  0  0  0  0  0  0  0  0  0  0
    2.7379    0.9127    0.0000 C   0  0  0  0  0  0  0  0  0  0  0  0
    2.7379   -0.7373    0.0000 C   0  0  0  0  0  0  0  0  0  0  0  0
    2.7379   -1.5623    0.0000 C   0  0  0  0  0  0  0  0  0  0  0  0
  1  2  1  0  0  0  0
  2  3  2  0  0  0  0
  4  1  1  0  0  0  0
  5  4  2  0  0  0  0
  6  5  1  0  0  0  0
  6  7  1  0  0  0  0
  7  8  2  0  0  0  0
  9  6  2  0  0  0  0
 10  9  1  0  0  0  0
  1 10  2  0  0  0  0
M  END
> <ChemID>
100205

> <CAS>
105-06-6

> <Original_SMILES>
C=Cc1ccc(cc1)C=C

> <preferred_name>
1,4-Divinylbenzene

> <dsstox_substance_id>
DTXSID2033863

> <dsstox_compound_id>
DTXCID0013863

> <qc_level>
DSSTox_High

> <Canonical_QSARr>
C=CC1C=CC(=CC=1)C=C

> <InChI_Code_QSARr>
InChI=1S/C10H10/c1-3-9-5-7-10(4-2)8-6-9/h3-8H,1-2H2

> <InChI Key_QSARr>
WEERVPDNCOGWJF-UHFFFAOYSA-N

> <Salt_Solvent>


> <Salt_Solvent_ID>
0

> <MPID>
98136

> <LogBCF>
2.48

> <Tr_1_Tst_0>
1

$$$$
100206
  Mrv171c012241911322D          

  8  8  0  0  0  0            999 V2000
    0.7121   -3.2906    0.0000 Br  0  0  0  0  0  0  0  0  0  0  0  0
    0.7121   -2.4656    0.0000 C   0  0  0  0  0  0  0  0  0  0  0  0
    1.4265   -2.0531    0.0000 C   0  0  0  0  0  0  0  0  0  0  0  0
    1.4265   -1.2281    0.0000 C   0  0  0  0  0  0  0  0  0  0  0  0
    0.7121   -0.8156    0.0000 C   0  0  0  0  0  0  0  0  0  0  0  0
    0.7121    0.0094    0.0000 Br  0  0  0  0  0  0  0  0  0  0  0  0
   -0.0024   -1.2281    0.0000 C   0  0  0  0  0  0  0  0  0  0  0  0
   -0.0024   -2.0531    0.0000 C   0  0  0  0  0  0  0  0  0  0  0  0
  1  2  1  0  0  0  0
  3  2  1  0  0  0  0
  4  3  2  0  0  0  0
  5  4  1  0  0  0  0
  5  6  1  0  0  0  0
  7  5  2  0  0  0  0
  8  7  1  0  0  0  0
  2  8  2  0  0  0  0
M  END
> <ChemID>
100206

> <CAS>
106-37-6

> <Original_SMILES>
Brc1ccc(Br)cc1

> <preferred_name>
1,4-Dibromobenzene

> <dsstox_substance_id>
DTXSID4024012

> <dsstox_compound_id>
DTXCID504012

> <qc_level>
DSSTox_Low

> <Canonical_QSARr>
BrC1C=CC(Br)=CC=1

> <InChI_Code_QSARr>
InChI=1S/C6H4Br2/c7-5-1-2-6(8)4-3-5/h1-4H

> <InChI Key_QSARr>
SWJPEBQEEAHIGZ-UHFFFAOYSA-N

> <Salt_Solvent>


> <Salt_Solvent_ID>
0

> <MPID>
98137

> <LogBCF>
2.21

> <Tr_1_Tst_0>
0

$$$$
100207
  Mrv171c012241911322D          

  8  8  0  0  0  0            999 V2000
    0.7109   -2.4876    0.0000 C   0  0  0  0  0  0  0  0  0  0  0  0
    1.4254   -2.0751    0.0000 C   0  0  0  0  0  0  0  0  0  0  0  0
    1.4254   -1.2501    0.0000 C   0  0  0  0  0  0  0  0  0  0  0  0
    0.7109   -0.8376    0.0000 C   0  0  0  0  0  0  0  0  0  0  0  0
    0.7109   -0.0126    0.0000 Br  0  0  0  0  0  0  0  0  0  0  0  0
   -0.0036   -1.2501    0.0000 C   0  0  0  0  0  0  0  0  0  0  0  0
   -0.0036   -2.0751    0.0000 C   0  0  0  0  0  0  0  0  0  0  0  0
    0.7109   -3.3126    0.0000 O   0  0  0  0  0  0  0  0  0  0  0  0
  2  1  1  0  0  0  0
  3  2  2  0  0  0  0
  4  3  1  0  0  0  0
  4  5  1  0  0  0  0
  6  4  2  0  0  0  0
  7  6  1  0  0  0  0
  1  7  2  0  0  0  0
  1  8  1  0  0  0  0
M  END
> <ChemID>
100207

> <CAS>
106-41-2

> <Original_SMILES>
Oc1ccc(Br)cc1

> <preferred_name>
4-Bromophenol

> <dsstox_substance_id>
DTXSID3051543

> <dsstox_compound_id>
DTXCID4030095

> <qc_level>
DSSTox_High

> <Canonical_QSARr>
OC1=CC=C(Br)C=C1

> <InChI_Code_QSARr>
InChI=1S/C6H5BrO/c7-5-1-3-6(8)4-2-5/h1-4,8H

> <InChI Key_QSARr>
GZFGOTFRPZRKDS-UHFFFAOYSA-N

> <Salt_Solvent>


> <Salt_Solvent_ID>
0

> <MPID>
98138

> <LogBCF>
1.17

> <Tr_1_Tst_0>
1

$$$$
100208
  Mrv171c012241911322D          

  8  8  0  0  0  0            999 V2000
    1.6500   -2.3653    0.0000 C   0  0  0  0  0  0  0  0  0  0  0  0
    1.6500   -1.5403    0.0000 C   0  0  0  0  0  0  0  0  0  0  0  0
    2.3645   -1.1278    0.0000 C   0  0  0  0  0  0  0  0  0  0  0  0
    2.3645   -0.3028    0.0000 C   0  0  0  0  0  0  0  0  0  0  0  0
    1.6500    0.1097    0.0000 C   0  0  0  0  0  0  0  0  0  0  0  0
    1.6500    0.9347    0.0000 C   0  0  0  0  0  0  0  0  0  0  0  0
    0.9355   -0.3028    0.0000 C   0  0  0  0  0  0  0  0  0  0  0  0
    0.9355   -1.1278    0.0000 C   0  0  0  0  0  0  0  0  0  0  0  0
  1  2  1  0  0  0  0
  3  2  1  0  0  0  0
  4  3  2  0  0  0  0
  5  4  1  0  0  0  0
  5  6  1  0  0  0  0
  7  5  2  0  0  0  0
  8  7  1  0  0  0  0
  2  8  2  0  0  0  0
M  END
> <ChemID>
100208

> <CAS>
106-42-3

> <Original_SMILES>
Cc1ccc(C)cc1

> <preferred_name>
p-Xylene

> <dsstox_substance_id>
DTXSID2021868

> <dsstox_compound_id>
DTXCID701868

> <qc_level>
DSSTox_Low

> <Canonical_QSARr>
CC1C=CC(C)=CC=1

> <InChI_Code_QSARr>
InChI=1S/C8H10/c1-7-3-5-8(2)6-4-7/h3-6H,1-2H3

> <InChI Key_QSARr>
URLKBWYHVLBVBO-UHFFFAOYSA-N

> <Salt_Solvent>


> <Salt_Solvent_ID>
0

> <MPID>
98139

> <LogBCF>
1.17

> <Tr_1_Tst_0>
1

$$$$
100209
  Mrv171c012241911322D          

  8  8  0  0  0  0            999 V2000
    1.6500   -2.3653    0.0000 C   0  0  0  0  0  0  0  0  0  0  0  0
    1.6500   -1.5403    0.0000 C   0  0  0  0  0  0  0  0  0  0  0  0
    2.3645   -1.1278    0.0000 C   0  0  0  0  0  0  0  0  0  0  0  0
    2.3645   -0.3028    0.0000 C   0  0  0  0  0  0  0  0  0  0  0  0
    1.6500    0.1097    0.0000 C   0  0  0  0  0  0  0  0  0  0  0  0
    1.6500    0.9347    0.0000 Cl  0  0  0  0  0  0  0  0  0  0  0  0
    0.9355   -0.3028    0.0000 C   0  0  0  0  0  0  0  0  0  0  0  0
    0.9355   -1.1278    0.0000 C   0  0  0  0  0  0  0  0  0  0  0  0
  1  2  1  0  0  0  0
  3  2  1  0  0  0  0
  4  3  2  0  0  0  0
  5  4  1  0  0  0  0
  5  6  1  0  0  0  0
  7  5  2  0  0  0  0
  8  7  1  0  0  0  0
  2  8  2  0  0  0  0
M  END
> <ChemID>
100209

> <CAS>
106-43-4

> <Original_SMILES>
Cc1ccc(Cl)cc1

> <preferred_name>
4-Chlorotoluene

> <dsstox_substance_id>
DTXSID8024814

> <dsstox_compound_id>
DTXCID904814

> <qc_level>
DSSTox_Low

> <Canonical_QSARr>
CC1=CC=C(Cl)C=C1

> <InChI_Code_QSARr>
InChI=1S/C7H7Cl/c1-6-2-4-7(8)5-3-6/h2-5H,1H3

> <InChI Key_QSARr>
NPDACUSDTOMAMK-UHFFFAOYSA-N

> <Salt_Solvent>


> <Salt_Solvent_ID>
0

> <MPID>
98140

> <LogBCF>
1.76

> <Tr_1_Tst_0>
1

$$$$
100210
  Mrv171c012241911322D          

  8  8  0  0  0  0            999 V2000
    1.6500   -2.3653    0.0000 Cl  0  0  0  0  0  0  0  0  0  0  0  0
    1.6500   -1.5403    0.0000 C   0  0  0  0  0  0  0  0  0  0  0  0
    2.3645   -1.1278    0.0000 C   0  0  0  0  0  0  0  0  0  0  0  0
    2.3645   -0.3028    0.0000 C   0  0  0  0  0  0  0  0  0  0  0  0
    1.6500    0.1097    0.0000 C   0  0  0  0  0  0  0  0  0  0  0  0
    1.6500    0.9347    0.0000 Cl  0  0  0  0  0  0  0  0  0  0  0  0
    0.9355   -0.3028    0.0000 C   0  0  0  0  0  0  0  0  0  0  0  0
    0.9355   -1.1278    0.0000 C   0  0  0  0  0  0  0  0  0  0  0  0
  1  2  1  0  0  0  0
  3  2  1  0  0  0  0
  4  3  2  0  0  0  0
  5  4  1  0  0  0  0
  5  6  1  0  0  0  0
  7  5  2  0  0  0  0
  8  7  1  0  0  0  0
  2  8  2  0  0  0  0
M  END
> <ChemID>
100210

> <CAS>
106-46-7

> <Original_SMILES>
Clc1ccc(Cl)cc1

> <preferred_name>
1,4-Dichlorobenzene

> <dsstox_substance_id>
DTXSID1020431

> <dsstox_compound_id>
DTXCID30431

> <qc_level>
DSSTox_Low

> <Canonical_QSARr>
ClC1C=CC(Cl)=CC=1

> <InChI_Code_QSARr>
InChI=1S/C6H4Cl2/c7-5-1-2-6(8)4-3-5/h1-4H

> <InChI Key_QSARr>
OCJBOOLMMGQPQU-UHFFFAOYSA-N

> <Salt_Solvent>


> <Salt_Solvent_ID>
0

> <MPID>
98141

> <LogBCF>
2.62

> <Tr_1_Tst_0>
0

$$$$
100211
  Mrv171c012241911322D          

  8  8  0  0  0  0            999 V2000
    1.6500   -2.3653    0.0000 N   0  0  0  0  0  0  0  0  0  0  0  0
    1.6500   -1.5403    0.0000 C   0  0  0  0  0  0  0  0  0  0  0  0
    2.3645   -1.1278    0.0000 C   0  0  0  0  0  0  0  0  0  0  0  0
    2.3645   -0.3028    0.0000 C   0  0  0  0  0  0  0  0  0  0  0  0
    1.6500    0.1097    0.0000 C   0  0  0  0  0  0  0  0  0  0  0  0
    1.6500    0.9347    0.0000 Cl  0  0  0  0  0  0  0  0  0  0  0  0
    0.9355   -0.3028    0.0000 C   0  0  0  0  0  0  0  0  0  0  0  0
    0.9355   -1.1278    0.0000 C   0  0  0  0  0  0  0  0  0  0  0  0
  1  2  1  0  0  0  0
  3  2  1  0  0  0  0
  4  3  2  0  0  0  0
  5  4  1  0  0  0  0
  5  6  1  0  0  0  0
  7  5  2  0  0  0  0
  8  7  1  0  0  0  0
  2  8  2  0  0  0  0
M  END
> <ChemID>
100211

> <CAS>
106-47-8

> <Original_SMILES>
Nc1ccc(Cl)cc1

> <preferred_name>
4-Chloroaniline

> <dsstox_substance_id>
DTXSID9020295

> <dsstox_compound_id>
DTXCID50295

> <qc_level>
DSSTox_Low

> <Canonical_QSARr>
NC1=CC=C(Cl)C=C1

> <InChI_Code_QSARr>
InChI=1S/C6H6ClN/c7-5-1-3-6(8)4-2-5/h1-4H,8H2

> <InChI Key_QSARr>
QSNSCYSYFYORTR-UHFFFAOYSA-N

> <Salt_Solvent>


> <Salt_Solvent_ID>
0

> <MPID>
98142

> <LogBCF>
0.84

> <Tr_1_Tst_0>
1

$$$$
100212
  Mrv171c012241911322D          

  8  8  0  0  0  0            999 V2000
    1.6500   -2.3653    0.0000 O   0  0  0  0  0  0  0  0  0  0  0  0
    1.6500   -1.5403    0.0000 C   0  0  0  0  0  0  0  0  0  0  0  0
    2.3645   -1.1278    0.0000 C   0  0  0  0  0  0  0  0  0  0  0  0
    2.3645   -0.3028    0.0000 C   0  0  0  0  0  0  0  0  0  0  0  0
    1.6500    0.1097    0.0000 C   0  0  0  0  0  0  0  0  0  0  0  0
    1.6500    0.9347    0.0000 Cl  0  0  0  0  0  0  0  0  0  0  0  0
    0.9355   -0.3028    0.0000 C   0  0  0  0  0  0  0  0  0  0  0  0
    0.9355   -1.1278    0.0000 C   0  0  0  0  0  0  0  0  0  0  0  0
  1  2  1  0  0  0  0
  3  2  1  0  0  0  0
  4  3  2  0  0  0  0
  5  4  1  0  0  0  0
  5  6  1  0  0  0  0
  7  5  2  0  0  0  0
  8  7  1  0  0  0  0
  2  8  2  0  0  0  0
M  END
> <ChemID>
100212

> <CAS>
106-48-9

> <Original_SMILES>
Oc1ccc(Cl)cc1

> <preferred_name>
4-Chlorophenol

> <dsstox_substance_id>
DTXSID1021871

> <dsstox_compound_id>
DTXCID201871

> <qc_level>
DSSTox_Low

> <Canonical_QSARr>
OC1=CC=C(Cl)C=C1

> <InChI_Code_QSARr>
InChI=1S/C6H5ClO/c7-5-1-3-6(8)4-2-5/h1-4,8H

> <InChI Key_QSARr>
WXNZTHHGJRFXKQ-UHFFFAOYSA-N

> <Salt_Solvent>


> <Salt_Solvent_ID>
0

> <MPID>
98143

> <LogBCF>
1.48

> <Tr_1_Tst_0>
1

$$$$
100213
  Mrv171c012241911322D          

  4  3  0  0  0  0            999 V2000
    2.1020   -0.5628    0.0000 Br  0  0  0  0  0  0  0  0  0  0  0  0
    1.2770   -0.5628    0.0000 C   0  0  0  0  0  0  0  0  0  0  0  0
    0.8645    0.1517    0.0000 C   0  0  0  0  0  0  0  0  0  0  0  0
    0.0395    0.1517    0.0000 Br  0  0  0  0  0  0  0  0  0  0  0  0
  1  2  1  0  0  0  0
  2  3  1  0  0  0  0
  3  4  1  0  0  0  0
M  END
> <ChemID>
100213

> <CAS>
106-93-4

> <Original_SMILES>
BrCCBr

> <preferred_name>
1,2-Dibromoethane

> <dsstox_substance_id>
DTXSID3020415

> <dsstox_compound_id>
DTXCID10415

> <qc_level>
DSSTox_Low

> <Canonical_QSARr>
BrCCBr

> <InChI_Code_QSARr>
InChI=1S/C2H4Br2/c3-1-2-4/h1-2H2

> <InChI Key_QSARr>
PAAZPARNPHGIKF-UHFFFAOYSA-N

> <Salt_Solvent>


> <Salt_Solvent_ID>
0

> <MPID>
98144

> <LogBCF>
1.18

> <Tr_1_Tst_0>
1

$$$$
100214
  Mrv171c012241911322D          

  4  3  0  0  0  0            999 V2000
    2.1042   -0.5633    0.0000 C   0  0  0  0  0  0  0  0  0  0  0  0
    1.2792   -0.5633    0.0000 C   0  0  0  0  0  0  0  0  0  0  0  0
    0.8667    0.1512    0.0000 C   0  0  0  0  0  0  0  0  0  0  0  0
    0.0417    0.1512    0.0000 Cl  0  0  0  0  0  0  0  0  0  0  0  0
  1  2  2  0  0  0  0
  2  3  1  0  0  0  0
  3  4  1  0  0  0  0
M  END
> <ChemID>
100214

> <CAS>
107-05-1

> <Original_SMILES>
C=CCCl

> <preferred_name>
Allyl chloride

> <dsstox_substance_id>
DTXSID4039231

> <dsstox_compound_id>
DTXCID4045

> <qc_level>
DSSTox_Low

> <Canonical_QSARr>
C=CCCl

> <InChI_Code_QSARr>
InChI=1S/C3H5Cl/c1-2-3-4/h2H,1,3H2

> <InChI Key_QSARr>
OSDWBNJEKMUWAV-UHFFFAOYSA-N

> <Salt_Solvent>


> <Salt_Solvent_ID>
0

> <MPID>
98145

> <LogBCF>
0.7

> <Tr_1_Tst_0>
0

$$$$
100215
  Mrv171c012241911322D          

  8  7  0  0  0  0            999 V2000
    1.1734   -2.3214    0.0000 C   0  0  0  0  0  0  0  0  0  0  0  0
    1.1734   -1.4964    0.0000 C   0  0  0  0  0  0  0  0  0  0  0  0
    0.4589   -1.0839    0.0000 C   0  0  0  0  0  0  0  0  0  0  0  0
    1.8878   -1.0839    0.0000 C   0  0  0  0  0  0  0  0  0  0  0  0
    1.8878   -0.2589    0.0000 C   0  0  0  0  0  0  0  0  0  0  0  0
    1.8878    0.5661    0.0000 C   0  0  0  0  0  0  0  0  0  0  0  0
    2.7128   -0.2589    0.0000 C   0  0  0  0  0  0  0  0  0  0  0  0
    1.0628   -0.2589    0.0000 C   0  0  0  0  0  0  0  0  0  0  0  0
  1  2  2  0  0  0  0
  2  3  1  0  0  0  0
  2  4  1  0  0  0  0
  4  5  1  0  0  0  0
  5  6  1  0  0  0  0
  5  7  1  0  0  0  0
  5  8  1  0  0  0  0
M  END
> <ChemID>
100215

> <CAS>
107-39-1

> <Original_SMILES>
CC(=C)CC(C)(C)C

> <preferred_name>
2,4,4-Trimethyl-1-pentene

> <dsstox_substance_id>
DTXSID4026765

> <dsstox_compound_id>
DTXCID806765

> <qc_level>
DSSTox_Low

> <Canonical_QSARr>
CC(=C)CC(C)(C)C

> <InChI_Code_QSARr>
InChI=1S/C8H16/c1-7(2)6-8(3,4)5/h1,6H2,2-5H3

> <InChI Key_QSARr>
FXNDIJDIPNCZQJ-UHFFFAOYSA-N

> <Salt_Solvent>


> <Salt_Solvent_ID>
0

> <MPID>
98146

> <LogBCF>
2.78

> <Tr_1_Tst_0>
1

$$$$
100216
  Mrv171c012241911322D          

  8  8  0  0  0  0            999 V2000
    1.4296   -2.0662    0.0000 C   0  0  0  0  0  0  0  0  0  0  0  0
    2.1441   -2.4787    0.0000 Br  0  0  0  0  0  0  0  0  0  0  0  0
    1.4296   -1.2412    0.0000 C   0  0  0  0  0  0  0  0  0  0  0  0
    0.7151   -0.8287    0.0000 C   0  0  0  0  0  0  0  0  0  0  0  0
    0.7151   -0.0037    0.0000 Br  0  0  0  0  0  0  0  0  0  0  0  0
    0.0006   -1.2412    0.0000 C   0  0  0  0  0  0  0  0  0  0  0  0
    0.0006   -2.0662    0.0000 C   0  0  0  0  0  0  0  0  0  0  0  0
    0.7151   -2.4787    0.0000 C   0  0  0  0  0  0  0  0  0  0  0  0
  1  2  1  0  0  0  0
  3  1  1  0  0  0  0
  4  3  2  0  0  0  0
  4  5  1  0  0  0  0
  6  4  1  0  0  0  0
  7  6  2  0  0  0  0
  8  7  1  0  0  0  0
  1  8  2  0  0  0  0
M  END
> <ChemID>
100216

> <CAS>
108-36-1

> <Original_SMILES>
Brc1cc(Br)ccc1

> <preferred_name>
1,3-Dibromobenzene

> <dsstox_substance_id>
DTXSID7051555

> <dsstox_compound_id>
DTXCID1030107

> <qc_level>
DSSTox_High

> <Canonical_QSARr>
BrC1=CC(Br)=CC=C1

> <InChI_Code_QSARr>
InChI=1S/C6H4Br2/c7-5-2-1-3-6(8)4-5/h1-4H

> <InChI Key_QSARr>
JSRLURSZEMLAFO-UHFFFAOYSA-N

> <Salt_Solvent>


> <Salt_Solvent_ID>
0

> <MPID>
98147

> <LogBCF>
2.82

> <Tr_1_Tst_0>
1

$$$$
100217
  Mrv171c012241911322D          

  8  8  0  0  0  0            999 V2000
    1.7055   -3.2018    0.0000 C   0  0  0  0  0  0  0  0  0  0  0  0
    2.4199   -2.7893    0.0000 C   0  0  0  0  0  0  0  0  0  0  0  0
    2.4199   -1.9643    0.0000 C   0  0  0  0  0  0  0  0  0  0  0  0
    1.7055   -1.5518    0.0000 C   0  0  0  0  0  0  0  0  0  0  0  0
    1.7055   -0.7268    0.0000 C   0  0  0  0  0  0  0  0  0  0  0  0
    0.9910   -1.9643    0.0000 C   0  0  0  0  0  0  0  0  0  0  0  0
    0.9910   -2.7893    0.0000 C   0  0  0  0  0  0  0  0  0  0  0  0
    0.2765   -3.2018    0.0000 C   0  0  0  0  0  0  0  0  0  0  0  0
  2  1  2  0  0  0  0
  3  2  1  0  0  0  0
  4  3  2  0  0  0  0
  4  5  1  0  0  0  0
  6  4  1  0  0  0  0
  7  6  2  0  0  0  0
  1  7  1  0  0  0  0
  7  8  1  0  0  0  0
M  END
> <ChemID>
100217

> <CAS>
108-38-3

> <Original_SMILES>
Cc1cc(C)ccc1

> <preferred_name>
m-Xylene

> <dsstox_substance_id>
DTXSID6026298

> <dsstox_compound_id>
DTXCID501446

> <qc_level>
DSSTox_Low

> <Canonical_QSARr>
CC1=CC(C)=CC=C1

> <InChI_Code_QSARr>
InChI=1S/C8H10/c1-7-4-3-5-8(2)6-7/h3-6H,1-2H3

> <InChI Key_QSARr>
IVSZLXZYQVIEFR-UHFFFAOYSA-N

> <Salt_Solvent>


> <Salt_Solvent_ID>
0

> <MPID>
98148

> <LogBCF>
1.17

> <Tr_1_Tst_0>
1

$$$$
100218
  Mrv171c012241911322D          

  8  8  0  0  0  0            999 V2000
    2.6801   -1.9594    0.0000 Cl  0  0  0  0  0  0  0  0  0  0  0  0
    1.9657   -1.5469    0.0000 C   0  0  0  0  0  0  0  0  0  0  0  0
    1.9657   -0.7219    0.0000 C   0  0  0  0  0  0  0  0  0  0  0  0
    1.2512   -0.3094    0.0000 C   0  0  0  0  0  0  0  0  0  0  0  0
    1.2512    0.5156    0.0000 N   0  0  0  0  0  0  0  0  0  0  0  0
    0.5367   -0.7219    0.0000 C   0  0  0  0  0  0  0  0  0  0  0  0
    0.5367   -1.5469    0.0000 C   0  0  0  0  0  0  0  0  0  0  0  0
    1.2512   -1.9594    0.0000 C   0  0  0  0  0  0  0  0  0  0  0  0
  1  2  1  0  0  0  0
  3  2  1  0  0  0  0
  4  3  2  0  0  0  0
  4  5  1  0  0  0  0
  6  4  1  0  0  0  0
  7  6  2  0  0  0  0
  8  7  1  0  0  0  0
  2  8  2  0  0  0  0
M  END
> <ChemID>
100218

> <CAS>
108-42-9

> <Original_SMILES>
Nc1cc(Cl)ccc1

> <preferred_name>
3-Chloroaniline

> <dsstox_substance_id>
DTXSID0024761

> <dsstox_compound_id>
DTXCID004761

> <qc_level>
DSSTox_Low

> <Canonical_QSARr>
NC1=CC(Cl)=CC=C1

> <InChI_Code_QSARr>
InChI=1S/C6H6ClN/c7-5-2-1-3-6(8)4-5/h1-4H,8H2

> <InChI Key_QSARr>
PNPCRKVUWYDDST-UHFFFAOYSA-N

> <Salt_Solvent>


> <Salt_Solvent_ID>
0

> <MPID>
98149

> <LogBCF>
0.35

> <Tr_1_Tst_0>
0

$$$$
100219
  Mrv171c012241911322D          

  8  8  0  0  0  0            999 V2000
    2.6801   -1.9594    0.0000 Cl  0  0  0  0  0  0  0  0  0  0  0  0
    1.9657   -1.5469    0.0000 C   0  0  0  0  0  0  0  0  0  0  0  0
    1.9657   -0.7219    0.0000 C   0  0  0  0  0  0  0  0  0  0  0  0
    1.2512   -0.3094    0.0000 C   0  0  0  0  0  0  0  0  0  0  0  0
    1.2512    0.5156    0.0000 O   0  0  0  0  0  0  0  0  0  0  0  0
    0.5367   -0.7219    0.0000 C   0  0  0  0  0  0  0  0  0  0  0  0
    0.5367   -1.5469    0.0000 C   0  0  0  0  0  0  0  0  0  0  0  0
    1.2512   -1.9594    0.0000 C   0  0  0  0  0  0  0  0  0  0  0  0
  1  2  1  0  0  0  0
  3  2  1  0  0  0  0
  4  3  2  0  0  0  0
  4  5  1  0  0  0  0
  6  4  1  0  0  0  0
  7  6  2  0  0  0  0
  8  7  1  0  0  0  0
  2  8  2  0  0  0  0
M  END
> <ChemID>
100219

> <CAS>
108-43-0

> <Original_SMILES>
Oc1cc(Cl)ccc1

> <preferred_name>
3-Chlorophenol

> <dsstox_substance_id>
DTXSID4024800

> <dsstox_compound_id>
DTXCID004800

> <qc_level>
DSSTox_Low

> <Canonical_QSARr>
OC1=CC(Cl)=CC=C1

> <InChI_Code_QSARr>
InChI=1S/C6H5ClO/c7-5-2-1-3-6(8)4-5/h1-4,8H

> <InChI Key_QSARr>
HORNXRXVQWOLPJ-UHFFFAOYSA-N

> <Salt_Solvent>


> <Salt_Solvent_ID>
0

> <MPID>
98150

> <LogBCF>
1.2

> <Tr_1_Tst_0>
1

$$$$
100220
  Mrv171c012241911322D          

  8  8  0  0  0  0            999 V2000
    0.1795   -1.9594    0.0000 N   0  0  0  0  0  0  0  0  0  0  0  0
    0.8940   -1.5469    0.0000 C   0  0  0  0  0  0  0  0  0  0  0  0
    1.6084   -1.9594    0.0000 C   0  0  0  0  0  0  0  0  0  0  0  0
    2.3229   -1.5469    0.0000 C   0  0  0  0  0  0  0  0  0  0  0  0
    2.3229   -0.7219    0.0000 C   0  0  0  0  0  0  0  0  0  0  0  0
    1.6084   -0.3094    0.0000 C   0  0  0  0  0  0  0  0  0  0  0  0
    1.6084    0.5156    0.0000 N   0  0  0  0  0  0  0  0  0  0  0  0
    0.8940   -0.7219    0.0000 C   0  0  0  0  0  0  0  0  0  0  0  0
  1  2  1  0  0  0  0
  3  2  1  0  0  0  0
  4  3  2  0  0  0  0
  5  4  1  0  0  0  0
  6  5  2  0  0  0  0
  6  7  1  0  0  0  0
  8  6  1  0  0  0  0
  2  8  2  0  0  0  0
M  END
> <ChemID>
100220

> <CAS>
108-45-2

> <Original_SMILES>
Nc1cc(N)ccc1

> <preferred_name>
1,3-Benzenediamine

> <dsstox_substance_id>
DTXSID4021137

> <dsstox_compound_id>
DTXCID001137

> <qc_level>
DSSTox_Low

> <Canonical_QSARr>
NC1=CC(N)=CC=C1

> <InChI_Code_QSARr>
InChI=1S/C6H8N2/c7-5-2-1-3-6(8)4-5/h1-4H,7-8H2

> <InChI Key_QSARr>
WZCQRUWWHSTZEM-UHFFFAOYSA-N

> <Salt_Solvent>


> <Salt_Solvent_ID>
0

> <MPID>
98151

> <LogBCF>
0.81

> <Tr_1_Tst_0>
1

$$$$
100221
  Mrv171c012241911322D          

 10 10  0  0  0  0            999 V2000
    0.2143   -0.5775    0.0000 C   0  0  0  0  0  0  0  0  0  0  0  0
    0.9288   -0.9900    0.0000 C   0  0  0  0  0  0  0  0  0  0  0  0
    0.9288   -1.8150    0.0000 C   0  0  0  0  0  0  0  0  0  0  0  0
    0.2143    0.2475    0.0000 C   0  0  0  0  0  0  0  0  0  0  0  0
   -0.5001    0.6600    0.0000 C   0  0  0  0  0  0  0  0  0  0  0  0
   -0.5001    1.4850    0.0000 C   0  0  0  0  0  0  0  0  0  0  0  0
   -1.2146    1.8975    0.0000 C   0  0  0  0  0  0  0  0  0  0  0  0
   -1.2146    0.2475    0.0000 C   0  0  0  0  0  0  0  0  0  0  0  0
   -1.2146   -0.5775    0.0000 C   0  0  0  0  0  0  0  0  0  0  0  0
   -0.5001   -0.9900    0.0000 C   0  0  0  0  0  0  0  0  0  0  0  0
  1  2  1  0  0  0  0
  2  3  2  0  0  0  0
  4  1  1  0  0  0  0
  5  4  2  0  0  0  0
  5  6  1  0  0  0  0
  6  7  2  0  0  0  0
  8  5  1  0  0  0  0
  9  8  2  0  0  0  0
 10  9  1  0  0  0  0
  1 10  2  0  0  0  0
M  END
> <ChemID>
100221

> <CAS>
108-57-6

> <Original_SMILES>
C=Cc1cc(ccc1)C=C

> <preferred_name>
1,3-Diethenylbenzene

> <dsstox_substance_id>
DTXSID30110020

> <dsstox_compound_id>
DTXCID108939

> <qc_level>
DSSTox_High

> <Canonical_QSARr>
C=CC1C=C(C=CC=1)C=C

> <InChI_Code_QSARr>
InChI=1S/C10H10/c1-3-9-6-5-7-10(4-2)8-9/h3-8H,1-2H2

> <InChI Key_QSARr>
PRJNEUBECVAVAG-UHFFFAOYSA-N

> <Salt_Solvent>


> <Salt_Solvent_ID>
0

> <MPID>
98152

> <LogBCF>
2.54

> <Tr_1_Tst_0>
1

$$$$
100222
  Mrv171c012241911322D          

  9  8  0  0  0  0            999 V2000
    0.7124   -1.2383    0.0000 C   0  0  0  0  0  0  0  0  0  0  0  0
   -0.0020   -0.8258    0.0000 Cl  0  0  0  0  0  0  0  0  0  0  0  0
    1.4269   -0.8258    0.0000 C   0  0  0  0  0  0  0  0  0  0  0  0
    2.1414   -1.2383    0.0000 O   0  0  0  0  0  0  0  0  0  0  0  0
    2.8558   -0.8258    0.0000 C   0  0  0  0  0  0  0  0  0  0  0  0
    2.8558   -0.0008    0.0000 C   0  0  0  0  0  0  0  0  0  0  0  0
    3.5703   -1.2383    0.0000 C   0  0  0  0  0  0  0  0  0  0  0  0
    4.2848   -0.8258    0.0000 Cl  0  0  0  0  0  0  0  0  0  0  0  0
    1.4269   -0.0008    0.0000 C   0  0  0  0  0  0  0  0  0  0  0  0
  1  2  1  0  0  0  0
  1  3  1  0  0  0  0
  3  4  1  0  0  0  0
  4  5  1  0  0  0  0
  5  6  1  0  0  0  0
  5  7  1  0  0  0  0
  7  8  1  0  0  0  0
  3  9  1  0  0  0  0
M  END
> <ChemID>
100222

> <CAS>
108-60-1

> <Original_SMILES>
CC(CCl)OC(C)CCl

> <preferred_name>
bis(2-Chloro-1-methylethyl) ether

> <dsstox_substance_id>
DTXSID4020167

> <dsstox_compound_id>
DTXCID40167

> <qc_level>
DSSTox_High

> <Canonical_QSARr>
CC(CCl)OC(C)CCl

> <InChI_Code_QSARr>
InChI=1S/C6H12Cl2O/c1-5(3-7)9-6(2)4-8/h5-6H,3-4H2,1-2H3

> <InChI Key_QSARr>
QCFYJCYNJLBDRT-UHFFFAOYSA-N

> <Salt_Solvent>


> <Salt_Solvent_ID>
0

> <MPID>
98153

> <LogBCF>
1.08

> <Tr_1_Tst_0>
0

$$$$
100223
  Mrv171c012241911322D          

  9  9  0  0  0  0            999 V2000
    2.1349   -2.0567    0.0000 C   0  0  0  0  0  0  0  0  0  0  0  0
    2.8494   -2.4692    0.0000 C   0  0  0  0  0  0  0  0  0  0  0  0
    2.1349   -1.2317    0.0000 C   0  0  0  0  0  0  0  0  0  0  0  0
    1.4204   -0.8192    0.0000 C   0  0  0  0  0  0  0  0  0  0  0  0
    1.4204    0.0058    0.0000 C   0  0  0  0  0  0  0  0  0  0  0  0
    0.7060   -1.2317    0.0000 C   0  0  0  0  0  0  0  0  0  0  0  0
    0.7060   -2.0567    0.0000 C   0  0  0  0  0  0  0  0  0  0  0  0
   -0.0085   -2.4692    0.0000 C   0  0  0  0  0  0  0  0  0  0  0  0
    1.4204   -2.4692    0.0000 C   0  0  0  0  0  0  0  0  0  0  0  0
  1  2  1  0  0  0  0
  3  1  1  0  0  0  0
  4  3  2  0  0  0  0
  4  5  1  0  0  0  0
  6  4  1  0  0  0  0
  7  6  2  0  0  0  0
  7  8  1  0  0  0  0
  9  7  1  0  0  0  0
  1  9  2  0  0  0  0
M  END
> <ChemID>
100223

> <CAS>
108-67-8

> <Original_SMILES>
Cc1cc(C)cc(C)c1

> <preferred_name>
1,3,5-Trimethylbenzene

> <dsstox_substance_id>
DTXSID6026797

> <dsstox_compound_id>
DTXCID506797

> <qc_level>
DSSTox_Low

> <Canonical_QSARr>
CC1C=C(C)C=C(C)C=1

> <InChI_Code_QSARr>
InChI=1S/C9H12/c1-7-4-8(2)6-9(3)5-7/h4-6H,1-3H3

> <InChI Key_QSARr>
AUHZEENZYGFFBQ-UHFFFAOYSA-N

> <Salt_Solvent>


> <Salt_Solvent_ID>
0

> <MPID>
98154

> <LogBCF>
2.27

> <Tr_1_Tst_0>
1

$$$$
100224
  Mrv171c012241911322D          

  9  9  0  0  0  0            999 V2000
    2.3656   -1.8422    0.0000 C   0  0  0  0  0  0  0  0  0  0  0  0
    3.0801   -2.2547    0.0000 Cl  0  0  0  0  0  0  0  0  0  0  0  0
    2.3656   -1.0172    0.0000 C   0  0  0  0  0  0  0  0  0  0  0  0
    1.6512   -0.6047    0.0000 C   0  0  0  0  0  0  0  0  0  0  0  0
    1.6512    0.2203    0.0000 Cl  0  0  0  0  0  0  0  0  0  0  0  0
    0.9367   -1.0172    0.0000 C   0  0  0  0  0  0  0  0  0  0  0  0
    0.9367   -1.8422    0.0000 C   0  0  0  0  0  0  0  0  0  0  0  0
    0.2222   -2.2547    0.0000 Cl  0  0  0  0  0  0  0  0  0  0  0  0
    1.6512   -2.2547    0.0000 C   0  0  0  0  0  0  0  0  0  0  0  0
  1  2  1  0  0  0  0
  3  1  1  0  0  0  0
  4  3  2  0  0  0  0
  4  5  1  0  0  0  0
  6  4  1  0  0  0  0
  7  6  2  0  0  0  0
  7  8  1  0  0  0  0
  9  7  1  0  0  0  0
  1  9  2  0  0  0  0
M  END
> <ChemID>
100224

> <CAS>
108-70-3

> <Original_SMILES>
Clc1cc(Cl)cc(Cl)c1

> <preferred_name>
1,3,5-Trichlorobenzene

> <dsstox_substance_id>
DTXSID8026195

> <dsstox_compound_id>
DTXCID506195

> <qc_level>
DSSTox_High

> <Canonical_QSARr>
ClC1C=C(Cl)C=C(Cl)C=1

> <InChI_Code_QSARr>
InChI=1S/C6H3Cl3/c7-4-1-5(8)3-6(9)2-4/h1-3H

> <InChI Key_QSARr>
XKEFYDZQGKAQCN-UHFFFAOYSA-N

> <Salt_Solvent>


> <Salt_Solvent_ID>
0

> <MPID>
98155

> <LogBCF>
2.97

> <Tr_1_Tst_0>
1

$$$$
100225
  Mrv171c012241911322D          

  9  9  0  0  0  0            999 V2000
    3.0801   -2.2547    0.0000 N   0  0  0  0  0  0  0  0  0  0  0  0
    2.3656   -1.8422    0.0000 C   0  0  0  0  0  0  0  0  0  0  0  0
    2.3656   -1.0172    0.0000 N   0  0  0  0  0  0  0  0  0  0  0  0
    1.6512   -0.6047    0.0000 C   0  0  0  0  0  0  0  0  0  0  0  0
    1.6512    0.2203    0.0000 N   0  0  0  0  0  0  0  0  0  0  0  0
    0.9367   -1.0172    0.0000 N   0  0  0  0  0  0  0  0  0  0  0  0
    0.9367   -1.8422    0.0000 C   0  0  0  0  0  0  0  0  0  0  0  0
    0.2222   -2.2547    0.0000 N   0  0  0  0  0  0  0  0  0  0  0  0
    1.6512   -2.2547    0.0000 N   0  0  0  0  0  0  0  0  0  0  0  0
  1  2  1  0  0  0  0
  3  2  1  0  0  0  0
  4  3  2  0  0  0  0
  4  5  1  0  0  0  0
  6  4  1  0  0  0  0
  7  6  2  0  0  0  0
  7  8  1  0  0  0  0
  9  7  1  0  0  0  0
  2  9  2  0  0  0  0
M  END
> <ChemID>
100225

> <CAS>
108-78-1

> <Original_SMILES>
Nc1[n]c(N)[n]c(N)[n]1

> <preferred_name>
Melamine

> <dsstox_substance_id>
DTXSID6020802

> <dsstox_compound_id>
DTXCID40802

> <qc_level>
DSSTox_High

> <Canonical_QSARr>
NC1N=C(N)N=C(N)N=1

> <InChI_Code_QSARr>
InChI=1S/C3H6N6/c4-1-7-2(5)9-3(6)8-1/h(H6,4,5,6,7,8,9)

> <InChI Key_QSARr>
JDSHMPZPIAZGSV-UHFFFAOYSA-N

> <Salt_Solvent>


> <Salt_Solvent_ID>
0

> <MPID>
98156

> <LogBCF>
0.58

> <Tr_1_Tst_0>
1

$$$$
100226
  Mrv171c012241911322D          

  9  9  0  0  0  0            999 V2000
    2.3656   -1.0172    0.0000 N   0  0  0  0  0  0  0  0  0  0  0  0
    1.6512   -0.6047    0.0000 C   0  0  0  0  0  0  0  0  0  0  0  0
    1.6512    0.2203    0.0000 O   0  0  0  0  0  0  0  0  0  0  0  0
    0.9367   -1.0172    0.0000 N   0  0  0  0  0  0  0  0  0  0  0  0
    0.9367   -1.8422    0.0000 C   0  0  0  0  0  0  0  0  0  0  0  0
    0.2222   -2.2547    0.0000 O   0  0  0  0  0  0  0  0  0  0  0  0
    1.6512   -2.2547    0.0000 N   0  0  0  0  0  0  0  0  0  0  0  0
    2.3656   -1.8422    0.0000 C   0  0  0  0  0  0  0  0  0  0  0  0
    3.0801   -2.2547    0.0000 O   0  0  0  0  0  0  0  0  0  0  0  0
  2  1  1  0  0  0  0
  2  3  1  0  0  0  0
  4  2  2  0  0  0  0
  5  4  1  0  0  0  0
  5  6  1  0  0  0  0
  7  5  2  0  0  0  0
  8  7  1  0  0  0  0
  1  8  2  0  0  0  0
  8  9  1  0  0  0  0
M  END
> <ChemID>
100226

> <CAS>
108-80-5

> <Original_SMILES>
Oc1[n]c(O)[n]c(O)[n]1

> <preferred_name>
Cyanuric acid

> <dsstox_substance_id>
DTXSID7024873

> <dsstox_compound_id>
DTXCID304873

> <qc_level>
DSSTox_Low

> <Canonical_QSARr>
OC1N=C(O)N=C(O)N=1

> <InChI_Code_QSARr>
InChI=1S/C3H3N3O3/c7-1-4-2(8)6-3(9)5-1/h(H3,4,5,6,7,8,9)

> <InChI Key_QSARr>
ZFSLODLOARCGLH-UHFFFAOYSA-N

> <Salt_Solvent>


> <Salt_Solvent_ID>
0

> <MPID>
98157

> <LogBCF>
-0.3

> <Tr_1_Tst_0>
0

$$$$
100227
  Mrv171c012241911322D          

  7  7  0  0  0  0            999 V2000
    1.4153   -0.1250    0.0000 C   0  0  0  0  0  0  0  0  0  0  0  0
    1.4153    0.7000    0.0000 Br  0  0  0  0  0  0  0  0  0  0  0  0
    0.7009   -0.5375    0.0000 C   0  0  0  0  0  0  0  0  0  0  0  0
    0.7009   -1.3625    0.0000 C   0  0  0  0  0  0  0  0  0  0  0  0
    1.4153   -1.7750    0.0000 C   0  0  0  0  0  0  0  0  0  0  0  0
    2.1298   -1.3625    0.0000 C   0  0  0  0  0  0  0  0  0  0  0  0
    2.1298   -0.5375    0.0000 C   0  0  0  0  0  0  0  0  0  0  0  0
  1  2  1  0  0  0  0
  3  1  1  0  0  0  0
  4  3  2  0  0  0  0
  5  4  1  0  0  0  0
  6  5  2  0  0  0  0
  7  6  1  0  0  0  0
  1  7  2  0  0  0  0
M  END
> <ChemID>
100227

> <CAS>
108-86-1

> <Original_SMILES>
Brc1ccccc1

> <preferred_name>
Bromobenzene

> <dsstox_substance_id>
DTXSID5024637

> <dsstox_compound_id>
DTXCID304637

> <qc_level>
DSSTox_Low

> <Canonical_QSARr>
BrC1C=CC=CC=1

> <InChI_Code_QSARr>
InChI=1S/C6H5Br/c7-6-4-2-1-3-5-6/h1-5H

> <InChI Key_QSARr>
QARVLSVVCXYDNA-UHFFFAOYSA-N

> <Salt_Solvent>


> <Salt_Solvent_ID>
0

> <MPID>
98158

> <LogBCF>
1.36

> <Tr_1_Tst_0>
1

$$$$
100228
  Mrv171c012241911322D          

  7  7  0  0  0  0            999 V2000
    1.4305   -1.2414    0.0000 C   0  0  0  0  0  0  0  0  0  0  0  0
    0.7160   -0.8289    0.0000 C   0  0  0  0  0  0  0  0  0  0  0  0
    0.7160   -0.0039    0.0000 C   0  0  0  0  0  0  0  0  0  0  0  0
    0.0015   -1.2414    0.0000 C   0  0  0  0  0  0  0  0  0  0  0  0
    0.0015   -2.0664    0.0000 C   0  0  0  0  0  0  0  0  0  0  0  0
    0.7160   -2.4789    0.0000 C   0  0  0  0  0  0  0  0  0  0  0  0
    1.4305   -2.0664    0.0000 C   0  0  0  0  0  0  0  0  0  0  0  0
  2  1  1  0  0  0  0
  2  3  1  0  0  0  0
  4  2  1  0  0  0  0
  5  4  1  0  0  0  0
  6  5  1  0  0  0  0
  7  6  1  0  0  0  0
  1  7  1  0  0  0  0
M  END
> <ChemID>
100228

> <CAS>
108-87-2

> <Original_SMILES>
CC1CCCCC1

> <preferred_name>
Methylcyclohexane

> <dsstox_substance_id>
DTXSID0047749

> <dsstox_compound_id>
DTXCID4027733

> <qc_level>
DSSTox_Low

> <Canonical_QSARr>
CC1CCCCC1

> <InChI_Code_QSARr>
InChI=1S/C7H14/c1-7-5-3-2-4-6-7/h7H,2-6H2,1H3

> <InChI Key_QSARr>
UAEPNZWRGJTJPN-UHFFFAOYSA-N

> <Salt_Solvent>


> <Salt_Solvent_ID>
0

> <MPID>
98159

> <LogBCF>
2.27

> <Tr_1_Tst_0>
1

$$$$
100229
  Mrv171c012241911322D          

  7  7  0  0  0  0            999 V2000
    1.4153    0.7000    0.0000 C   0  0  0  0  0  0  0  0  0  0  0  0
    1.4153   -0.1250    0.0000 C   0  0  0  0  0  0  0  0  0  0  0  0
    0.7009   -0.5375    0.0000 C   0  0  0  0  0  0  0  0  0  0  0  0
    0.7009   -1.3625    0.0000 C   0  0  0  0  0  0  0  0  0  0  0  0
    1.4153   -1.7750    0.0000 C   0  0  0  0  0  0  0  0  0  0  0  0
    2.1298   -1.3625    0.0000 C   0  0  0  0  0  0  0  0  0  0  0  0
    2.1298   -0.5375    0.0000 C   0  0  0  0  0  0  0  0  0  0  0  0
  1  2  1  0  0  0  0
  3  2  1  0  0  0  0
  4  3  2  0  0  0  0
  5  4  1  0  0  0  0
  6  5  2  0  0  0  0
  7  6  1  0  0  0  0
  2  7  2  0  0  0  0
M  END
> <ChemID>
100229

> <CAS>
108-88-3

> <Original_SMILES>
Cc1ccccc1

> <preferred_name>
Toluene

> <dsstox_substance_id>
DTXSID7021360

> <dsstox_compound_id>
DTXCID501360

> <qc_level>
DSSTox_Low

> <Canonical_QSARr>
CC1C=CC=CC=1

> <InChI_Code_QSARr>
InChI=1S/C7H8/c1-7-5-3-2-4-6-7/h2-6H,1H3

> <InChI Key_QSARr>
YXFVVABEGXRONW-UHFFFAOYSA-N

> <Salt_Solvent>


> <Salt_Solvent_ID>
0

> <MPID>
98160

> <LogBCF>
0.92

> <Tr_1_Tst_0>
1

$$$$
100230
  Mrv171c012241911322D          

  7  7  0  0  0  0            999 V2000
    1.4153    0.7000    0.0000 Cl  0  0  0  0  0  0  0  0  0  0  0  0
    1.4153   -0.1250    0.0000 C   0  0  0  0  0  0  0  0  0  0  0  0
    0.7009   -0.5375    0.0000 C   0  0  0  0  0  0  0  0  0  0  0  0
    0.7009   -1.3625    0.0000 C   0  0  0  0  0  0  0  0  0  0  0  0
    1.4153   -1.7750    0.0000 C   0  0  0  0  0  0  0  0  0  0  0  0
    2.1298   -1.3625    0.0000 C   0  0  0  0  0  0  0  0  0  0  0  0
    2.1298   -0.5375    0.0000 C   0  0  0  0  0  0  0  0  0  0  0  0
  1  2  1  0  0  0  0
  3  2  1  0  0  0  0
  4  3  2  0  0  0  0
  5  4  1  0  0  0  0
  6  5  2  0  0  0  0
  7  6  1  0  0  0  0
  2  7  2  0  0  0  0
M  END
> <ChemID>
100230

> <CAS>
108-90-7

> <Original_SMILES>
Clc1ccccc1

> <preferred_name>
Chlorobenzene

> <dsstox_substance_id>
DTXSID4020298

> <dsstox_compound_id>
DTXCID40298

> <qc_level>
DSSTox_Low

> <Canonical_QSARr>
ClC1C=CC=CC=1

> <InChI_Code_QSARr>
InChI=1S/C6H5Cl/c7-6-4-2-1-3-5-6/h1-5H

> <InChI Key_QSARr>
MVPPADPHJFYWMZ-UHFFFAOYSA-N

> <Salt_Solvent>


> <Salt_Solvent_ID>
0

> <MPID>
98161

> <LogBCF>
1.25

> <Tr_1_Tst_0>
0

$$$$
100231
  Mrv171c012241911322D          

  7  7  0  0  0  0            999 V2000
    1.4153    0.7000    0.0000 O   0  0  0  0  0  0  0  0  0  0  0  0
    1.4153   -0.1250    0.0000 C   0  0  0  0  0  0  0  0  0  0  0  0
    0.7009   -0.5375    0.0000 C   0  0  0  0  0  0  0  0  0  0  0  0
    0.7009   -1.3625    0.0000 C   0  0  0  0  0  0  0  0  0  0  0  0
    1.4153   -1.7750    0.0000 C   0  0  0  0  0  0  0  0  0  0  0  0
    2.1298   -1.3625    0.0000 C   0  0  0  0  0  0  0  0  0  0  0  0
    2.1298   -0.5375    0.0000 C   0  0  0  0  0  0  0  0  0  0  0  0
  1  2  1  0  0  0  0
  3  2  1  0  0  0  0
  4  3  2  0  0  0  0
  5  4  1  0  0  0  0
  6  5  2  0  0  0  0
  7  6  1  0  0  0  0
  2  7  2  0  0  0  0
M  END
> <ChemID>
100231

> <CAS>
108-95-2

> <Original_SMILES>
Oc1ccccc1

> <preferred_name>
Phenol

> <dsstox_substance_id>
DTXSID5021124

> <dsstox_compound_id>
DTXCID501124

> <qc_level>
DSSTox_Low

> <Canonical_QSARr>
OC1C=CC=CC=1

> <InChI_Code_QSARr>
InChI=1S/C6H6O/c7-6-4-2-1-3-5-6/h1-5,7H

> <InChI Key_QSARr>
ISWSIDIOOBJBQZ-UHFFFAOYSA-N

> <Salt_Solvent>


> <Salt_Solvent_ID>
0

> <MPID>
98162

> <LogBCF>
1.24

> <Tr_1_Tst_0>
1

$$$$
100232
  Mrv171c012241911322D          

  7  7  0  0  0  0            999 V2000
    0.7009   -0.5375    0.0000 N   0  0  0  0  0  0  0  0  0  0  0  0
    0.7009   -1.3625    0.0000 C   0  0  0  0  0  0  0  0  0  0  0  0
    1.4153   -1.7750    0.0000 C   0  0  0  0  0  0  0  0  0  0  0  0
    2.1298   -1.3625    0.0000 C   0  0  0  0  0  0  0  0  0  0  0  0
    2.1298   -0.5375    0.0000 C   0  0  0  0  0  0  0  0  0  0  0  0
    1.4153   -0.1250    0.0000 C   0  0  0  0  0  0  0  0  0  0  0  0
    1.4153    0.7000    0.0000 Cl  0  0  0  0  0  0  0  0  0  0  0  0
  2  1  1  0  0  0  0
  3  2  2  0  0  0  0
  4  3  1  0  0  0  0
  5  4  2  0  0  0  0
  6  5  1  0  0  0  0
  1  6  2  0  0  0  0
  6  7  1  0  0  0  0
M  END
> <ChemID>
100232

> <CAS>
109-09-1

> <Original_SMILES>
Clc1cccc[n]1

> <preferred_name>
2-Chloropyridine

> <dsstox_substance_id>
DTXSID8024810

> <dsstox_compound_id>
DTXCID304810

> <qc_level>
DSSTox_Low

> <Canonical_QSARr>
ClC1C=CC=CN=1

> <InChI_Code_QSARr>
InChI=1S/C5H4ClN/c6-5-3-1-2-4-7-5/h1-4H

> <InChI Key_QSARr>
OKDGRDCXVWSXDC-UHFFFAOYSA-N

> <Salt_Solvent>


> <Salt_Solvent_ID>
0

> <MPID>
98163

> <LogBCF>
1.28

> <Tr_1_Tst_0>
1

$$$$
100233
  Mrv171c012241911322D          

  5  4  0  0  0  0            999 V2000
    2.5848   -1.1044    0.0000 C   0  0  0  0  0  0  0  0  0  0  0  0
    2.1723   -0.3899    0.0000 C   0  0  0  0  0  0  0  0  0  0  0  0
    1.3473   -0.3899    0.0000 C   0  0  0  0  0  0  0  0  0  0  0  0
    0.9348    0.3245    0.0000 C   0  0  0  0  0  0  0  0  0  0  0  0
    0.1098    0.3245    0.0000 Cl  0  0  0  0  0  0  0  0  0  0  0  0
  1  2  1  0  0  0  0
  2  3  1  0  0  0  0
  3  4  1  0  0  0  0
  4  5  1  0  0  0  0
M  END
> <ChemID>
100233

> <CAS>
109-69-3

> <Original_SMILES>
CCCCCl

> <preferred_name>
1-Chlorobutane

> <dsstox_substance_id>
DTXSID8020206

> <dsstox_compound_id>
DTXCID00206

> <qc_level>
DSSTox_Low

> <Canonical_QSARr>
CCCCCl

> <InChI_Code_QSARr>
InChI=1S/C4H9Cl/c1-2-3-4-5/h2-4H2,1H3

> <InChI Key_QSARr>
VFWCMGCRMGJXDK-UHFFFAOYSA-N

> <Salt_Solvent>


> <Salt_Solvent_ID>
0

> <MPID>
98164

> <LogBCF>
1.23

> <Tr_1_Tst_0>
1

$$$$
100234
  Mrv171c012241911322D          

  5  5  0  0  0  0            999 V2000
    1.3347   -0.3508    0.0000 C   0  0  0  0  0  0  0  0  0  0  0  0
    0.6672    0.1341    0.0000 C   0  0  0  0  0  0  0  0  0  0  0  0
   -0.0002   -0.3508    0.0000 C   0  0  0  0  0  0  0  0  0  0  0  0
    0.2547   -1.1354    0.0000 O   0  0  0  0  0  0  0  0  0  0  0  0
    1.0797   -1.1354    0.0000 C   0  0  0  0  0  0  0  0  0  0  0  0
  2  1  1  0  0  0  0
  3  2  2  0  0  0  0
  4  3  1  0  0  0  0
  5  4  1  0  0  0  0
  1  5  2  0  0  0  0
M  END
> <ChemID>
100234

> <CAS>
110-00-9

> <Original_SMILES>
c1ccco1

> <preferred_name>
Furan

> <dsstox_substance_id>
DTXSID6020646

> <dsstox_compound_id>
DTXCID20646

> <qc_level>
DSSTox_Low

> <Canonical_QSARr>
C1=CC=CO1

> <InChI_Code_QSARr>
InChI=1S/C4H4O/c1-2-4-5-3-1/h1-4H

> <InChI Key_QSARr>
YLQBMQCUIZJEEH-UHFFFAOYSA-N

> <Salt_Solvent>


> <Salt_Solvent_ID>
0

> <MPID>
98165

> <LogBCF>
0.7

> <Tr_1_Tst_0>
0

$$$$
100235
  Mrv171c012241911322D          

  5  5  0  0  0  0            999 V2000
    1.3347   -0.3508    0.0000 C   0  0  0  0  0  0  0  0  0  0  0  0
    0.6672    0.1341    0.0000 C   0  0  0  0  0  0  0  0  0  0  0  0
   -0.0002   -0.3508    0.0000 C   0  0  0  0  0  0  0  0  0  0  0  0
    0.2547   -1.1354    0.0000 S   0  0  0  0  0  0  0  0  0  0  0  0
    1.0797   -1.1354    0.0000 C   0  0  0  0  0  0  0  0  0  0  0  0
  2  1  1  0  0  0  0
  3  2  2  0  0  0  0
  4  3  1  0  0  0  0
  5  4  1  0  0  0  0
  1  5  2  0  0  0  0
M  END
> <ChemID>
100235

> <CAS>
110-02-1

> <Original_SMILES>
c1ccc[s]1

> <preferred_name>
Thiophene

> <dsstox_substance_id>
DTXSID8026145

> <dsstox_compound_id>
DTXCID006145

> <qc_level>
DSSTox_Low

> <Canonical_QSARr>
C1=CC=CS1

> <InChI_Code_QSARr>
InChI=1S/C4H4S/c1-2-4-5-3-1/h1-4H

> <InChI Key_QSARr>
YTPLMLYBLZKORZ-UHFFFAOYSA-N

> <Salt_Solvent>


> <Salt_Solvent_ID>
0

> <MPID>
98166

> <LogBCF>
0.95

> <Tr_1_Tst_0>
1

$$$$
100236
  Mrv171c012241911322D          

  6  6  0  0  0  0            999 V2000
    1.4289   -0.4125    0.0000 C   0  0  0  0  0  0  0  0  0  0  0  0
    0.7145    0.0000    0.0000 C   0  0  0  0  0  0  0  0  0  0  0  0
    0.0000   -0.4125    0.0000 C   0  0  0  0  0  0  0  0  0  0  0  0
    0.0000   -1.2375    0.0000 C   0  0  0  0  0  0  0  0  0  0  0  0
    0.7145   -1.6500    0.0000 C   0  0  0  0  0  0  0  0  0  0  0  0
    1.4289   -1.2375    0.0000 C   0  0  0  0  0  0  0  0  0  0  0  0
  2  1  1  0  0  0  0
  3  2  1  0  0  0  0
  4  3  1  0  0  0  0
  5  4  1  0  0  0  0
  6  5  1  0  0  0  0
  1  6  1  0  0  0  0
M  END
> <ChemID>
100236

> <CAS>
110-82-7

> <Original_SMILES>
C1CCCCC1

> <preferred_name>
Cyclohexane

> <dsstox_substance_id>
DTXSID4021923

> <dsstox_compound_id>
DTXCID701923

> <qc_level>
DSSTox_Low

> <Canonical_QSARr>
C1CCCCC1

> <InChI_Code_QSARr>
InChI=1S/C6H12/c1-2-4-6-5-3-1/h1-6H2

> <InChI Key_QSARr>
XDTMQSROBMDMFD-UHFFFAOYSA-N

> <Salt_Solvent>


> <Salt_Solvent_ID>
0

> <MPID>
98167

> <LogBCF>
1.92

> <Tr_1_Tst_0>
1

$$$$
100237
  Mrv171c012241911322D          

  6  6  0  0  0  0            999 V2000
    1.4289   -0.4125    0.0000 C   0  0  0  0  0  0  0  0  0  0  0  0
    0.7145    0.0000    0.0000 N   0  0  0  0  0  0  0  0  0  0  0  0
    0.0000   -0.4125    0.0000 C   0  0  0  0  0  0  0  0  0  0  0  0
    0.0000   -1.2375    0.0000 C   0  0  0  0  0  0  0  0  0  0  0  0
    0.7145   -1.6500    0.0000 N   0  0  0  0  0  0  0  0  0  0  0  0
    1.4289   -1.2375    0.0000 C   0  0  0  0  0  0  0  0  0  0  0  0
  2  1  1  0  0  0  0
  3  2  1  0  0  0  0
  4  3  1  0  0  0  0
  5  4  1  0  0  0  0
  6  5  1  0  0  0  0
  1  6  1  0  0  0  0
M  END
> <ChemID>
100237

> <CAS>
110-85-0

> <Original_SMILES>
C1CNCCN1

> <preferred_name>
Piperazine

> <dsstox_substance_id>
DTXSID1021164

> <dsstox_compound_id>
DTXCID701164

> <qc_level>
DSSTox_High

> <Canonical_QSARr>
C1CNCCN1

> <InChI_Code_QSARr>
InChI=1S/C4H10N2/c1-2-6-4-3-5-1/h5-6H,1-4H2

> <InChI Key_QSARr>
GLUUGHFHXGJENI-UHFFFAOYSA-N

> <Salt_Solvent>


> <Salt_Solvent_ID>
0

> <MPID>
98168

> <LogBCF>
0.59

> <Tr_1_Tst_0>
1

$$$$
100238
  Mrv171c012241911322D          

  6  6  0  0  0  0            999 V2000
    1.4289   -0.4125    0.0000 C   0  0  0  0  0  0  0  0  0  0  0  0
    0.7145    0.0000    0.0000 N   0  0  0  0  0  0  0  0  0  0  0  0
    0.0000   -0.4125    0.0000 C   0  0  0  0  0  0  0  0  0  0  0  0
    0.0000   -1.2375    0.0000 C   0  0  0  0  0  0  0  0  0  0  0  0
    0.7145   -1.6500    0.0000 O   0  0  0  0  0  0  0  0  0  0  0  0
    1.4289   -1.2375    0.0000 C   0  0  0  0  0  0  0  0  0  0  0  0
  2  1  1  0  0  0  0
  3  2  1  0  0  0  0
  4  3  1  0  0  0  0
  5  4  1  0  0  0  0
  6  5  1  0  0  0  0
  1  6  1  0  0  0  0
M  END
> <ChemID>
100238

> <CAS>
110-91-8

> <Original_SMILES>
C1COCCN1

> <preferred_name>
Morpholine

> <dsstox_substance_id>
DTXSID2025688

> <dsstox_compound_id>
DTXCID305688

> <qc_level>
DSSTox_High

> <Canonical_QSARr>
C1COCCN1

> <InChI_Code_QSARr>
InChI=1S/C4H9NO/c1-3-6-4-2-5-1/h5H,1-4H2

> <InChI Key_QSARr>
YNAVUWVOSKDBBP-UHFFFAOYSA-N

> <Salt_Solvent>


> <Salt_Solvent_ID>
0

> <MPID>
98169

> <LogBCF>
0.45

> <Tr_1_Tst_0>
0

$$$$
100239
  Mrv171c012241911322D          

  9  8  0  0  0  0            999 V2000
    2.8520   -0.0009    0.0000 C   0  0  0  0  0  0  0  0  0  0  0  0
    2.1375   -0.4134    0.0000 O   0  0  0  0  0  0  0  0  0  0  0  0
    1.4230   -0.0009    0.0000 C   0  0  0  0  0  0  0  0  0  0  0  0
    0.7085   -0.4134    0.0000 C   0  0  0  0  0  0  0  0  0  0  0  0
   -0.0059   -0.0009    0.0000 O   0  0  0  0  0  0  0  0  0  0  0  0
    0.7085   -1.2384    0.0000 C   0  0  0  0  0  0  0  0  0  0  0  0
    3.5664   -0.4134    0.0000 C   0  0  0  0  0  0  0  0  0  0  0  0
    4.2809   -0.0009    0.0000 O   0  0  0  0  0  0  0  0  0  0  0  0
    3.5664   -1.2384    0.0000 C   0  0  0  0  0  0  0  0  0  0  0  0
  1  2  1  0  0  0  0
  2  3  1  0  0  0  0
  3  4  1  0  0  0  0
  4  5  1  0  0  0  0
  4  6  1  0  0  0  0
  1  7  1  0  0  0  0
  7  8  1  0  0  0  0
  7  9  1  0  0  0  0
M  END
> <ChemID>
100239

> <CAS>
110-98-5

> <Original_SMILES>
CC(O)COCC(C)O

> <preferred_name>
1,1'-Oxybis-2-propanol

> <dsstox_substance_id>
DTXSID7026863

> <dsstox_compound_id>
DTXCID206863

> <qc_level>
DSSTox_High

> <Canonical_QSARr>
CC(O)COCC(C)O

> <InChI_Code_QSARr>
InChI=1S/C6H14O3/c1-5(7)3-9-4-6(2)8/h5-8H,3-4H2,1-2H3

> <InChI Key_QSARr>
AZUXKVXMJOIAOF-UHFFFAOYSA-N

> <Salt_Solvent>


> <Salt_Solvent_ID>
0

> <MPID>
98170

> <LogBCF>
0.66

> <Tr_1_Tst_0>
1

$$$$
100240
  Mrv171c012241911322D          

  7  6  0  0  0  0            999 V2000
    2.1510   -0.4717    0.0000 N   0  0  0  0  0  0  0  0  0  0  0  0
    1.4365   -0.0592    0.0000 C   0  0  0  0  0  0  0  0  0  0  0  0
    0.7220   -0.4717    0.0000 C   0  0  0  0  0  0  0  0  0  0  0  0
    0.0075   -0.0592    0.0000 N   0  0  0  0  0  0  0  0  0  0  0  0
    2.8654   -0.0592    0.0000 C   0  0  0  0  0  0  0  0  0  0  0  0
    3.5799   -0.4717    0.0000 C   0  0  0  0  0  0  0  0  0  0  0  0
    4.2944   -0.0592    0.0000 N   0  0  0  0  0  0  0  0  0  0  0  0
  1  2  1  0  0  0  0
  2  3  1  0  0  0  0
  3  4  1  0  0  0  0
  1  5  1  0  0  0  0
  5  6  1  0  0  0  0
  6  7  1  0  0  0  0
M  END
> <ChemID>
100240

> <CAS>
111-40-0

> <Original_SMILES>
NCCNCCN

> <preferred_name>
Diethylenetriamine

> <dsstox_substance_id>
DTXSID2025050

> <dsstox_compound_id>
DTXCID005050

> <qc_level>
DSSTox_Low

> <Canonical_QSARr>
NCCNCCN

> <InChI_Code_QSARr>
InChI=1S/C4H13N3/c5-1-3-7-4-2-6/h7H,1-6H2

> <InChI Key_QSARr>
RPNUMPOLZDHAAY-UHFFFAOYSA-N

> <Salt_Solvent>


> <Salt_Solvent_ID>
0

> <MPID>
98171

> <LogBCF>
0.65

> <Tr_1_Tst_0>
1

$$$$
100241
  Mrv171c012241911322D          

  7  6  0  0  0  0            999 V2000
    2.1510   -0.4717    0.0000 N   0  0  0  0  0  0  0  0  0  0  0  0
    1.4365   -0.0592    0.0000 C   0  0  0  0  0  0  0  0  0  0  0  0
    0.7220   -0.4717    0.0000 C   0  0  0  0  0  0  0  0  0  0  0  0
    0.0075   -0.0592    0.0000 O   0  0  0  0  0  0  0  0  0  0  0  0
    2.8654   -0.0592    0.0000 C   0  0  0  0  0  0  0  0  0  0  0  0
    3.5799   -0.4717    0.0000 C   0  0  0  0  0  0  0  0  0  0  0  0
    4.2944   -0.0592    0.0000 N   0  0  0  0  0  0  0  0  0  0  0  0
  1  2  1  0  0  0  0
  2  3  1  0  0  0  0
  3  4  1  0  0  0  0
  1  5  1  0  0  0  0
  5  6  1  0  0  0  0
  6  7  1  0  0  0  0
M  END
> <ChemID>
100241

> <CAS>
111-41-1

> <Original_SMILES>
NCCNCCO

> <preferred_name>
N-(Hydroxyethyl)ethylenediamine

> <dsstox_substance_id>
DTXSID7025423

> <dsstox_compound_id>
DTXCID105423

> <qc_level>
DSSTox_High

> <Canonical_QSARr>
NCCNCCO

> <InChI_Code_QSARr>
InChI=1S/C4H12N2O/c5-1-2-6-3-4-7/h6-7H,1-5H2

> <InChI Key_QSARr>
LHIJANUOQQMGNT-UHFFFAOYSA-N

> <Salt_Solvent>


> <Salt_Solvent_ID>
0

> <MPID>
98172

> <LogBCF>
0.46

> <Tr_1_Tst_0>
1

$$$$
100242
  Mrv171c012241911322D          

  7  6  0  0  0  0            999 V2000
    0.0075   -0.0592    0.0000 Cl  0  0  0  0  0  0  0  0  0  0  0  0
    0.7220   -0.4717    0.0000 C   0  0  0  0  0  0  0  0  0  0  0  0
    1.4365   -0.0592    0.0000 C   0  0  0  0  0  0  0  0  0  0  0  0
    2.1510   -0.4717    0.0000 O   0  0  0  0  0  0  0  0  0  0  0  0
    2.8654   -0.0592    0.0000 C   0  0  0  0  0  0  0  0  0  0  0  0
    3.5799   -0.4717    0.0000 C   0  0  0  0  0  0  0  0  0  0  0  0
    4.2944   -0.0592    0.0000 Cl  0  0  0  0  0  0  0  0  0  0  0  0
  1  2  1  0  0  0  0
  2  3  1  0  0  0  0
  3  4  1  0  0  0  0
  4  5  1  0  0  0  0
  5  6  1  0  0  0  0
  6  7  1  0  0  0  0
M  END
> <ChemID>
100242

> <CAS>
111-44-4

> <Original_SMILES>
ClCCOCCCl

> <preferred_name>
Bis(2-chloroethyl) ether

> <dsstox_substance_id>
DTXSID9020168

> <dsstox_compound_id>
DTXCID70168

> <qc_level>
DSSTox_Low

> <Canonical_QSARr>
ClCCOCCCl

> <InChI_Code_QSARr>
InChI=1S/C4H8Cl2O/c5-1-3-7-4-2-6/h1-4H2

> <InChI Key_QSARr>
ZNSMNVMLTJELDZ-UHFFFAOYSA-N

> <Salt_Solvent>


> <Salt_Solvent_ID>
0

> <MPID>
98173

> <LogBCF>
1.0

> <Tr_1_Tst_0>
0

$$$$
100243
  Mrv171c012241911322D          

  9  8  0  0  0  0            999 V2000
    0.7260   -0.3189    0.0000 C   0  0  0  0  0  0  0  0  0  0  0  0
    0.0115    0.0936    0.0000 N   0  0  0  0  0  0  0  0  0  0  0  0
    1.4405   -0.7314    0.0000 C   0  0  0  0  0  0  0  0  0  0  0  0
    2.1550   -0.3189    0.0000 C   0  0  0  0  0  0  0  0  0  0  0  0
    2.8694   -0.7314    0.0000 N   0  0  0  0  0  0  0  0  0  0  0  0
    3.5839   -0.3189    0.0000 C   0  0  0  0  0  0  0  0  0  0  0  0
    4.2984   -0.7314    0.0000 C   0  0  0  0  0  0  0  0  0  0  0  0
    5.0128   -0.3189    0.0000 C   0  0  0  0  0  0  0  0  0  0  0  0
    5.7273    0.0936    0.0000 N   0  0  0  0  0  0  0  0  0  0  0  0
  1  2  3  0  0  0  0
  1  3  1  0  0  0  0
  3  4  1  0  0  0  0
  4  5  1  0  0  0  0
  5  6  1  0  0  0  0
  6  7  1  0  0  0  0
  7  8  1  0  0  0  0
  8  9  3  0  0  0  0
M  END
> <ChemID>
100243

> <CAS>
111-94-4

> <Original_SMILES>
N#CCCNCCC#N

> <preferred_name>
3,3'-Iminobispropanenitrile

> <dsstox_substance_id>
DTXSID2041464

> <dsstox_compound_id>
DTXCID0021464

> <qc_level>
DSSTox_Low

> <Canonical_QSARr>
N#CCCNCCC#N

> <InChI_Code_QSARr>
InChI=1S/C6H9N3/c7-3-1-5-9-6-2-4-8/h9H,1-2,5-6H2

> <InChI Key_QSARr>
SBAJRGRUGUQKAF-UHFFFAOYSA-N

> <Salt_Solvent>


> <Salt_Solvent_ID>
0

> <MPID>
98174

> <LogBCF>
0.08

> <Tr_1_Tst_0>
1

$$$$
100244
  Mrv171c012241911322D          

 12 11  0  0  0  0            999 V2000
   -0.0127   -0.4139    0.0000 C   0  0  0  0  0  0  0  0  0  0  0  0
    0.7018   -0.0014    0.0000 C   0  0  0  0  0  0  0  0  0  0  0  0
    1.4163   -0.4139    0.0000 C   0  0  0  0  0  0  0  0  0  0  0  0
    2.1307   -0.0014    0.0000 C   0  0  0  0  0  0  0  0  0  0  0  0
    2.8452   -0.4139    0.0000 C   0  0  0  0  0  0  0  0  0  0  0  0
    3.5597   -0.0014    0.0000 C   0  0  0  0  0  0  0  0  0  0  0  0
    4.2741   -0.4139    0.0000 C   0  0  0  0  0  0  0  0  0  0  0  0
    4.9886   -0.0014    0.0000 C   0  0  0  0  0  0  0  0  0  0  0  0
    5.7031   -0.4139    0.0000 C   0  0  0  0  0  0  0  0  0  0  0  0
    6.4176   -0.0014    0.0000 C   0  0  0  0  0  0  0  0  0  0  0  0
    7.1320   -0.4139    0.0000 C   0  0  0  0  0  0  0  0  0  0  0  0
    7.8465   -0.0014    0.0000 C   0  0  0  0  0  0  0  0  0  0  0  0
  1  2  1  0  0  0  0
  2  3  1  0  0  0  0
  3  4  1  0  0  0  0
  4  5  1  0  0  0  0
  5  6  1  0  0  0  0
  6  7  1  0  0  0  0
  7  8  1  0  0  0  0
  8  9  1  0  0  0  0
  9 10  1  0  0  0  0
 10 11  1  0  0  0  0
 11 12  1  0  0  0  0
M  END
> <ChemID>
100244

> <CAS>
112-40-3

> <Original_SMILES>
CCCCCCCCCCCC

> <preferred_name>
Dodecane

> <dsstox_substance_id>
DTXSID0026913

> <dsstox_compound_id>
DTXCID906913

> <qc_level>
DSSTox_Low

> <Canonical_QSARr>
CCCCCCCCCCCC

> <InChI_Code_QSARr>
InChI=1S/C12H26/c1-3-5-7-9-11-12-10-8-6-4-2/h3-12H2,1-2H3

> <InChI Key_QSARr>
SNRUBQQJIBEYMU-UHFFFAOYSA-N

> <Salt_Solvent>


> <Salt_Solvent_ID>
0

> <MPID>
98175

> <LogBCF>
2.38

> <Tr_1_Tst_0>
1

$$$$
100245
  Mrv171c012241911322D          

 19 20  0  0  0  0            999 V2000
    0.6241   -1.4154    0.0000 C   0  0  0  0  0  0  0  0  0  0  0  0
    0.0269   -0.9666    0.0000 Cl  0  0  0  0  0  0  0  0  0  0  0  0
    1.4558   -0.9811    0.0000 C   0  0  0  0  0  0  0  0  0  0  0  0
    1.4642   -0.1562    0.0000 Cl  0  0  0  0  0  0  0  0  0  0  0  0
    1.6536   -1.8082    0.0000 C   0  0  0  0  0  0  0  0  0  0  0  0
    0.9115   -1.4478    0.0000 Cl  0  0  0  0  0  0  0  0  0  0  0  0
    1.0173   -2.1244    0.0000 Cl  0  0  0  0  0  0  0  0  0  0  0  0
    1.4390   -2.6311    0.0000 C   0  0  0  0  0  0  0  0  0  0  0  0
    1.4306   -3.4560    0.0000 Cl  0  0  0  0  0  0  0  0  0  0  0  0
    2.1576   -2.2258    0.0000 C   0  0  0  0  0  0  0  0  0  0  0  0
    2.8679   -2.6456    0.0000 C   0  0  0  0  0  0  0  0  0  0  0  0
    3.5865   -2.2404    0.0000 O   0  0  0  0  0  0  0  0  0  0  0  0
    2.8595   -3.4705    0.0000 O   0  0  0  0  0  0  0  0  0  0  0  0
    2.1660   -1.4009    0.0000 C   0  0  0  0  0  0  0  0  0  0  0  0
    2.8846   -0.9957    0.0000 C   0  0  0  0  0  0  0  0  0  0  0  0
    2.8930   -0.1707    0.0000 O   0  0  0  0  0  0  0  0  0  0  0  0
    3.5949   -1.4154    0.0000 O   0  0  0  0  0  0  0  0  0  0  0  0
    0.7288   -2.2113    0.0000 C   0  0  0  0  0  0  0  0  0  0  0  0
    0.0101   -2.6165    0.0000 Cl  0  0  0  0  0  0  0  0  0  0  0  0
  1  2  1  0  0  0  0
  3  1  1  0  0  0  0
  3  4  1  0  0  0  0
  3  5  1  0  0  0  0
  5  6  1  0  0  0  0
  5  7  1  0  0  0  0
  5  8  1  0  0  0  0
  8  9  1  0  0  0  0
  8 10  1  0  0  0  0
 10 11  1  0  0  0  0
 11 12  1  0  0  0  0
 11 13  2  0  0  0  0
 10 14  1  0  0  0  0
 14  3  1  0  0  0  0
 14 15  1  0  0  0  0
 15 16  1  0  0  0  0
 15 17  2  0  0  0  0
 18  8  1  0  0  0  0
  1 18  2  0  0  0  0
 18 19  1  0  0  0  0
M  END
> <ChemID>
100245

> <CAS>
115-28-6

> <Original_SMILES>
OC(=O)C1C(C(O)=O)C2(Cl)C(Cl)=C(Cl)C1(Cl)C2(Cl)Cl

> <preferred_name>
Chlorendic acid

> <dsstox_substance_id>
DTXSID2020268

> <dsstox_compound_id>
DTXCID80268

> <qc_level>
DSSTox_High

> <Canonical_QSARr>
OC(=O)C1C(C(O)=O)C2(Cl)C(Cl)=C(Cl)C1(Cl)C2(Cl)Cl

> <InChI_Code_QSARr>
InChI=1S/C9H4Cl6O4/c10-3-4(11)8(13)2(6(18)19)1(5(16)17)7(3,12)9(8,14)15/h1-2H,(H,16,17)(H,18,19)

> <InChI Key_QSARr>
DJKGDNKYTKCJKD-UHFFFAOYSA-N

> <Salt_Solvent>


> <Salt_Solvent_ID>
0

> <MPID>
98176

> <LogBCF>
0.32

> <Tr_1_Tst_0>
1

$$$$
100246
  Mrv171c012241911322D          

 20 21  0  0  0  0            999 V2000
    0.5375   -2.8409    0.0000 O   0  0  0  0  0  0  0  0  0  0  0  0
    1.3625   -2.8409    0.0000 C   0  0  0  0  0  0  0  0  0  0  0  0
    2.1875   -2.8409    0.0000 C   0  0  0  0  0  0  0  0  0  0  0  0
    3.0125   -2.8409    0.0000 Cl  0  0  0  0  0  0  0  0  0  0  0  0
    2.1875   -3.6659    0.0000 Cl  0  0  0  0  0  0  0  0  0  0  0  0
    2.1875   -2.0159    0.0000 Cl  0  0  0  0  0  0  0  0  0  0  0  0
    1.3625   -2.0159    0.0000 C   0  0  0  0  0  0  0  0  0  0  0  0
    2.0770   -1.6034    0.0000 C   0  0  0  0  0  0  0  0  0  0  0  0
    2.0770   -0.7784    0.0000 C   0  0  0  0  0  0  0  0  0  0  0  0
    1.3625   -0.3659    0.0000 C   0  0  0  0  0  0  0  0  0  0  0  0
    1.3625    0.4591    0.0000 Cl  0  0  0  0  0  0  0  0  0  0  0  0
    0.6481   -0.7784    0.0000 C   0  0  0  0  0  0  0  0  0  0  0  0
    0.6481   -1.6034    0.0000 C   0  0  0  0  0  0  0  0  0  0  0  0
    1.3625   -3.6659    0.0000 C   0  0  0  0  0  0  0  0  0  0  0  0
    0.6481   -4.0784    0.0000 C   0  0  0  0  0  0  0  0  0  0  0  0
    0.6481   -4.9034    0.0000 C   0  0  0  0  0  0  0  0  0  0  0  0
    1.3625   -5.3159    0.0000 C   0  0  0  0  0  0  0  0  0  0  0  0
    1.3625   -6.1409    0.0000 Cl  0  0  0  0  0  0  0  0  0  0  0  0
    2.0770   -4.9034    0.0000 C   0  0  0  0  0  0  0  0  0  0  0  0
    2.0770   -4.0784    0.0000 C   0  0  0  0  0  0  0  0  0  0  0  0
  1  2  1  0  0  0  0
  2  3  1  0  0  0  0
  3  4  1  0  0  0  0
  3  5  1  0  0  0  0
  3  6  1  0  0  0  0
  2  7  1  0  0  0  0
  8  7  1  0  0  0  0
  9  8  2  0  0  0  0
 10  9  1  0  0  0  0
 10 11  1  0  0  0  0
 12 10  2  0  0  0  0
 13 12  1  0  0  0  0
  7 13  2  0  0  0  0
  2 14  1  0  0  0  0
 15 14  1  0  0  0  0
 16 15  2  0  0  0  0
 17 16  1  0  0  0  0
 17 18  1  0  0  0  0
 19 17  2  0  0  0  0
 20 19  1  0  0  0  0
 14 20  2  0  0  0  0
M  END
> <ChemID>
100246

> <CAS>
115-32-2

> <Original_SMILES>
OC(c1ccc(Cl)cc1)(c1ccc(Cl)cc1)C(Cl)(Cl)Cl

> <preferred_name>
Dicofol

> <dsstox_substance_id>
DTXSID4020450

> <dsstox_compound_id>
DTXCID40450

> <qc_level>
DSSTox_Low

> <Canonical_QSARr>
OC(C1C=CC(Cl)=CC=1)(C1C=CC(Cl)=CC=1)C(Cl)(Cl)Cl

> <InChI_Code_QSARr>
InChI=1S/C14H9Cl5O/c15-11-5-1-9(2-6-11)13(20,14(17,18)19)10-3-7-12(16)8-4-10/h1-8,20H

> <InChI Key_QSARr>
UOAMTSKGCBMZTC-UHFFFAOYSA-N

> <Salt_Solvent>


> <Salt_Solvent_ID>
0

> <MPID>
98177

> <LogBCF>
3.79

> <Tr_1_Tst_0>
0

$$$$
100247
  Mrv171c012241911322D          

  9  8  0  0  0  0            999 V2000
    2.1459   -1.2895    0.0000 C   0  0  0  0  0  0  0  0  0  0  0  0
    2.8604   -0.8770    0.0000 O   0  0  0  0  0  0  0  0  0  0  0  0
    1.4314   -0.8770    0.0000 C   0  0  0  0  0  0  0  0  0  0  0  0
    0.7170   -0.4645    0.0000 C   0  0  0  0  0  0  0  0  0  0  0  0
    0.0025   -0.8770    0.0000 O   0  0  0  0  0  0  0  0  0  0  0  0
    1.8439   -0.1626    0.0000 C   0  0  0  0  0  0  0  0  0  0  0  0
    1.4314    0.5519    0.0000 O   0  0  0  0  0  0  0  0  0  0  0  0
    1.0189   -1.5915    0.0000 C   0  0  0  0  0  0  0  0  0  0  0  0
    0.1939   -1.5915    0.0000 O   0  0  0  0  0  0  0  0  0  0  0  0
  1  2  1  0  0  0  0
  1  3  1  0  0  0  0
  3  4  1  0  0  0  0
  4  5  1  0  0  0  0
  3  6  1  0  0  0  0
  6  7  1  0  0  0  0
  3  8  1  0  0  0  0
  8  9  1  0  0  0  0
M  END
> <ChemID>
100247

> <CAS>
115-77-5

> <Original_SMILES>
OCC(CO)(CO)CO

> <preferred_name>
Pentaerythritol

> <dsstox_substance_id>
DTXSID2026943

> <dsstox_compound_id>
DTXCID806943

> <qc_level>
DSSTox_Low

> <Canonical_QSARr>
OCC(CO)(CO)CO

> <InChI_Code_QSARr>
InChI=1S/C5H12O4/c6-1-5(2-7,3-8)4-9/h6-9H,1-4H2

> <InChI Key_QSARr>
WXZMFSXDPGVJKK-UHFFFAOYSA-N

> <Salt_Solvent>


> <Salt_Solvent_ID>
0

> <MPID>
98178

> <LogBCF>
0.1

> <Tr_1_Tst_0>
1

$$$$
100248
  Mrv171c012241911322D          

 23 25  0  0  0  0            999 V2000
    4.6081   -3.9088    0.0000 C   0  0  0  0  0  0  0  0  0  0  0  0
    3.8936   -3.4963    0.0000 C   0  0  0  0  0  0  0  0  0  0  0  0
    3.8936   -2.6713    0.0000 O   0  0  0  0  0  0  0  0  0  0  0  0
    3.1792   -2.2588    0.0000 P   0  0  0  0  0  0  0  0  0  0  0  0
    2.4647   -1.8463    0.0000 O   0  0  0  0  0  0  0  0  0  0  0  0
    1.7502   -2.2588    0.0000 C   0  0  0  0  0  0  0  0  0  0  0  0
    1.0357   -1.8463    0.0000 C   0  0  0  0  0  0  0  0  0  0  0  0
    0.3213   -2.2588    0.0000 C   0  0  0  0  0  0  0  0  0  0  0  0
    0.3213   -3.0838    0.0000 C   0  0  0  0  0  0  0  0  0  0  0  0
    1.0357   -3.4963    0.0000 C   0  0  0  0  0  0  0  0  0  0  0  0
    1.7502   -3.0838    0.0000 C   0  0  0  0  0  0  0  0  0  0  0  0
    3.5917   -1.5443    0.0000 O   0  0  0  0  0  0  0  0  0  0  0  0
    3.1792   -0.8299    0.0000 C   0  0  0  0  0  0  0  0  0  0  0  0
    3.5917   -0.1154    0.0000 C   0  0  0  0  0  0  0  0  0  0  0  0
    3.1792    0.5991    0.0000 C   0  0  0  0  0  0  0  0  0  0  0  0
    2.3542    0.5991    0.0000 C   0  0  0  0  0  0  0  0  0  0  0  0
    1.9417   -0.1154    0.0000 C   0  0  0  0  0  0  0  0  0  0  0  0
    2.3542   -0.8299    0.0000 C   0  0  0  0  0  0  0  0  0  0  0  0
    2.7667   -2.9733    0.0000 O   0  0  0  0  0  0  0  0  0  0  0  0
    3.1792   -3.9088    0.0000 C   0  0  0  0  0  0  0  0  0  0  0  0
    3.1792   -4.7338    0.0000 C   0  0  0  0  0  0  0  0  0  0  0  0
    3.8936   -5.1463    0.0000 C   0  0  0  0  0  0  0  0  0  0  0  0
    4.6081   -4.7338    0.0000 C   0  0  0  0  0  0  0  0  0  0  0  0
  2  1  1  0  0  0  0
  2  3  1  0  0  0  0
  3  4  1  0  0  0  0
  4  5  1  0  0  0  0
  5  6  1  0  0  0  0
  7  6  1  0  0  0  0
  8  7  2  0  0  0  0
  9  8  1  0  0  0  0
 10  9  2  0  0  0  0
 11 10  1  0  0  0  0
  6 11  2  0  0  0  0
  4 12  1  0  0  0  0
 12 13  1  0  0  0  0
 14 13  1  0  0  0  0
 15 14  2  0  0  0  0
 16 15  1  0  0  0  0
 17 16  2  0  0  0  0
 18 17  1  0  0  0  0
 13 18  2  0  0  0  0
  4 19  2  0  0  0  0
 20  2  2  0  0  0  0
 21 20  1  0  0  0  0
 22 21  2  0  0  0  0
 23 22  1  0  0  0  0
  1 23  2  0  0  0  0
M  END
> <ChemID>
100248

> <CAS>
115-86-6

> <Original_SMILES>
O=P(Oc1ccccc1)(Oc1ccccc1)Oc1ccccc1

> <preferred_name>
Triphenyl phosphate

> <dsstox_substance_id>
DTXSID1021952

> <dsstox_compound_id>
DTXCID201952

> <qc_level>
DSSTox_High

> <Canonical_QSARr>
O=P(OC1C=CC=CC=1)(OC1C=CC=CC=1)OC1C=CC=CC=1

> <InChI_Code_QSARr>
InChI=1S/C18H15O4P/c19-23(20-16-10-4-1-5-11-16,21-17-12-6-2-7-13-17)22-18-14-8-3-9-15-18/h1-15H

> <InChI Key_QSARr>
XZZNDPSIHUTMOC-UHFFFAOYSA-N

> <Salt_Solvent>


> <Salt_Solvent_ID>
0

> <MPID>
98179

> <LogBCF>
2.28

> <Tr_1_Tst_0>
1

$$$$
100249
  Mrv171c012241911322D          

 14 13  0  0  0  0            999 V2000
    2.3737   -2.0958    0.0000 O   0  0  0  0  0  0  0  0  0  0  0  0
    3.1987   -2.0958    0.0000 P   0  0  0  0  0  0  0  0  0  0  0  0
    3.1987   -2.9208    0.0000 O   0  0  0  0  0  0  0  0  0  0  0  0
    2.4842   -3.3333    0.0000 C   0  0  0  0  0  0  0  0  0  0  0  0
    1.7697   -2.9208    0.0000 C   0  0  0  0  0  0  0  0  0  0  0  0
    1.0553   -3.3333    0.0000 Cl  0  0  0  0  0  0  0  0  0  0  0  0
    3.1987   -1.2708    0.0000 O   0  0  0  0  0  0  0  0  0  0  0  0
    2.4842   -0.8583    0.0000 C   0  0  0  0  0  0  0  0  0  0  0  0
    2.4842   -0.0333    0.0000 C   0  0  0  0  0  0  0  0  0  0  0  0
    1.7697    0.3792    0.0000 Cl  0  0  0  0  0  0  0  0  0  0  0  0
    4.0237   -2.0958    0.0000 O   0  0  0  0  0  0  0  0  0  0  0  0
    4.4362   -2.8102    0.0000 C   0  0  0  0  0  0  0  0  0  0  0  0
    4.0237   -3.5247    0.0000 C   0  0  0  0  0  0  0  0  0  0  0  0
    3.1987   -3.5247    0.0000 Cl  0  0  0  0  0  0  0  0  0  0  0  0
  1  2  2  0  0  0  0
  2  3  1  0  0  0  0
  3  4  1  0  0  0  0
  4  5  1  0  0  0  0
  5  6  1  0  0  0  0
  2  7  1  0  0  0  0
  7  8  1  0  0  0  0
  8  9  1  0  0  0  0
  9 10  1  0  0  0  0
  2 11  1  0  0  0  0
 11 12  1  0  0  0  0
 12 13  1  0  0  0  0
 13 14  1  0  0  0  0
M  END
> <ChemID>
100249

> <CAS>
115-96-8

> <Original_SMILES>
O=P(OCCCl)(OCCCl)OCCCl

> <preferred_name>
Tris(2-chloroethyl) phosphate

> <dsstox_substance_id>
DTXSID5021411

> <dsstox_compound_id>
DTXCID601411

> <qc_level>
DSSTox_High

> <Canonical_QSARr>
O=P(OCCCl)(OCCCl)OCCCl

> <InChI_Code_QSARr>
InChI=1S/C6H12Cl3O4P/c7-1-4-11-14(10,12-5-2-8)13-6-3-9/h1-6H2

> <InChI Key_QSARr>
HQUQLFOMPYWACS-UHFFFAOYSA-N

> <Salt_Solvent>


> <Salt_Solvent_ID>
0

> <MPID>
98180

> <LogBCF>
0.11

> <Tr_1_Tst_0>
1

$$$$
100250
  Mrv171c012241911322D          

 13 13  0  0  0  0            999 V2000
    2.6622   -0.8268    0.0000 N   0  3  0  0  0  0  0  0  0  0  0  0
    1.9478   -1.2393    0.0000 C   0  0  0  0  0  0  0  0  0  0  0  0
    1.2333   -0.8268    0.0000 C   0  0  0  0  0  0  0  0  0  0  0  0
    1.2333   -0.0018    0.0000 Cl  0  0  0  0  0  0  0  0  0  0  0  0
    0.5188   -1.2393    0.0000 C   0  0  0  0  0  0  0  0  0  0  0  0
   -0.1956   -0.8268    0.0000 Cl  0  0  0  0  0  0  0  0  0  0  0  0
    0.5188   -2.0643    0.0000 C   0  0  0  0  0  0  0  0  0  0  0  0
    1.2333   -2.4768    0.0000 C   0  0  0  0  0  0  0  0  0  0  0  0
    1.2333   -3.3018    0.0000 Cl  0  0  0  0  0  0  0  0  0  0  0  0
    1.9478   -2.0643    0.0000 C   0  0  0  0  0  0  0  0  0  0  0  0
    2.6622   -2.4768    0.0000 Cl  0  0  0  0  0  0  0  0  0  0  0  0
    3.3767   -1.2393    0.0000 O   0  5  0  0  0  0  0  0  0  0  0  0
    2.6622   -0.0018    0.0000 O   0  0  0  0  0  0  0  0  0  0  0  0
  1  2  1  0  0  0  0
  3  2  1  0  0  0  0
  3  4  1  0  0  0  0
  5  3  2  0  0  0  0
  5  6  1  0  0  0  0
  7  5  1  0  0  0  0
  8  7  2  0  0  0  0
  8  9  1  0  0  0  0
 10  8  1  0  0  0  0
  2 10  2  0  0  0  0
 10 11  1  0  0  0  0
  1 12  1  0  0  0  0
  1 13  2  0  0  0  0
M  CHG  2   1   1  12  -1
M  END
> <ChemID>
100250

> <CAS>
117-18-0

> <Original_SMILES>
[O-][N+](=O)c1c(Cl)c(Cl)cc(Cl)c1Cl

> <preferred_name>
2,3,5,6-Tetrachloronitrobenzene

> <dsstox_substance_id>
DTXSID0026098

> <dsstox_compound_id>
DTXCID506098

> <qc_level>
DSSTox_Low

> <Canonical_QSARr>
[O-][N+](=O)C1=C(Cl)C(Cl)=CC(Cl)=C1Cl

> <InChI_Code_QSARr>
InChI=1S/C6HCl4NO2/c7-2-1-3(8)5(10)6(4(2)9)11(12)13/h1H

> <InChI Key_QSARr>
XQTLDIFVVHJORV-UHFFFAOYSA-N

> <Salt_Solvent>


> <Salt_Solvent_ID>
0

> <MPID>
98181

> <LogBCF>
3.23

> <Tr_1_Tst_0>
0

$$$$
100251
  Mrv171c012241911322D          

 17 19  0  0  0  0            999 V2000
    2.8811    0.1348    0.0000 O   0  0  0  0  0  0  0  0  0  0  0  0
    2.8811   -0.6902    0.0000 C   0  0  0  0  0  0  0  0  0  0  0  0
    3.5956   -1.1027    0.0000 C   0  0  0  0  0  0  0  0  0  0  0  0
    4.3101   -0.6902    0.0000 C   0  0  0  0  0  0  0  0  0  0  0  0
    5.0245   -1.1027    0.0000 C   0  0  0  0  0  0  0  0  0  0  0  0
    5.0245   -1.9277    0.0000 C   0  0  0  0  0  0  0  0  0  0  0  0
    4.3101   -2.3402    0.0000 C   0  0  0  0  0  0  0  0  0  0  0  0
    3.5956   -1.9277    0.0000 C   0  0  0  0  0  0  0  0  0  0  0  0
    2.8811   -2.3402    0.0000 C   0  0  0  0  0  0  0  0  0  0  0  0
    2.8811   -3.1652    0.0000 O   0  0  0  0  0  0  0  0  0  0  0  0
    2.1666   -1.9277    0.0000 C   0  0  0  0  0  0  0  0  0  0  0  0
    1.4522   -2.3402    0.0000 C   0  0  0  0  0  0  0  0  0  0  0  0
    0.7377   -1.9277    0.0000 C   0  0  0  0  0  0  0  0  0  0  0  0
    0.7377   -1.1027    0.0000 C   0  0  0  0  0  0  0  0  0  0  0  0
    0.0232   -0.6902    0.0000 N   0  0  0  0  0  0  0  0  0  0  0  0
    1.4522   -0.6902    0.0000 C   0  0  0  0  0  0  0  0  0  0  0  0
    2.1666   -1.1027    0.0000 C   0  0  0  0  0  0  0  0  0  0  0  0
  1  2  2  0  0  0  0
  3  2  1  0  0  0  0
  3  4  1  0  0  0  0
  4  5  2  0  0  0  0
  5  6  1  0  0  0  0
  6  7  2  0  0  0  0
  7  8  1  0  0  0  0
  8  3  2  0  0  0  0
  9  8  1  0  0  0  0
  9 10  2  0  0  0  0
 11  9  1  0  0  0  0
 11 12  2  0  0  0  0
 12 13  1  0  0  0  0
 13 14  2  0  0  0  0
 14 15  1  0  0  0  0
 14 16  1  0  0  0  0
 16 17  2  0  0  0  0
  2 17  1  0  0  0  0
 17 11  1  0  0  0  0
M  END
> <ChemID>
100251

> <CAS>
117-79-3

> <Original_SMILES>
Nc1cc2c(cc1)C(=O)c1ccccc1C2=O

> <preferred_name>
2-Aminoanthraquinone

> <dsstox_substance_id>
DTXSID6020068

> <dsstox_compound_id>
DTXCID2068

> <qc_level>
DSSTox_Low

> <Canonical_QSARr>
NC1C=C2C(=CC=1)C(=O)C1C=CC=CC=1C2=O

> <InChI_Code_QSARr>
InChI=1S/C14H9NO2/c15-8-5-6-11-12(7-8)14(17)10-4-2-1-3-9(10)13(11)16/h1-7H,15H2

> <InChI Key_QSARr>
XOGPDSATLSAZEK-UHFFFAOYSA-N

> <Salt_Solvent>


> <Salt_Solvent_ID>
0

> <MPID>
98182

> <LogBCF>
1.51

> <Tr_1_Tst_0>
1

$$$$
100252
  Mrv171c012241911322D          

 28 28  0  0  0  0            999 V2000
    4.1649   -1.8641    0.0000 O   0  0  0  0  0  0  0  0  0  0  0  0
    4.1649   -2.6891    0.0000 C   0  0  0  0  0  0  0  0  0  0  0  0
    3.4505   -3.1016    0.0000 O   0  0  0  0  0  0  0  0  0  0  0  0
    2.7360   -2.6891    0.0000 C   0  0  0  0  0  0  0  0  0  0  0  0
    2.0215   -3.1016    0.0000 C   0  0  0  0  0  0  0  0  0  0  0  0
    2.0215   -3.9266    0.0000 C   0  0  0  0  0  0  0  0  0  0  0  0
    1.3070   -4.3391    0.0000 C   0  0  0  0  0  0  0  0  0  0  0  0
    1.3070   -2.6891    0.0000 C   0  0  0  0  0  0  0  0  0  0  0  0
    0.5926   -3.1016    0.0000 C   0  0  0  0  0  0  0  0  0  0  0  0
   -0.1219   -2.6891    0.0000 C   0  0  0  0  0  0  0  0  0  0  0  0
   -0.8364   -3.1016    0.0000 C   0  0  0  0  0  0  0  0  0  0  0  0
    4.8794   -3.1016    0.0000 C   0  0  0  0  0  0  0  0  0  0  0  0
    4.8794   -3.9266    0.0000 C   0  0  0  0  0  0  0  0  0  0  0  0
    5.5939   -4.3391    0.0000 C   0  0  0  0  0  0  0  0  0  0  0  0
    6.3083   -3.9266    0.0000 C   0  0  0  0  0  0  0  0  0  0  0  0
    6.3083   -3.1016    0.0000 C   0  0  0  0  0  0  0  0  0  0  0  0
    5.5939   -2.6891    0.0000 C   0  0  0  0  0  0  0  0  0  0  0  0
    5.5939   -1.8641    0.0000 C   0  0  0  0  0  0  0  0  0  0  0  0
    6.3083   -1.4516    0.0000 O   0  0  0  0  0  0  0  0  0  0  0  0
    7.0228   -1.8641    0.0000 C   0  0  0  0  0  0  0  0  0  0  0  0
    7.7373   -1.4516    0.0000 C   0  0  0  0  0  0  0  0  0  0  0  0
    7.7373   -0.6266    0.0000 C   0  0  0  0  0  0  0  0  0  0  0  0
    8.4518   -0.2141    0.0000 C   0  0  0  0  0  0  0  0  0  0  0  0
    8.4518   -1.8641    0.0000 C   0  0  0  0  0  0  0  0  0  0  0  0
    9.1662   -1.4516    0.0000 C   0  0  0  0  0  0  0  0  0  0  0  0
    9.8807   -1.8641    0.0000 C   0  0  0  0  0  0  0  0  0  0  0  0
   10.5952   -1.4516    0.0000 C   0  0  0  0  0  0  0  0  0  0  0  0
    4.8794   -1.4516    0.0000 O   0  0  0  0  0  0  0  0  0  0  0  0
  1  2  2  0  0  0  0
  2  3  1  0  0  0  0
  3  4  1  0  0  0  0
  4  5  1  0  0  0  0
  5  6  1  0  0  0  0
  6  7  1  0  0  0  0
  5  8  1  0  0  0  0
  8  9  1  0  0  0  0
  9 10  1  0  0  0  0
 10 11  1  0  0  0  0
  2 12  1  0  0  0  0
 13 12  1  0  0  0  0
 14 13  2  0  0  0  0
 15 14  1  0  0  0  0
 16 15  2  0  0  0  0
 17 16  1  0  0  0  0
 12 17  2  0  0  0  0
 17 18  1  0  0  0  0
 18 19  1  0  0  0  0
 19 20  1  0  0  0  0
 20 21  1  0  0  0  0
 21 22  1  0  0  0  0
 22 23  1  0  0  0  0
 21 24  1  0  0  0  0
 24 25  1  0  0  0  0
 25 26  1  0  0  0  0
 26 27  1  0  0  0  0
 18 28  2  0  0  0  0
M  END
> <ChemID>
100252

> <CAS>
117-81-7

> <Original_SMILES>
CCCCC(COC(=O)c1ccccc1C(=O)OCC(CCCC)CC)CC

> <preferred_name>
Di(2-ethylhexyl) phthalate

> <dsstox_substance_id>
DTXSID5020607

> <dsstox_compound_id>
DTXCID70607

> <qc_level>
DSSTox_Low

> <Canonical_QSARr>
CCCCC(COC(=O)C1C=CC=CC=1C(=O)OCC(CCCC)CC)CC

> <InChI_Code_QSARr>
InChI=1S/C24H38O4/c1-5-9-13-19(7-3)17-27-23(25)21-15-11-12-16-22(21)24(26)28-18-20(8-4)14-10-6-2/h11-12,15-16,19-20H,5-10,13-14,17-18H2,1-4H3

> <InChI Key_QSARr>
BJQHLKABXJIVAM-UHFFFAOYSA-N

> <Salt_Solvent>


> <Salt_Solvent_ID>
0

> <MPID>
98183

> <LogBCF>
2.77

> <Tr_1_Tst_0>
1

$$$$
100253
  Mrv171c012241911322D          

 13 14  0  0  0  0            999 V2000
   -0.0000   -2.4750    0.0000 N   0  0  0  0  0  0  0  0  0  0  0  0
   -0.7145   -2.8875    0.0000 C   0  0  0  0  0  0  0  0  0  0  0  0
   -0.7145   -3.7125    0.0000 C   0  0  0  0  0  0  0  0  0  0  0  0
   -0.0000   -1.6500    0.0000 C   0  0  0  0  0  0  0  0  0  0  0  0
   -0.7145   -1.2375    0.0000 C   0  0  0  0  0  0  0  0  0  0  0  0
   -0.7145   -0.4125    0.0000 C   0  0  0  0  0  0  0  0  0  0  0  0
   -0.0000    0.0000    0.0000 C   0  0  0  0  0  0  0  0  0  0  0  0
    0.7145   -0.4125    0.0000 C   0  0  0  0  0  0  0  0  0  0  0  0
    1.4289    0.0000    0.0000 C   0  0  0  0  0  0  0  0  0  0  0  0
    2.1434   -0.4125    0.0000 C   0  0  0  0  0  0  0  0  0  0  0  0
    2.1434   -1.2375    0.0000 C   0  0  0  0  0  0  0  0  0  0  0  0
    1.4289   -1.6500    0.0000 C   0  0  0  0  0  0  0  0  0  0  0  0
    0.7145   -1.2375    0.0000 C   0  0  0  0  0  0  0  0  0  0  0  0
  1  2  1  0  0  0  0
  2  3  1  0  0  0  0
  1  4  1  0  0  0  0
  5  4  2  0  0  0  0
  6  5  1  0  0  0  0
  7  6  2  0  0  0  0
  8  7  1  0  0  0  0
  8  9  2  0  0  0  0
  9 10  1  0  0  0  0
 10 11  2  0  0  0  0
 11 12  1  0  0  0  0
 12 13  2  0  0  0  0
  4 13  1  0  0  0  0
 13  8  1  0  0  0  0
M  END
> <ChemID>
100253

> <CAS>
118-44-5

> <Original_SMILES>
CCNc1cccc2ccccc21

> <preferred_name>
1-Naphthalenamine, N-ethyl-

> <dsstox_substance_id>
DTXSID8059473

> <dsstox_compound_id>
DTXCID8033433

> <qc_level>
Public_High

> <Canonical_QSARr>
CCNC1=CC=CC2=CC=CC=C21

> <InChI_Code_QSARr>
InChI=1S/C12H13N/c1-2-13-12-9-5-7-10-6-3-4-8-11(10)12/h3-9,13H,2H2,1H3

> <InChI Key_QSARr>
KDFFXYVOTKKBDI-UHFFFAOYSA-N

> <Salt_Solvent>


> <Salt_Solvent_ID>
0

> <MPID>
98184

> <LogBCF>
2.32

> <Tr_1_Tst_0>
1

$$$$
100254
  Mrv171c012241911322D          

 12 12  0  0  0  0            999 V2000
    3.0761   -0.6015    0.0000 Cl  0  0  0  0  0  0  0  0  0  0  0  0
    2.3616   -1.0140    0.0000 C   0  0  0  0  0  0  0  0  0  0  0  0
    1.6472   -0.6015    0.0000 C   0  0  0  0  0  0  0  0  0  0  0  0
    1.6472    0.2235    0.0000 Cl  0  0  0  0  0  0  0  0  0  0  0  0
    0.9327   -1.0140    0.0000 C   0  0  0  0  0  0  0  0  0  0  0  0
    0.2182   -0.6015    0.0000 Cl  0  0  0  0  0  0  0  0  0  0  0  0
    0.9327   -1.8390    0.0000 C   0  0  0  0  0  0  0  0  0  0  0  0
    0.2182   -2.2515    0.0000 Cl  0  0  0  0  0  0  0  0  0  0  0  0
    1.6472   -2.2515    0.0000 C   0  0  0  0  0  0  0  0  0  0  0  0
    1.6472   -3.0765    0.0000 Cl  0  0  0  0  0  0  0  0  0  0  0  0
    2.3616   -1.8390    0.0000 C   0  0  0  0  0  0  0  0  0  0  0  0
    3.0761   -2.2515    0.0000 Cl  0  0  0  0  0  0  0  0  0  0  0  0
  1  2  1  0  0  0  0
  3  2  1  0  0  0  0
  3  4  1  0  0  0  0
  5  3  2  0  0  0  0
  5  6  1  0  0  0  0
  7  5  1  0  0  0  0
  7  8  1  0  0  0  0
  9  7  2  0  0  0  0
  9 10  1  0  0  0  0
 11  9  1  0  0  0  0
  2 11  2  0  0  0  0
 11 12  1  0  0  0  0
M  END
> <ChemID>
100254

> <CAS>
118-74-1

> <Original_SMILES>
Clc1c(Cl)c(Cl)c(Cl)c(Cl)c1Cl

> <preferred_name>
Hexachlorobenzene

> <dsstox_substance_id>
DTXSID2020682

> <dsstox_compound_id>
DTXCID80682

> <qc_level>
DSSTox_Low

> <Canonical_QSARr>
ClC1C(Cl)=C(Cl)C(Cl)=C(Cl)C=1Cl

> <InChI_Code_QSARr>
InChI=1S/C6Cl6/c7-1-2(8)4(10)6(12)5(11)3(1)9

> <InChI Key_QSARr>
CKAPSXZOOQJIBF-UHFFFAOYSA-N

> <Salt_Solvent>


> <Salt_Solvent_ID>
0

> <MPID>
98185

> <LogBCF>
4.33

> <Tr_1_Tst_0>
0

$$$$
100255
  Mrv171c012241911322D          

 10 10  0  0  0  0            999 V2000
    3.0980   -0.6840    0.0000 O   0  0  0  0  0  0  0  0  0  0  0  0
    2.3835   -1.0965    0.0000 C   0  0  0  0  0  0  0  0  0  0  0  0
    1.6691   -0.6840    0.0000 C   0  0  0  0  0  0  0  0  0  0  0  0
    1.6691    0.1410    0.0000 Br  0  0  0  0  0  0  0  0  0  0  0  0
    0.9546   -1.0965    0.0000 C   0  0  0  0  0  0  0  0  0  0  0  0
    0.9546   -1.9215    0.0000 C   0  0  0  0  0  0  0  0  0  0  0  0
    0.2401   -2.3340    0.0000 Br  0  0  0  0  0  0  0  0  0  0  0  0
    1.6691   -2.3340    0.0000 C   0  0  0  0  0  0  0  0  0  0  0  0
    2.3835   -1.9215    0.0000 C   0  0  0  0  0  0  0  0  0  0  0  0
    3.0980   -2.3340    0.0000 Br  0  0  0  0  0  0  0  0  0  0  0  0
  1  2  1  0  0  0  0
  3  2  1  0  0  0  0
  3  4  1  0  0  0  0
  5  3  2  0  0  0  0
  6  5  1  0  0  0  0
  6  7  1  0  0  0  0
  8  6  2  0  0  0  0
  9  8  1  0  0  0  0
  2  9  2  0  0  0  0
  9 10  1  0  0  0  0
M  END
> <ChemID>
100255

> <CAS>
118-79-6

> <Original_SMILES>
Oc1c(Br)cc(Br)cc1Br

> <preferred_name>
2,4,6-Tribromophenol

> <dsstox_substance_id>
DTXSID6021959

> <dsstox_compound_id>
DTXCID001959

> <qc_level>
DSSTox_Low

> <Canonical_QSARr>
OC1C(Br)=CC(Br)=CC=1Br

> <InChI_Code_QSARr>
InChI=1S/C6H3Br3O/c7-3-1-4(8)6(10)5(9)2-3/h1-2,10H

> <InChI Key_QSARr>
BSWWXRFVMJHFBN-UHFFFAOYSA-N

> <Salt_Solvent>


> <Salt_Solvent_ID>
0

> <MPID>
98186

> <LogBCF>
2.71

> <Tr_1_Tst_0>
1

$$$$
100256
  Mrv171c012241911322D          

 14 14  0  0  0  0            999 V2000
    3.9975   -2.3571    0.0000 Cl  0  0  0  0  0  0  0  0  0  0  0  0
    3.9975   -1.5321    0.0000 C   0  0  0  0  0  0  0  0  0  0  0  0
    4.7120   -1.1196    0.0000 C   0  0  0  0  0  0  0  0  0  0  0  0
    4.7120   -0.2946    0.0000 C   0  0  0  0  0  0  0  0  0  0  0  0
    3.9975    0.1179    0.0000 C   0  0  0  0  0  0  0  0  0  0  0  0
    3.9975    0.9429    0.0000 N   0  3  0  0  0  0  0  0  0  0  0  0
    3.2830    1.3554    0.0000 O   0  0  0  0  0  0  0  0  0  0  0  0
    4.7120    1.3554    0.0000 O   0  5  0  0  0  0  0  0  0  0  0  0
    3.2830   -0.2946    0.0000 C   0  0  0  0  0  0  0  0  0  0  0  0
    2.5686    0.1179    0.0000 C   0  0  0  0  0  0  0  0  0  0  0  0
    1.8541    0.5304    0.0000 F   0  0  0  0  0  0  0  0  0  0  0  0
    2.1561   -0.5966    0.0000 F   0  0  0  0  0  0  0  0  0  0  0  0
    2.9811    0.8323    0.0000 F   0  0  0  0  0  0  0  0  0  0  0  0
    3.2830   -1.1196    0.0000 C   0  0  0  0  0  0  0  0  0  0  0  0
  1  2  1  0  0  0  0
  3  2  1  0  0  0  0
  4  3  2  0  0  0  0
  5  4  1  0  0  0  0
  5  6  1  0  0  0  0
  6  7  2  0  0  0  0
  6  8  1  0  0  0  0
  9  5  2  0  0  0  0
  9 10  1  0  0  0  0
 10 11  1  0  0  0  0
 10 12  1  0  0  0  0
 10 13  1  0  0  0  0
 14  9  1  0  0  0  0
  2 14  2  0  0  0  0
M  CHG  2   6   1   8  -1
M  END
> <ChemID>
100256

> <CAS>
118-83-2

> <Original_SMILES>
[O-][N+](=O)c1ccc(Cl)cc1C(F)(F)F

> <preferred_name>
5-Chloro-alpha,alpha,alpha-trifluoro-2-nitrotoluene

> <dsstox_substance_id>
DTXSID30151998

> <dsstox_compound_id>
DTXCID4074489

> <qc_level>
Public_Medium

> <Canonical_QSARr>
[O-][N+](=O)C1C=CC(Cl)=CC=1C(F)(F)F

> <InChI_Code_QSARr>
InChI=1S/C7H3ClF3NO2/c8-4-1-2-6(12(13)14)5(3-4)7(9,10)11/h1-3H

> <InChI Key_QSARr>
CFPIGEXZPWTNOR-UHFFFAOYSA-N

> <Salt_Solvent>


> <Salt_Solvent_ID>
0

> <MPID>
98187

> <LogBCF>
1.87

> <Tr_1_Tst_0>
1

$$$$
100257
  Mrv171c012241911322D          

 10 10  0  0  0  0            999 V2000
    2.4124   -0.9130    0.0000 C   0  0  0  0  0  0  0  0  0  0  0  0
    1.6979   -1.3255    0.0000 C   0  0  0  0  0  0  0  0  0  0  0  0
    0.9835   -0.9130    0.0000 C   0  0  0  0  0  0  0  0  0  0  0  0
    0.9835   -0.0880    0.0000 Cl  0  0  0  0  0  0  0  0  0  0  0  0
    0.2690   -1.3255    0.0000 C   0  0  0  0  0  0  0  0  0  0  0  0
    0.2690   -2.1505    0.0000 C   0  0  0  0  0  0  0  0  0  0  0  0
    0.9835   -2.5630    0.0000 C   0  0  0  0  0  0  0  0  0  0  0  0
    1.6979   -2.1505    0.0000 C   0  0  0  0  0  0  0  0  0  0  0  0
    2.4124   -0.0880    0.0000 O   0  0  0  0  0  0  0  0  0  0  0  0
    3.1269   -1.3255    0.0000 O   0  0  0  0  0  0  0  0  0  0  0  0
  1  2  1  0  0  0  0
  3  2  1  0  0  0  0
  3  4  1  0  0  0  0
  5  3  2  0  0  0  0
  6  5  1  0  0  0  0
  7  6  2  0  0  0  0
  8  7  1  0  0  0  0
  2  8  2  0  0  0  0
  1  9  1  0  0  0  0
  1 10  2  0  0  0  0
M  END
> <ChemID>
100257

> <CAS>
118-91-2

> <Original_SMILES>
OC(=O)c1ccccc1Cl

> <preferred_name>
2-Chlorobenzoic acid

> <dsstox_substance_id>
DTXSID4024771

> <dsstox_compound_id>
DTXCID304771

> <qc_level>
DSSTox_High

> <Canonical_QSARr>
OC(=O)C1=CC=CC=C1Cl

> <InChI_Code_QSARr>
InChI=1S/C7H5ClO2/c8-6-4-2-1-3-5(6)7(9)10/h1-4H,(H,9,10)

> <InChI Key_QSARr>
IKCLCGXPQILATA-UHFFFAOYSA-N

> <Salt_Solvent>


> <Salt_Solvent_ID>
0

> <MPID>
98188

> <LogBCF>
1.0

> <Tr_1_Tst_0>
1

$$$$
100258
  Mrv171c012241911322D          

 16 16  0  0  0  0            999 V2000
    2.8562   -1.8600    0.0000 C   0  0  0  0  0  0  0  0  0  0  0  0
    2.8562   -1.0350    0.0000 C   0  0  0  0  0  0  0  0  0  0  0  0
    2.1417   -0.6225    0.0000 C   0  0  0  0  0  0  0  0  0  0  0  0
    2.1417    0.2025    0.0000 N   0  3  0  0  0  0  0  0  0  0  0  0
    2.8562    0.6150    0.0000 O   0  0  0  0  0  0  0  0  0  0  0  0
    1.4272    0.6150    0.0000 O   0  5  0  0  0  0  0  0  0  0  0  0
    1.4272   -1.0350    0.0000 C   0  0  0  0  0  0  0  0  0  0  0  0
    1.4272   -1.8600    0.0000 C   0  0  0  0  0  0  0  0  0  0  0  0
    0.7128   -2.2725    0.0000 N   0  3  0  0  0  0  0  0  0  0  0  0
    0.7128   -3.0975    0.0000 O   0  0  0  0  0  0  0  0  0  0  0  0
   -0.0017   -1.8600    0.0000 O   0  5  0  0  0  0  0  0  0  0  0  0
    2.1417   -2.2725    0.0000 C   0  0  0  0  0  0  0  0  0  0  0  0
    2.1417   -3.0975    0.0000 C   0  0  0  0  0  0  0  0  0  0  0  0
    3.5707   -2.2725    0.0000 N   0  3  0  0  0  0  0  0  0  0  0  0
    3.5707   -3.0975    0.0000 O   0  0  0  0  0  0  0  0  0  0  0  0
    4.2851   -1.8600    0.0000 O   0  5  0  0  0  0  0  0  0  0  0  0
  2  1  2  0  0  0  0
  3  2  1  0  0  0  0
  3  4  1  0  0  0  0
  4  5  2  0  0  0  0
  4  6  1  0  0  0  0
  7  3  2  0  0  0  0
  8  7  1  0  0  0  0
  8  9  1  0  0  0  0
  9 10  2  0  0  0  0
  9 11  1  0  0  0  0
 12  8  2  0  0  0  0
  1 12  1  0  0  0  0
 12 13  1  0  0  0  0
  1 14  1  0  0  0  0
 14 15  2  0  0  0  0
 14 16  1  0  0  0  0
M  CHG  6   4   1   6  -1   9   1  11  -1  14   1  16  -1
M  END
> <ChemID>
100258

> <CAS>
118-96-7

> <Original_SMILES>
Cc1c(cc(cc1[N+]([O-])=O)[N+]([O-])=O)[N+]([O-])=O

> <preferred_name>
2,4,6-Trinitrotoluene

> <dsstox_substance_id>
DTXSID7024372

> <dsstox_compound_id>
DTXCID904372

> <qc_level>
DSSTox_Low

> <Canonical_QSARr>
CC1C(=CC(=CC=1[N+]([O-])=O)[N+]([O-])=O)[N+]([O-])=O

> <InChI_Code_QSARr>
InChI=1S/C7H5N3O6/c1-4-6(9(13)14)2-5(8(11)12)3-7(4)10(15)16/h2-3H,1H3

> <InChI Key_QSARr>
SPSSULHKWOKEEL-UHFFFAOYSA-N

> <Salt_Solvent>


> <Salt_Solvent_ID>
0

> <MPID>
98189

> <LogBCF>
0.99

> <Tr_1_Tst_0>
0

$$$$
100259
  Mrv171c012241911322D          

 22 23  0  0  0  0            999 V2000
    4.1333   -3.6966    0.0000 P   0  0  0  0  0  0  0  0  0  0  0  0
    4.8478   -4.1091    0.0000 O   0  0  0  0  0  0  0  0  0  0  0  0
    4.8478   -4.9341    0.0000 C   0  0  0  0  0  0  0  0  0  0  0  0
    5.5622   -5.3466    0.0000 C   0  0  0  0  0  0  0  0  0  0  0  0
    4.5458   -2.9822    0.0000 O   0  0  0  0  0  0  0  0  0  0  0  0
    5.3708   -2.9822    0.0000 C   0  0  0  0  0  0  0  0  0  0  0  0
    5.7833   -3.6966    0.0000 C   0  0  0  0  0  0  0  0  0  0  0  0
    3.4188   -3.2841    0.0000 O   0  0  0  0  0  0  0  0  0  0  0  0
    3.4188   -2.4591    0.0000 C   0  0  0  0  0  0  0  0  0  0  0  0
    4.1333   -2.0466    0.0000 C   0  0  0  0  0  0  0  0  0  0  0  0
    4.1333   -1.2216    0.0000 C   0  0  0  0  0  0  0  0  0  0  0  0
    3.4188   -0.8091    0.0000 C   0  0  0  0  0  0  0  0  0  0  0  0
    3.4188    0.0159    0.0000 O   0  0  0  0  0  0  0  0  0  0  0  0
    2.7043   -1.2216    0.0000 N   0  0  0  0  0  0  0  0  0  0  0  0
    1.9899   -0.8091    0.0000 C   0  0  0  0  0  0  0  0  0  0  0  0
    1.9899    0.0159    0.0000 C   0  0  0  0  0  0  0  0  0  0  0  0
    1.2754    0.4284    0.0000 C   0  0  0  0  0  0  0  0  0  0  0  0
    0.5609    0.0159    0.0000 C   0  0  0  0  0  0  0  0  0  0  0  0
    0.5609   -0.8091    0.0000 C   0  0  0  0  0  0  0  0  0  0  0  0
    1.2754   -1.2216    0.0000 C   0  0  0  0  0  0  0  0  0  0  0  0
    2.7043   -2.0466    0.0000 N   0  0  0  0  0  0  0  0  0  0  0  0
    3.7208   -4.4111    0.0000 S   0  0  0  0  0  0  0  0  0  0  0  0
  1  2  1  0  0  0  0
  2  3  1  0  0  0  0
  3  4  1  0  0  0  0
  1  5  1  0  0  0  0
  5  6  1  0  0  0  0
  6  7  1  0  0  0  0
  1  8  1  0  0  0  0
  8  9  1  0  0  0  0
 10  9  1  0  0  0  0
 11 10  2  0  0  0  0
 12 11  1  0  0  0  0
 12 13  2  0  0  0  0
 14 12  1  0  0  0  0
 14 15  1  0  0  0  0
 16 15  1  0  0  0  0
 17 16  2  0  0  0  0
 18 17  1  0  0  0  0
 19 18  2  0  0  0  0
 20 19  1  0  0  0  0
 15 20  2  0  0  0  0
 21 14  1  0  0  0  0
  9 21  2  0  0  0  0
  1 22  2  0  0  0  0
M  END
> <ChemID>
100259

> <CAS>
119-12-0

> <Original_SMILES>
CCOP(=S)(OC1C=CC(=O)N(N=1)c1ccccc1)OCC

> <preferred_name>
Pyridaphenthion

> <dsstox_substance_id>
DTXSID2042355

> <dsstox_compound_id>
DTXCID0022355

> <qc_level>
DSSTox_High

> <Canonical_QSARr>
CCOP(=S)(OC1C=CC(=O)N(N=1)C1C=CC=CC=1)OCC

> <InChI_Code_QSARr>
InChI=1S/C14H17N2O4PS/c1-3-18-21(22,19-4-2)20-13-10-11-14(17)16(15-13)12-8-6-5-7-9-12/h5-11H,3-4H2,1-2H3

> <InChI Key_QSARr>
CXJSOEPQXUCJSA-UHFFFAOYSA-N

> <Salt_Solvent>


> <Salt_Solvent_ID>
0

> <MPID>
98190

> <LogBCF>
0.67

> <Tr_1_Tst_0>
1

$$$$
100260
  Mrv171c012241911322D          

 11 11  0  0  0  0            999 V2000
    1.6235   -1.9530    0.0000 C   0  0  0  0  0  0  0  0  0  0  0  0
    2.3380   -1.5405    0.0000 C   0  0  0  0  0  0  0  0  0  0  0  0
    2.3380   -0.7155    0.0000 C   0  0  0  0  0  0  0  0  0  0  0  0
    1.6235   -0.3030    0.0000 C   0  0  0  0  0  0  0  0  0  0  0  0
    1.6235    0.5220    0.0000 C   0  0  0  0  0  0  0  0  0  0  0  0
    0.9090   -0.7155    0.0000 C   0  0  0  0  0  0  0  0  0  0  0  0
    0.9090   -1.5405    0.0000 C   0  0  0  0  0  0  0  0  0  0  0  0
    0.1946   -1.9530    0.0000 N   0  3  0  0  0  0  0  0  0  0  0  0
    0.1946   -2.7780    0.0000 O   0  0  0  0  0  0  0  0  0  0  0  0
   -0.5199   -1.5405    0.0000 O   0  5  0  0  0  0  0  0  0  0  0  0
    1.6235   -2.7780    0.0000 O   0  0  0  0  0  0  0  0  0  0  0  0
  2  1  1  0  0  0  0
  3  2  2  0  0  0  0
  4  3  1  0  0  0  0
  4  5  1  0  0  0  0
  6  4  2  0  0  0  0
  7  6  1  0  0  0  0
  1  7  2  0  0  0  0
  7  8  1  0  0  0  0
  8  9  2  0  0  0  0
  8 10  1  0  0  0  0
  1 11  1  0  0  0  0
M  CHG  2   8   1  10  -1
M  END
> <ChemID>
100260

> <CAS>
119-33-5

> <Original_SMILES>
Cc1cc(c(O)cc1)[N+]([O-])=O

> <preferred_name>
4-Methyl-2-nitrophenol

> <dsstox_substance_id>
DTXSID0026961

> <dsstox_compound_id>
DTXCID606961

> <qc_level>
DSSTox_Low

> <Canonical_QSARr>
CC1=CC(=C(O)C=C1)[N+]([O-])=O

> <InChI_Code_QSARr>
InChI=1S/C7H7NO3/c1-5-2-3-7(9)6(4-5)8(10)11/h2-4,9H,1H3

> <InChI Key_QSARr>
SYDNSSSQVSOXTN-UHFFFAOYSA-N

> <Salt_Solvent>


> <Salt_Solvent_ID>
0

> <MPID>
98191

> <LogBCF>
0.95

> <Tr_1_Tst_0>
1

$$$$
100261
  Mrv171c012241911322D          

 25 26  0  0  0  0            999 V2000
    2.8621   -1.6570    0.0000 O   0  0  0  0  0  0  0  0  0  0  0  0
    2.1477   -2.0695    0.0000 C   0  0  0  0  0  0  0  0  0  0  0  0
    1.4332   -1.6570    0.0000 C   0  0  0  0  0  0  0  0  0  0  0  0
    1.4332   -0.8320    0.0000 C   0  0  0  0  0  0  0  0  0  0  0  0
    1.4332   -0.0070    0.0000 C   0  0  0  0  0  0  0  0  0  0  0  0
    0.6082   -0.8320    0.0000 C   0  0  0  0  0  0  0  0  0  0  0  0
    2.2582   -0.8320    0.0000 C   0  0  0  0  0  0  0  0  0  0  0  0
    0.7187   -2.0695    0.0000 C   0  0  0  0  0  0  0  0  0  0  0  0
    0.7187   -2.8945    0.0000 C   0  0  0  0  0  0  0  0  0  0  0  0
    0.0043   -3.3070    0.0000 C   0  0  0  0  0  0  0  0  0  0  0  0
    1.4332   -3.3070    0.0000 C   0  0  0  0  0  0  0  0  0  0  0  0
    2.1477   -2.8945    0.0000 C   0  0  0  0  0  0  0  0  0  0  0  0
    2.8621   -3.3070    0.0000 C   0  0  0  0  0  0  0  0  0  0  0  0
    3.5766   -2.8945    0.0000 C   0  0  0  0  0  0  0  0  0  0  0  0
    4.2911   -3.3070    0.0000 C   0  0  0  0  0  0  0  0  0  0  0  0
    4.2911   -4.1320    0.0000 O   0  0  0  0  0  0  0  0  0  0  0  0
    5.0055   -2.8945    0.0000 C   0  0  0  0  0  0  0  0  0  0  0  0
    5.7200   -3.3070    0.0000 C   0  0  0  0  0  0  0  0  0  0  0  0
    6.4345   -3.7195    0.0000 C   0  0  0  0  0  0  0  0  0  0  0  0
    5.3075   -4.0215    0.0000 C   0  0  0  0  0  0  0  0  0  0  0  0
    6.1325   -2.5926    0.0000 C   0  0  0  0  0  0  0  0  0  0  0  0
    5.0055   -2.0695    0.0000 C   0  0  0  0  0  0  0  0  0  0  0  0
    4.2911   -1.6570    0.0000 C   0  0  0  0  0  0  0  0  0  0  0  0
    4.2911   -0.8320    0.0000 C   0  0  0  0  0  0  0  0  0  0  0  0
    3.5766   -2.0695    0.0000 C   0  0  0  0  0  0  0  0  0  0  0  0
  1  2  1  0  0  0  0
  3  2  1  0  0  0  0
  3  4  1  0  0  0  0
  4  5  1  0  0  0  0
  4  6  1  0  0  0  0
  4  7  1  0  0  0  0
  8  3  2  0  0  0  0
  9  8  1  0  0  0  0
  9 10  1  0  0  0  0
 11  9  2  0  0  0  0
 12 11  1  0  0  0  0
  2 12  2  0  0  0  0
 12 13  1  0  0  0  0
 13 14  1  0  0  0  0
 15 14  1  0  0  0  0
 15 16  1  0  0  0  0
 17 15  2  0  0  0  0
 17 18  1  0  0  0  0
 18 19  1  0  0  0  0
 18 20  1  0  0  0  0
 18 21  1  0  0  0  0
 22 17  1  0  0  0  0
 23 22  2  0  0  0  0
 23 24  1  0  0  0  0
 25 23  1  0  0  0  0
 14 25  2  0  0  0  0
M  END
> <ChemID>
100261

> <CAS>
119-47-1

> <Original_SMILES>
CC(C)(C)c1cc(C)cc(Cc2cc(C)cc(c2O)C(C)(C)C)c1O

> <preferred_name>
2,2'-Methylenebis(4-methyl-6-tert-butylphenol)

> <dsstox_substance_id>
DTXSID4020870

> <dsstox_compound_id>
DTXCID20870

> <qc_level>
DSSTox_Low

> <Canonical_QSARr>
CC(C)(C)C1=CC(C)=CC(CC2=CC(C)=CC(=C2O)C(C)(C)C)=C1O

> <InChI_Code_QSARr>
InChI=1S/C23H32O2/c1-14-9-16(20(24)18(11-14)22(3,4)5)13-17-10-15(2)12-19(21(17)25)23(6,7)8/h9-12,24-25H,13H2,1-8H3

> <InChI Key_QSARr>
KGRVJHAUYBGFFP-UHFFFAOYSA-N

> <Salt_Solvent>


> <Salt_Solvent_ID>
0

> <MPID>
98192

> <LogBCF>
2.74

> <Tr_1_Tst_0>
1

$$$$
100262
  Mrv171c012241911322D          

 15 16  0  0  0  0            999 V2000
    1.8496   -0.8458    0.0000 C   0  0  0  0  0  0  0  0  0  0  0  0
    2.5641   -1.2583    0.0000 C   0  0  0  0  0  0  0  0  0  0  0  0
    2.5641   -2.0833    0.0000 C   0  0  0  0  0  0  0  0  0  0  0  0
    1.8496   -2.4958    0.0000 C   0  0  0  0  0  0  0  0  0  0  0  0
    1.8496   -3.3208    0.0000 C   0  0  0  0  0  0  0  0  0  0  0  0
    2.5641   -3.7333    0.0000 C   0  0  0  0  0  0  0  0  0  0  0  0
    3.2785   -3.3208    0.0000 C   0  0  0  0  0  0  0  0  0  0  0  0
    3.2785   -2.4958    0.0000 C   0  0  0  0  0  0  0  0  0  0  0  0
    3.2785   -0.8458    0.0000 O   0  0  0  0  0  0  0  0  0  0  0  0
    1.8496   -0.0208    0.0000 C   0  0  0  0  0  0  0  0  0  0  0  0
    1.1351    0.3917    0.0000 C   0  0  0  0  0  0  0  0  0  0  0  0
    0.4207   -0.0208    0.0000 C   0  0  0  0  0  0  0  0  0  0  0  0
   -0.2938    0.3917    0.0000 Cl  0  0  0  0  0  0  0  0  0  0  0  0
    0.4207   -0.8458    0.0000 C   0  0  0  0  0  0  0  0  0  0  0  0
    1.1351   -1.2583    0.0000 C   0  0  0  0  0  0  0  0  0  0  0  0
  1  2  1  0  0  0  0
  2  3  1  0  0  0  0
  4  3  1  0  0  0  0
  5  4  2  0  0  0  0
  6  5  1  0  0  0  0
  7  6  2  0  0  0  0
  8  7  1  0  0  0  0
  3  8  2  0  0  0  0
  2  9  1  0  0  0  0
 10  1  1  0  0  0  0
 11 10  2  0  0  0  0
 12 11  1  0  0  0  0
 12 13  1  0  0  0  0
 14 12  2  0  0  0  0
 15 14  1  0  0  0  0
  1 15  2  0  0  0  0
M  END
> <ChemID>
100262

> <CAS>
119-56-2

> <Original_SMILES>
OC(c1ccccc1)c1ccc(Cl)cc1

> <preferred_name>


> <dsstox_substance_id>
DTXSID50870472

> <dsstox_compound_id>
DTXCID10818193

> <qc_level>


> <Canonical_QSARr>
OC(C1C=CC=CC=1)C1C=CC(Cl)=CC=1

> <InChI_Code_QSARr>
InChI=1S/C13H11ClO/c14-12-8-6-11(7-9-12)13(15)10-4-2-1-3-5-10/h1-9,13,15H

> <InChI Key_QSARr>
AJYOOHCNOXWTKJ-UHFFFAOYSA-N

> <Salt_Solvent>


> <Salt_Solvent_ID>
0

> <MPID>
98193

> <LogBCF>
1.79

> <Tr_1_Tst_0>
0

$$$$
100263
  Mrv171c012241911322D          

 14 15  0  0  0  0            999 V2000
    3.4173   -2.3837    0.0000 C   0  0  0  0  0  0  0  0  0  0  0  0
    2.7029   -1.9712    0.0000 C   0  0  0  0  0  0  0  0  0  0  0  0
    2.7029   -1.1462    0.0000 C   0  0  0  0  0  0  0  0  0  0  0  0
    1.9884   -0.7337    0.0000 C   0  0  0  0  0  0  0  0  0  0  0  0
    1.9884    0.0913    0.0000 C   0  0  0  0  0  0  0  0  0  0  0  0
    1.2739    0.5038    0.0000 C   0  0  0  0  0  0  0  0  0  0  0  0
    0.5595    0.0913    0.0000 C   0  0  0  0  0  0  0  0  0  0  0  0
    0.5595   -0.7337    0.0000 C   0  0  0  0  0  0  0  0  0  0  0  0
    1.2739   -1.1462    0.0000 C   0  0  0  0  0  0  0  0  0  0  0  0
    3.4173   -0.7337    0.0000 O   0  0  0  0  0  0  0  0  0  0  0  0
    1.9884   -2.3837    0.0000 C   0  0  0  0  0  0  0  0  0  0  0  0
    1.9884   -3.2087    0.0000 C   0  0  0  0  0  0  0  0  0  0  0  0
    2.7029   -3.6212    0.0000 C   0  0  0  0  0  0  0  0  0  0  0  0
    3.4173   -3.2087    0.0000 C   0  0  0  0  0  0  0  0  0  0  0  0
  2  1  1  0  0  0  0
  2  3  1  0  0  0  0
  3  4  1  0  0  0  0
  5  4  1  0  0  0  0
  6  5  2  0  0  0  0
  7  6  1  0  0  0  0
  8  7  2  0  0  0  0
  9  8  1  0  0  0  0
  4  9  2  0  0  0  0
  3 10  2  0  0  0  0
 11  2  2  0  0  0  0
 12 11  1  0  0  0  0
 13 12  2  0  0  0  0
 14 13  1  0  0  0  0
  1 14  2  0  0  0  0
M  END
> <ChemID>
100263

> <CAS>
119-61-9

> <Original_SMILES>
O=C(c1ccccc1)c1ccccc1

> <preferred_name>
Benzophenone

> <dsstox_substance_id>
DTXSID0021961

> <dsstox_compound_id>
DTXCID101961

> <qc_level>
DSSTox_Low

> <Canonical_QSARr>
O=C(C1C=CC=CC=1)C1C=CC=CC=1

> <InChI_Code_QSARr>
InChI=1S/C13H10O/c14-13(11-7-3-1-4-8-11)12-9-5-2-6-10-12/h1-10H

> <InChI Key_QSARr>
RWCCWEUUXYIKHB-UHFFFAOYSA-N

> <Salt_Solvent>


> <Salt_Solvent_ID>
0

> <MPID>
98194

> <LogBCF>
1.08

> <Tr_1_Tst_0>
1

$$$$
100264
  Mrv171c012241911322D          

 10 11  0  0  0  0            999 V2000
    1.4297   -0.4125    0.0000 C   0  0  0  0  0  0  0  0  0  0  0  0
    0.7153    0.0000    0.0000 C   0  0  0  0  0  0  0  0  0  0  0  0
    0.0008   -0.4125    0.0000 C   0  0  0  0  0  0  0  0  0  0  0  0
    0.0008   -1.2375    0.0000 C   0  0  0  0  0  0  0  0  0  0  0  0
    0.7153   -1.6500    0.0000 C   0  0  0  0  0  0  0  0  0  0  0  0
    1.4297   -1.2375    0.0000 C   0  0  0  0  0  0  0  0  0  0  0  0
    2.1442   -1.6500    0.0000 C   0  0  0  0  0  0  0  0  0  0  0  0
    2.8587   -1.2375    0.0000 C   0  0  0  0  0  0  0  0  0  0  0  0
    2.8587   -0.4125    0.0000 C   0  0  0  0  0  0  0  0  0  0  0  0
    2.1442    0.0000    0.0000 C   0  0  0  0  0  0  0  0  0  0  0  0
  2  1  1  0  0  0  0
  3  2  2  0  0  0  0
  4  3  1  0  0  0  0
  5  4  2  0  0  0  0
  6  5  1  0  0  0  0
  6  1  2  0  0  0  0
  7  6  1  0  0  0  0
  8  7  1  0  0  0  0
  9  8  1  0  0  0  0
 10  9  1  0  0  0  0
  1 10  1  0  0  0  0
M  END
> <ChemID>
100264

> <CAS>
119-64-2

> <Original_SMILES>
C1CCCc2ccccc21

> <preferred_name>
Tetralin

> <dsstox_substance_id>
DTXSID1026118

> <dsstox_compound_id>
DTXCID306118

> <qc_level>
DSSTox_Low

> <Canonical_QSARr>
C1CCCC2C=CC=CC=21

> <InChI_Code_QSARr>
InChI=1S/C10H12/c1-2-6-10-8-4-3-7-9(10)5-1/h1-2,5-6H,3-4,7-8H2

> <InChI Key_QSARr>
CXWXQJXEFPUFDZ-UHFFFAOYSA-N

> <Salt_Solvent>


> <Salt_Solvent_ID>
0

> <MPID>
98195

> <LogBCF>
2.53

> <Tr_1_Tst_0>
1

$$$$
100265
  Mrv171c012241911322D          

 16 17  0  0  0  0            999 V2000
    2.4884   -1.0382    0.0000 C   0  0  0  0  0  0  0  0  0  0  0  0
    3.2029   -0.6257    0.0000 C   0  0  0  0  0  0  0  0  0  0  0  0
    3.2029    0.1993    0.0000 C   0  0  0  0  0  0  0  0  0  0  0  0
    2.4884    0.6118    0.0000 C   0  0  0  0  0  0  0  0  0  0  0  0
    2.4884    1.4368    0.0000 N   0  0  0  0  0  0  0  0  0  0  0  0
    1.7740    0.1993    0.0000 C   0  0  0  0  0  0  0  0  0  0  0  0
    1.0595    0.6118    0.0000 C   0  0  0  0  0  0  0  0  0  0  0  0
    1.7740   -0.6257    0.0000 C   0  0  0  0  0  0  0  0  0  0  0  0
    2.4884   -1.8632    0.0000 C   0  0  0  0  0  0  0  0  0  0  0  0
    1.7740   -2.2757    0.0000 C   0  0  0  0  0  0  0  0  0  0  0  0
    1.7740   -3.1007    0.0000 C   0  0  0  0  0  0  0  0  0  0  0  0
    2.4884   -3.5132    0.0000 C   0  0  0  0  0  0  0  0  0  0  0  0
    2.4884   -4.3382    0.0000 N   0  0  0  0  0  0  0  0  0  0  0  0
    3.2029   -3.1007    0.0000 C   0  0  0  0  0  0  0  0  0  0  0  0
    3.9174   -3.5132    0.0000 C   0  0  0  0  0  0  0  0  0  0  0  0
    3.2029   -2.2757    0.0000 C   0  0  0  0  0  0  0  0  0  0  0  0
  2  1  2  0  0  0  0
  3  2  1  0  0  0  0
  4  3  2  0  0  0  0
  4  5  1  0  0  0  0
  6  4  1  0  0  0  0
  6  7  1  0  0  0  0
  8  6  2  0  0  0  0
  1  8  1  0  0  0  0
  1  9  1  0  0  0  0
 10  9  2  0  0  0  0
 11 10  1  0  0  0  0
 12 11  2  0  0  0  0
 12 13  1  0  0  0  0
 14 12  1  0  0  0  0
 14 15  1  0  0  0  0
 16 14  2  0  0  0  0
  9 16  1  0  0  0  0
M  END
> <ChemID>
100265

> <CAS>
119-93-7

> <Original_SMILES>
Cc1cc(ccc1N)-c1cc(C)c(N)cc1

> <preferred_name>
3,3'-Dimethylbenzidine

> <dsstox_substance_id>
DTXSID5024059

> <dsstox_compound_id>
DTXCID504059

> <qc_level>
DSSTox_Low

> <Canonical_QSARr>
CC1=CC(=CC=C1N)C1C=C(C)C(N)=CC=1

> <InChI_Code_QSARr>
InChI=1S/C14H16N2/c1-9-7-11(3-5-13(9)15)12-4-6-14(16)10(2)8-12/h3-8H,15-16H2,1-2H3

> <InChI Key_QSARr>
NUIURNJTPRWVAP-UHFFFAOYSA-N

> <Salt_Solvent>


> <Salt_Solvent_ID>
0

> <MPID>
98196

> <LogBCF>
1.67

> <Tr_1_Tst_0>
1

$$$$
100266
  Mrv171c012241911322D          

 14 16  0  0  0  0            999 V2000
    2.1385   -0.0041    0.0000 C   0  0  0  0  0  0  0  0  0  0  0  0
    2.8530   -0.4166    0.0000 C   0  0  0  0  0  0  0  0  0  0  0  0
    3.5675   -0.0041    0.0000 C   0  0  0  0  0  0  0  0  0  0  0  0
    4.2819   -0.4166    0.0000 C   0  0  0  0  0  0  0  0  0  0  0  0
    4.2819   -1.2416    0.0000 C   0  0  0  0  0  0  0  0  0  0  0  0
    3.5675   -1.6541    0.0000 C   0  0  0  0  0  0  0  0  0  0  0  0
    2.8530   -1.2416    0.0000 C   0  0  0  0  0  0  0  0  0  0  0  0
    2.1385   -1.6541    0.0000 C   0  0  0  0  0  0  0  0  0  0  0  0
    1.4240   -1.2416    0.0000 C   0  0  0  0  0  0  0  0  0  0  0  0
    0.7096   -1.6541    0.0000 C   0  0  0  0  0  0  0  0  0  0  0  0
   -0.0049   -1.2416    0.0000 C   0  0  0  0  0  0  0  0  0  0  0  0
   -0.0049   -0.4166    0.0000 C   0  0  0  0  0  0  0  0  0  0  0  0
    0.7096   -0.0041    0.0000 C   0  0  0  0  0  0  0  0  0  0  0  0
    1.4240   -0.4166    0.0000 C   0  0  0  0  0  0  0  0  0  0  0  0
  2  1  2  0  0  0  0
  2  3  1  0  0  0  0
  3  4  2  0  0  0  0
  4  5  1  0  0  0  0
  5  6  2  0  0  0  0
  6  7  1  0  0  0  0
  7  2  1  0  0  0  0
  8  7  2  0  0  0  0
  9  8  1  0  0  0  0
  9 10  1  0  0  0  0
 10 11  2  0  0  0  0
 11 12  1  0  0  0  0
 12 13  2  0  0  0  0
 13 14  1  0  0  0  0
  1 14  1  0  0  0  0
 14  9  2  0  0  0  0
M  END
> <ChemID>
100266

> <CAS>
120-12-7

> <Original_SMILES>
c1c2ccccc2cc2ccccc21

> <preferred_name>
Anthracene

> <dsstox_substance_id>
DTXSID0023878

> <dsstox_compound_id>
DTXCID203878

> <qc_level>
DSSTox_Low

> <Canonical_QSARr>
C1=C2C=CC=CC2=CC2C=CC=CC=21

> <InChI_Code_QSARr>
InChI=1S/C14H10/c1-2-6-12-10-14-8-4-3-7-13(14)9-11(12)5-1/h1-10H

> <InChI Key_QSARr>
MWPLVEDNUUSJAV-UHFFFAOYSA-N

> <Salt_Solvent>


> <Salt_Solvent_ID>
0

> <MPID>
98197

> <LogBCF>
3.26

> <Tr_1_Tst_0>
0

$$$$
100267
  Mrv171c012241911322D          

 20 21  0  0  0  0            999 V2000
    1.4280   -1.6536    0.0000 N   0  0  0  0  0  0  0  0  0  0  0  0
    2.1425   -1.2411    0.0000 C   0  0  0  0  0  0  0  0  0  0  0  0
    2.1425   -0.4161    0.0000 S   0  0  0  0  0  0  0  0  0  0  0  0
    2.8570   -1.6536    0.0000 S   0  0  0  0  0  0  0  0  0  0  0  0
    3.5715   -1.2411    0.0000 S   0  0  0  0  0  0  0  0  0  0  0  0
    4.2859   -1.6536    0.0000 S   0  0  0  0  0  0  0  0  0  0  0  0
    5.0004   -1.2411    0.0000 S   0  0  0  0  0  0  0  0  0  0  0  0
    5.7149   -1.6536    0.0000 C   0  0  0  0  0  0  0  0  0  0  0  0
    5.7149   -2.4786    0.0000 S   0  0  0  0  0  0  0  0  0  0  0  0
    6.4293   -1.2411    0.0000 N   0  0  0  0  0  0  0  0  0  0  0  0
    7.1438   -1.6536    0.0000 C   0  0  0  0  0  0  0  0  0  0  0  0
    7.8583   -1.2411    0.0000 C   0  0  0  0  0  0  0  0  0  0  0  0
    7.8583   -0.4161    0.0000 C   0  0  0  0  0  0  0  0  0  0  0  0
    7.1438   -0.0036    0.0000 C   0  0  0  0  0  0  0  0  0  0  0  0
    6.4293   -0.4161    0.0000 C   0  0  0  0  0  0  0  0  0  0  0  0
    0.7136   -1.2411    0.0000 C   0  0  0  0  0  0  0  0  0  0  0  0
   -0.0009   -1.6536    0.0000 C   0  0  0  0  0  0  0  0  0  0  0  0
   -0.0009   -2.4786    0.0000 C   0  0  0  0  0  0  0  0  0  0  0  0
    0.7136   -2.8911    0.0000 C   0  0  0  0  0  0  0  0  0  0  0  0
    1.4280   -2.4786    0.0000 C   0  0  0  0  0  0  0  0  0  0  0  0
  1  2  1  0  0  0  0
  2  3  2  0  0  0  0
  2  4  1  0  0  0  0
  4  5  1  0  0  0  0
  5  6  1  0  0  0  0
  6  7  1  0  0  0  0
  7  8  1  0  0  0  0
  8  9  2  0  0  0  0
  8 10  1  0  0  0  0
 11 10  1  0  0  0  0
 12 11  1  0  0  0  0
 13 12  1  0  0  0  0
 14 13  1  0  0  0  0
 15 14  1  0  0  0  0
 10 15  1  0  0  0  0
 16  1  1  0  0  0  0
 17 16  1  0  0  0  0
 18 17  1  0  0  0  0
 19 18  1  0  0  0  0
 20 19  1  0  0  0  0
  1 20  1  0  0  0  0
M  END
> <ChemID>
100267

> <CAS>
120-54-7

> <Original_SMILES>
S=C(SSSSC(=S)N1CCCCC1)N1CCCCC1

> <preferred_name>
Tetrasulfane-1,4-diylbis(piperidin-1-ylmethanethione)

> <dsstox_substance_id>
DTXSID0044789

> <dsstox_compound_id>
DTXCID8024789

> <qc_level>
DSSTox_Low

> <Canonical_QSARr>
S=C(SSSSC(=S)N1CCCCC1)N1CCCCC1

> <InChI_Code_QSARr>
InChI=1S/C12H20N2S6/c15-11(13-7-3-1-4-8-13)17-19-20-18-12(16)14-9-5-2-6-10-14/h1-10H2

> <InChI Key_QSARr>
VNDRMZTXEFFQDR-UHFFFAOYSA-N

> <Salt_Solvent>


> <Salt_Solvent_ID>
0

> <MPID>
98198

> <LogBCF>
1.23

> <Tr_1_Tst_0>
1

$$$$
100268
  Mrv171c012241911322D          

 10 10  0  0  0  0            999 V2000
    3.1277   -0.8182    0.0000 N   0  0  0  0  0  0  0  0  0  0  0  0
    2.4132   -1.2307    0.0000 C   0  0  0  0  0  0  0  0  0  0  0  0
    1.6987   -0.8182    0.0000 C   0  0  0  0  0  0  0  0  0  0  0  0
    1.6987    0.0068    0.0000 O   0  0  0  0  0  0  0  0  0  0  0  0
    0.9843    0.4193    0.0000 C   0  0  0  0  0  0  0  0  0  0  0  0
    0.9843   -1.2307    0.0000 C   0  0  0  0  0  0  0  0  0  0  0  0
    0.9843   -2.0557    0.0000 C   0  0  0  0  0  0  0  0  0  0  0  0
    1.6987   -2.4682    0.0000 C   0  0  0  0  0  0  0  0  0  0  0  0
    1.6987   -3.2932    0.0000 C   0  0  0  0  0  0  0  0  0  0  0  0
    2.4132   -2.0557    0.0000 C   0  0  0  0  0  0  0  0  0  0  0  0
  1  2  1  0  0  0  0
  3  2  1  0  0  0  0
  3  4  1  0  0  0  0
  4  5  1  0  0  0  0
  6  3  2  0  0  0  0
  7  6  1  0  0  0  0
  8  7  2  0  0  0  0
  8  9  1  0  0  0  0
 10  8  1  0  0  0  0
  2 10  2  0  0  0  0
M  END
> <ChemID>
100268

> <CAS>
120-71-8

> <Original_SMILES>
Cc1ccc(OC)c(N)c1

> <preferred_name>
2-Methoxy-5-methylaniline

> <dsstox_substance_id>
DTXSID1020350

> <dsstox_compound_id>
DTXCID30350

> <qc_level>
DSSTox_Low

> <Canonical_QSARr>
CC1C=C(N)C(=CC=1)OC

> <InChI_Code_QSARr>
InChI=1S/C8H11NO/c1-6-3-4-8(10-2)7(9)5-6/h3-5H,9H2,1-2H3

> <InChI Key_QSARr>
WXWCDTXEKCVRRO-UHFFFAOYSA-N

> <Salt_Solvent>


> <Salt_Solvent_ID>
0

> <MPID>
98199

> <LogBCF>
0.55

> <Tr_1_Tst_0>
1

$$$$
100269
  Mrv171c012241911322D          

 20 23  0  0  0  0            999 V2000
    2.2120   -2.2065    0.0000 N   0  0  0  0  0  0  0  0  0  0  0  0
    1.4274   -1.9516    0.0000 C   0  0  0  0  0  0  0  0  0  0  0  0
    0.7129   -2.3641    0.0000 C   0  0  0  0  0  0  0  0  0  0  0  0
   -0.0016   -1.9516    0.0000 C   0  0  0  0  0  0  0  0  0  0  0  0
   -0.0016   -1.1266    0.0000 C   0  0  0  0  0  0  0  0  0  0  0  0
    0.7129   -0.7141    0.0000 C   0  0  0  0  0  0  0  0  0  0  0  0
    1.4274   -1.1266    0.0000 C   0  0  0  0  0  0  0  0  0  0  0  0
    2.2120   -0.8716    0.0000 S   0  0  0  0  0  0  0  0  0  0  0  0
    2.6969   -1.5391    0.0000 C   0  0  0  0  0  0  0  0  0  0  0  0
    3.5219   -1.5391    0.0000 S   0  0  0  0  0  0  0  0  0  0  0  0
    3.9344   -0.8246    0.0000 S   0  0  0  0  0  0  0  0  0  0  0  0
    4.7594   -0.8246    0.0000 C   0  0  0  0  0  0  0  0  0  0  0  0
    5.2444   -0.1572    0.0000 S   0  0  0  0  0  0  0  0  0  0  0  0
    6.0290   -0.4121    0.0000 C   0  0  0  0  0  0  0  0  0  0  0  0
    6.7435    0.0004    0.0000 C   0  0  0  0  0  0  0  0  0  0  0  0
    7.4579   -0.4121    0.0000 C   0  0  0  0  0  0  0  0  0  0  0  0
    7.4579   -1.2371    0.0000 C   0  0  0  0  0  0  0  0  0  0  0  0
    6.7435   -1.6496    0.0000 C   0  0  0  0  0  0  0  0  0  0  0  0
    6.0290   -1.2371    0.0000 C   0  0  0  0  0  0  0  0  0  0  0  0
    5.2444   -1.4920    0.0000 N   0  0  0  0  0  0  0  0  0  0  0  0
  2  1  1  0  0  0  0
  2  3  1  0  0  0  0
  3  4  2  0  0  0  0
  4  5  1  0  0  0  0
  5  6  2  0  0  0  0
  6  7  1  0  0  0  0
  7  2  2  0  0  0  0
  8  7  1  0  0  0  0
  9  8  1  0  0  0  0
  1  9  2  0  0  0  0
  9 10  1  0  0  0  0
 10 11  1  0  0  0  0
 11 12  1  0  0  0  0
 13 12  1  0  0  0  0
 14 13  1  0  0  0  0
 14 15  1  0  0  0  0
 15 16  2  0  0  0  0
 16 17  1  0  0  0  0
 17 18  2  0  0  0  0
 18 19  1  0  0  0  0
 19 14  2  0  0  0  0
 20 19  1  0  0  0  0
 12 20  2  0  0  0  0
M  END
> <ChemID>
100269

> <CAS>
120-78-5

> <Original_SMILES>
c1cccc2[s]c([n]c21)SSc1[n]c2ccccc2[s]1

> <preferred_name>
2,2'-Dithiobisbenzothiazole

> <dsstox_substance_id>
DTXSID1020146

> <dsstox_compound_id>
DTXCID70146

> <qc_level>
DSSTox_Low

> <Canonical_QSARr>
C1=CC=CC2SC(=NC=21)SSC1=NC2C=CC=CC=2S1

> <InChI_Code_QSARr>
InChI=1S/C14H8N2S4/c1-3-7-11-9(5-1)15-13(17-11)19-20-14-16-10-6-2-4-8-12(10)18-14/h1-8H

> <InChI Key_QSARr>
AFZSMODLJJCVPP-UHFFFAOYSA-N

> <Salt_Solvent>


> <Salt_Solvent_ID>
0

> <MPID>
98200

> <LogBCF>
1.42

> <Tr_1_Tst_0>
1

$$$$
100270
  Mrv171c012241911322D          

  9  9  0  0  0  0            999 V2000
    1.7473   -2.4749    0.0000 Cl  0  0  0  0  0  0  0  0  0  0  0  0
    1.7473   -1.6499    0.0000 C   0  0  0  0  0  0  0  0  0  0  0  0
    2.4618   -1.2374    0.0000 C   0  0  0  0  0  0  0  0  0  0  0  0
    2.4618   -0.4124    0.0000 C   0  0  0  0  0  0  0  0  0  0  0  0
    1.7473    0.0001    0.0000 C   0  0  0  0  0  0  0  0  0  0  0  0
    1.7473    0.8251    0.0000 Cl  0  0  0  0  0  0  0  0  0  0  0  0
    1.0328   -0.4124    0.0000 C   0  0  0  0  0  0  0  0  0  0  0  0
    1.0328   -1.2374    0.0000 C   0  0  0  0  0  0  0  0  0  0  0  0
    0.3184   -1.6499    0.0000 Cl  0  0  0  0  0  0  0  0  0  0  0  0
  1  2  1  0  0  0  0
  3  2  1  0  0  0  0
  4  3  2  0  0  0  0
  5  4  1  0  0  0  0
  5  6  1  0  0  0  0
  7  5  2  0  0  0  0
  8  7  1  0  0  0  0
  2  8  2  0  0  0  0
  8  9  1  0  0  0  0
M  END
> <ChemID>
100270

> <CAS>
120-82-1

> <Original_SMILES>
Clc1cc(Cl)c(Cl)cc1

> <preferred_name>
1,2,4-Trichlorobenzene

> <dsstox_substance_id>
DTXSID0021965

> <dsstox_compound_id>
DTXCID701965

> <qc_level>
DSSTox_High

> <Canonical_QSARr>
ClC1=CC(Cl)=C(Cl)C=C1

> <InChI_Code_QSARr>
InChI=1S/C6H3Cl3/c7-4-1-2-5(8)6(9)3-4/h1-3H

> <InChI Key_QSARr>
PBKONEOXTCPAFI-UHFFFAOYSA-N

> <Salt_Solvent>


> <Salt_Solvent_ID>
0

> <MPID>
98201

> <LogBCF>
3.32

> <Tr_1_Tst_0>
0

$$$$
100271
  Mrv171c012241911322D          

  9  9  0  0  0  0            999 V2000
    2.5410   -1.6499    0.0000 Cl  0  0  0  0  0  0  0  0  0  0  0  0
    1.8265   -1.2374    0.0000 C   0  0  0  0  0  0  0  0  0  0  0  0
    1.8265   -0.4124    0.0000 C   0  0  0  0  0  0  0  0  0  0  0  0
    1.1121    0.0001    0.0000 C   0  0  0  0  0  0  0  0  0  0  0  0
    1.1121    0.8251    0.0000 Cl  0  0  0  0  0  0  0  0  0  0  0  0
    0.3976   -0.4124    0.0000 C   0  0  0  0  0  0  0  0  0  0  0  0
    0.3976   -1.2374    0.0000 C   0  0  0  0  0  0  0  0  0  0  0  0
    1.1121   -1.6499    0.0000 C   0  0  0  0  0  0  0  0  0  0  0  0
    1.1121   -2.4749    0.0000 O   0  0  0  0  0  0  0  0  0  0  0  0
  1  2  1  0  0  0  0
  3  2  1  0  0  0  0
  4  3  2  0  0  0  0
  4  5  1  0  0  0  0
  6  4  1  0  0  0  0
  7  6  2  0  0  0  0
  8  7  1  0  0  0  0
  2  8  2  0  0  0  0
  8  9  1  0  0  0  0
M  END
> <ChemID>
100271

> <CAS>
120-83-2

> <Original_SMILES>
Oc1ccc(Cl)cc1Cl

> <preferred_name>
2,4-Dichlorophenol

> <dsstox_substance_id>
DTXSID1020439

> <dsstox_compound_id>
DTXCID70439

> <qc_level>
DSSTox_Low

> <Canonical_QSARr>
OC1C=CC(Cl)=CC=1Cl

> <InChI_Code_QSARr>
InChI=1S/C6H4Cl2O/c7-4-1-2-6(9)5(8)3-4/h1-3,9H

> <InChI Key_QSARr>
HFZWRUODUSTPEG-UHFFFAOYSA-N

> <Salt_Solvent>


> <Salt_Solvent_ID>
0

> <MPID>
98202

> <LogBCF>
1.53

> <Tr_1_Tst_0>
1

$$$$
100272
  Mrv171c012241911322D          

 13 13  0  0  0  0            999 V2000
    2.6359   -2.9487    0.0000 C   0  0  0  0  0  0  0  0  0  0  0  0
    2.6359   -2.1237    0.0000 C   0  0  0  0  0  0  0  0  0  0  0  0
    3.3504   -1.7112    0.0000 C   0  0  0  0  0  0  0  0  0  0  0  0
    3.3504   -0.8862    0.0000 C   0  0  0  0  0  0  0  0  0  0  0  0
    2.6359   -0.4737    0.0000 C   0  0  0  0  0  0  0  0  0  0  0  0
    2.6359    0.3513    0.0000 N   0  3  0  0  0  0  0  0  0  0  0  0
    1.9215    0.7638    0.0000 O   0  5  0  0  0  0  0  0  0  0  0  0
    3.3504    0.7638    0.0000 O   0  0  0  0  0  0  0  0  0  0  0  0
    1.9215   -0.8862    0.0000 C   0  0  0  0  0  0  0  0  0  0  0  0
    1.9215   -1.7112    0.0000 C   0  0  0  0  0  0  0  0  0  0  0  0
    1.2070   -2.1237    0.0000 N   0  3  0  0  0  0  0  0  0  0  0  0
    1.2070   -2.9487    0.0000 O   0  5  0  0  0  0  0  0  0  0  0  0
    0.4925   -1.7112    0.0000 O   0  0  0  0  0  0  0  0  0  0  0  0
  1  2  1  0  0  0  0
  3  2  1  0  0  0  0
  4  3  2  0  0  0  0
  5  4  1  0  0  0  0
  5  6  1  0  0  0  0
  6  7  1  0  0  0  0
  6  8  2  0  0  0  0
  9  5  2  0  0  0  0
 10  9  1  0  0  0  0
  2 10  2  0  0  0  0
 10 11  1  0  0  0  0
 11 12  1  0  0  0  0
 11 13  2  0  0  0  0
M  CHG  4   6   1   7  -1  11   1  12  -1
M  END
> <ChemID>
100272

> <CAS>
121-14-2

> <Original_SMILES>
Cc1ccc(cc1[N+]([O-])=O)[N+]([O-])=O

> <preferred_name>
2,4-Dinitrotoluene

> <dsstox_substance_id>
DTXSID0020529

> <dsstox_compound_id>
DTXCID60529

> <qc_level>
DSSTox_High

> <Canonical_QSARr>
CC1C=CC(=CC=1[N+]([O-])=O)[N+]([O-])=O

> <InChI_Code_QSARr>
InChI=1S/C7H6N2O4/c1-5-2-3-6(8(10)11)4-7(5)9(12)13/h2-4H,1H3

> <InChI Key_QSARr>
RMBFBMJGBANMMK-UHFFFAOYSA-N

> <Salt_Solvent>


> <Salt_Solvent_ID>
0

> <MPID>
98203

> <LogBCF>
0.96

> <Tr_1_Tst_0>
1

$$$$
100273
  Mrv171c012241911322D          

  7  6  0  0  0  0            999 V2000
    2.6512   -2.0431    0.0000 C   0  0  0  0  0  0  0  0  0  0  0  0
    2.2387   -1.3286    0.0000 C   0  0  0  0  0  0  0  0  0  0  0  0
    1.4137   -1.3286    0.0000 N   0  0  0  0  0  0  0  0  0  0  0  0
    1.0012   -0.6142    0.0000 C   0  0  0  0  0  0  0  0  0  0  0  0
    0.1762   -0.6142    0.0000 C   0  0  0  0  0  0  0  0  0  0  0  0
    1.0012   -2.0431    0.0000 C   0  0  0  0  0  0  0  0  0  0  0  0
    0.1762   -2.0431    0.0000 C   0  0  0  0  0  0  0  0  0  0  0  0
  1  2  1  0  0  0  0
  2  3  1  0  0  0  0
  3  4  1  0  0  0  0
  4  5  1  0  0  0  0
  3  6  1  0  0  0  0
  6  7  1  0  0  0  0
M  END
> <ChemID>
100273

> <CAS>
121-44-8

> <Original_SMILES>
CCN(CC)CC

> <preferred_name>
Triethylamine

> <dsstox_substance_id>
DTXSID3024366

> <dsstox_compound_id>
DTXCID204366

> <qc_level>
DSSTox_High

> <Canonical_QSARr>
CCN(CC)CC

> <InChI_Code_QSARr>
InChI=1S/C6H15N/c1-4-7(5-2)6-3/h4-6H2,1-3H3

> <InChI Key_QSARr>
ZMANZCXQSJIPKH-UHFFFAOYSA-N

> <Salt_Solvent>


> <Salt_Solvent_ID>
0

> <MPID>
98204

> <LogBCF>
0.69

> <Tr_1_Tst_0>
1

$$$$
100274
  Mrv171c012241911322D          

  9  9  0  0  0  0            999 V2000
    2.1337    0.7064    0.0000 C   0  0  0  0  0  0  0  0  0  0  0  0
    1.4193    0.2939    0.0000 N   0  0  0  0  0  0  0  0  0  0  0  0
    0.7048    0.7064    0.0000 C   0  0  0  0  0  0  0  0  0  0  0  0
    1.4193   -0.5311    0.0000 C   0  0  0  0  0  0  0  0  0  0  0  0
    0.7048   -0.9436    0.0000 C   0  0  0  0  0  0  0  0  0  0  0  0
    0.7048   -1.7686    0.0000 C   0  0  0  0  0  0  0  0  0  0  0  0
    1.4193   -2.1811    0.0000 C   0  0  0  0  0  0  0  0  0  0  0  0
    2.1337   -1.7686    0.0000 C   0  0  0  0  0  0  0  0  0  0  0  0
    2.1337   -0.9436    0.0000 C   0  0  0  0  0  0  0  0  0  0  0  0
  1  2  1  0  0  0  0
  2  3  1  0  0  0  0
  2  4  1  0  0  0  0
  5  4  1  0  0  0  0
  6  5  2  0  0  0  0
  7  6  1  0  0  0  0
  8  7  2  0  0  0  0
  9  8  1  0  0  0  0
  4  9  2  0  0  0  0
M  END
> <ChemID>
100274

> <CAS>
121-69-7

> <Original_SMILES>
CN(C)c1ccccc1

> <preferred_name>
N,N-Dimethylaniline

> <dsstox_substance_id>
DTXSID2020507

> <dsstox_compound_id>
DTXCID60507

> <qc_level>
DSSTox_Low

> <Canonical_QSARr>
CN(C)C1C=CC=CC=1

> <InChI_Code_QSARr>
InChI=1S/C8H11N/c1-9(2)8-6-4-3-5-7-8/h3-7H,1-2H3

> <InChI Key_QSARr>
JLTDJTHDQAWBAV-UHFFFAOYSA-N

> <Salt_Solvent>


> <Salt_Solvent_ID>
0

> <MPID>
98205

> <LogBCF>
0.9

> <Tr_1_Tst_0>
0

$$$$
100275
  Mrv171c012241911322D          

 10 10  0  0  0  0            999 V2000
    0.0333   -2.6048    0.0000 Cl  0  0  0  0  0  0  0  0  0  0  0  0
    0.7478   -2.1923    0.0000 C   0  0  0  0  0  0  0  0  0  0  0  0
    1.4623   -2.6048    0.0000 C   0  0  0  0  0  0  0  0  0  0  0  0
    2.1767   -2.1923    0.0000 C   0  0  0  0  0  0  0  0  0  0  0  0
    2.1767   -1.3673    0.0000 C   0  0  0  0  0  0  0  0  0  0  0  0
    1.4623   -0.9548    0.0000 C   0  0  0  0  0  0  0  0  0  0  0  0
    1.4623   -0.1298    0.0000 N   0  3  0  0  0  0  0  0  0  0  0  0
    0.7478    0.2827    0.0000 O   0  5  0  0  0  0  0  0  0  0  0  0
    2.1767    0.2827    0.0000 O   0  0  0  0  0  0  0  0  0  0  0  0
    0.7478   -1.3673    0.0000 C   0  0  0  0  0  0  0  0  0  0  0  0
  1  2  1  0  0  0  0
  3  2  1  0  0  0  0
  4  3  2  0  0  0  0
  5  4  1  0  0  0  0
  6  5  2  0  0  0  0
  6  7  1  0  0  0  0
  7  8  1  0  0  0  0
  7  9  2  0  0  0  0
 10  6  1  0  0  0  0
  2 10  2  0  0  0  0
M  CHG  2   7   1   8  -1
M  END
> <ChemID>
100275

> <CAS>
121-73-3

> <Original_SMILES>
[O-][N+](=O)c1cccc(Cl)c1

> <preferred_name>
1-Chloro-3-nitrobenzene

> <dsstox_substance_id>
DTXSID4021971

> <dsstox_compound_id>
DTXCID401971

> <qc_level>
DSSTox_Low

> <Canonical_QSARr>
[O-][N+](=O)C1C=C(Cl)C=CC=1

> <InChI_Code_QSARr>
InChI=1S/C6H4ClNO2/c7-5-2-1-3-6(4-5)8(9)10/h1-4H

> <InChI Key_QSARr>
KMAQZIILEGKYQZ-UHFFFAOYSA-N

> <Salt_Solvent>


> <Salt_Solvent_ID>
0

> <MPID>
98206

> <LogBCF>
1.89

> <Tr_1_Tst_0>
1

$$$$
100276
  Mrv171c012241911322D          

 19 18  0  0  0  0            999 V2000
    1.8978   -0.9530    0.0000 O   0  0  0  0  0  0  0  0  0  0  0  0
    1.8978   -1.7780    0.0000 C   0  0  0  0  0  0  0  0  0  0  0  0
    1.1833   -2.1905    0.0000 O   0  0  0  0  0  0  0  0  0  0  0  0
    0.4688   -1.7780    0.0000 C   0  0  0  0  0  0  0  0  0  0  0  0
   -0.2456   -2.1905    0.0000 C   0  0  0  0  0  0  0  0  0  0  0  0
    2.6122   -2.1905    0.0000 C   0  0  0  0  0  0  0  0  0  0  0  0
    3.3267   -1.7780    0.0000 C   0  0  0  0  0  0  0  0  0  0  0  0
    4.0412   -2.1905    0.0000 C   0  0  0  0  0  0  0  0  0  0  0  0
    4.7557   -1.7780    0.0000 O   0  0  0  0  0  0  0  0  0  0  0  0
    5.4701   -2.1905    0.0000 C   0  0  0  0  0  0  0  0  0  0  0  0
    6.1846   -1.7780    0.0000 C   0  0  0  0  0  0  0  0  0  0  0  0
    4.0412   -3.0155    0.0000 O   0  0  0  0  0  0  0  0  0  0  0  0
    2.6122   -3.0155    0.0000 S   0  0  0  0  0  0  0  0  0  0  0  0
    1.8978   -3.4280    0.0000 P   0  0  0  0  0  0  0  0  0  0  0  0
    1.4853   -2.7136    0.0000 O   0  0  0  0  0  0  0  0  0  0  0  0
    0.6603   -2.7136    0.0000 C   0  0  0  0  0  0  0  0  0  0  0  0
    1.1833   -3.8405    0.0000 O   0  0  0  0  0  0  0  0  0  0  0  0
    0.4688   -3.4280    0.0000 C   0  0  0  0  0  0  0  0  0  0  0  0
    2.3103   -4.1425    0.0000 S   0  0  0  0  0  0  0  0  0  0  0  0
  1  2  2  0  0  0  0
  2  3  1  0  0  0  0
  3  4  1  0  0  0  0
  4  5  1  0  0  0  0
  2  6  1  0  0  0  0
  6  7  1  0  0  0  0
  7  8  1  0  0  0  0
  8  9  1  0  0  0  0
  9 10  1  0  0  0  0
 10 11  1  0  0  0  0
  8 12  2  0  0  0  0
  6 13  1  0  0  0  0
 13 14  1  0  0  0  0
 14 15  1  0  0  0  0
 15 16  1  0  0  0  0
 14 17  1  0  0  0  0
 17 18  1  0  0  0  0
 14 19  2  0  0  0  0
M  END
> <ChemID>
100276

> <CAS>
121-75-5

> <Original_SMILES>
CCOC(=O)C(CC(=O)OCC)SP(=S)(OC)OC

> <preferred_name>
Malathion

> <dsstox_substance_id>
DTXSID4020791

> <dsstox_compound_id>
DTXCID80791

> <qc_level>
DSSTox_Low

> <Canonical_QSARr>
CCOC(=O)C(CC(=O)OCC)SP(=S)(OC)OC

> <InChI_Code_QSARr>
InChI=1S/C10H19O6PS2/c1-5-15-9(11)7-8(10(12)16-6-2)19-17(18,13-3)14-4/h8H,5-7H2,1-4H3

> <InChI Key_QSARr>
JXSJBGJIGXNWCI-UHFFFAOYSA-N

> <Salt_Solvent>


> <Salt_Solvent_ID>
0

> <MPID>
98207

> <LogBCF>
1.52

> <Tr_1_Tst_0>
1

$$$$
100277
  Mrv171c012241911322D          

 15 15  0  0  0  0            999 V2000
    2.8612   -2.4825    0.0000 N   0  0  0  0  0  0  0  0  0  0  0  0
    2.8612   -1.6575    0.0000 C   0  0  0  0  0  0  0  0  0  0  0  0
    2.1468   -1.2450    0.0000 N   0  0  0  0  0  0  0  0  0  0  0  0
    2.1468   -0.4200    0.0000 N   0  3  0  0  0  0  0  0  0  0  0  0
    2.8612   -0.0075    0.0000 O   0  0  0  0  0  0  0  0  0  0  0  0
    1.4323   -0.0075    0.0000 O   0  5  0  0  0  0  0  0  0  0  0  0
    1.4323   -1.6575    0.0000 C   0  0  0  0  0  0  0  0  0  0  0  0
    1.4323   -2.4825    0.0000 N   0  0  0  0  0  0  0  0  0  0  0  0
    0.7178   -2.8950    0.0000 N   0  3  0  0  0  0  0  0  0  0  0  0
    0.7178   -3.7200    0.0000 O   0  0  0  0  0  0  0  0  0  0  0  0
    0.0033   -2.4825    0.0000 O   0  5  0  0  0  0  0  0  0  0  0  0
    2.1468   -2.8950    0.0000 C   0  0  0  0  0  0  0  0  0  0  0  0
    3.5757   -2.8950    0.0000 N   0  3  0  0  0  0  0  0  0  0  0  0
    3.5757   -3.7200    0.0000 O   0  0  0  0  0  0  0  0  0  0  0  0
    4.2902   -2.4825    0.0000 O   0  5  0  0  0  0  0  0  0  0  0  0
  2  1  1  0  0  0  0
  3  2  1  0  0  0  0
  3  4  1  0  0  0  0
  4  5  2  0  0  0  0
  4  6  1  0  0  0  0
  7  3  1  0  0  0  0
  8  7  1  0  0  0  0
  8  9  1  0  0  0  0
  9 10  2  0  0  0  0
  9 11  1  0  0  0  0
 12  8  1  0  0  0  0
  1 12  1  0  0  0  0
  1 13  1  0  0  0  0
 13 14  2  0  0  0  0
 13 15  1  0  0  0  0
M  CHG  6   4   1   6  -1   9   1  11  -1  13   1  15  -1
M  END
> <ChemID>
100277

> <CAS>
121-82-4

> <Original_SMILES>
[O-][N+](=O)N1CN(CN(C1)[N+]([O-])=O)[N+]([O-])=O

> <preferred_name>
Cyclonite

> <dsstox_substance_id>
DTXSID9024142

> <dsstox_compound_id>
DTXCID604142

> <qc_level>
DSSTox_Low

> <Canonical_QSARr>
[O-][N+](=O)N1CN(CN(C1)[N+]([O-])=O)[N+]([O-])=O

> <InChI_Code_QSARr>
InChI=1S/C3H6N6O6/c10-7(11)4-1-5(8(12)13)3-6(2-4)9(14)15/h1-3H2

> <InChI Key_QSARr>
XTFIVUDBNACUBN-UHFFFAOYSA-N

> <Salt_Solvent>


> <Salt_Solvent_ID>
0

> <MPID>
98208

> <LogBCF>
0.3

> <Tr_1_Tst_0>
1

$$$$
100278
  Mrv171c012241911322D          

 12 12  0  0  0  0            999 V2000
    3.1536   -2.3694    0.0000 C   0  0  0  0  0  0  0  0  0  0  0  0
    2.4391   -1.9569    0.0000 C   0  0  0  0  0  0  0  0  0  0  0  0
    2.4391   -1.1319    0.0000 C   0  0  0  0  0  0  0  0  0  0  0  0
    1.7246   -0.7194    0.0000 C   0  0  0  0  0  0  0  0  0  0  0  0
    1.7246    0.1056    0.0000 N   0  3  0  0  0  0  0  0  0  0  0  0
    1.0102    0.5181    0.0000 O   0  5  0  0  0  0  0  0  0  0  0  0
    2.4391    0.5181    0.0000 O   0  0  0  0  0  0  0  0  0  0  0  0
    1.0102   -1.1319    0.0000 C   0  0  0  0  0  0  0  0  0  0  0  0
    1.0102   -1.9569    0.0000 C   0  0  0  0  0  0  0  0  0  0  0  0
    1.7246   -2.3694    0.0000 C   0  0  0  0  0  0  0  0  0  0  0  0
    3.8680   -1.9569    0.0000 O   0  0  0  0  0  0  0  0  0  0  0  0
    3.1536   -3.1944    0.0000 O   0  0  0  0  0  0  0  0  0  0  0  0
  1  2  1  0  0  0  0
  3  2  1  0  0  0  0
  4  3  2  0  0  0  0
  4  5  1  0  0  0  0
  5  6  1  0  0  0  0
  5  7  2  0  0  0  0
  8  4  1  0  0  0  0
  9  8  2  0  0  0  0
 10  9  1  0  0  0  0
  2 10  2  0  0  0  0
  1 11  1  0  0  0  0
  1 12  2  0  0  0  0
M  CHG  2   5   1   6  -1
M  END
> <ChemID>
100278

> <CAS>
121-92-6

> <Original_SMILES>
[O-][N+](=O)c1cc(ccc1)C(O)=O

> <preferred_name>
3-Nitrobenzoic acid

> <dsstox_substance_id>
DTXSID0025737

> <dsstox_compound_id>
DTXCID605737

> <qc_level>
DSSTox_Low

> <Canonical_QSARr>
[O-][N+](=O)C1=CC(=CC=C1)C(O)=O

> <InChI_Code_QSARr>
InChI=1S/C7H5NO4/c9-7(10)5-2-1-3-6(4-5)8(11)12/h1-4H,(H,9,10)

> <InChI Key_QSARr>
AFPHTEQTJZKQAQ-UHFFFAOYSA-N

> <Salt_Solvent>


> <Salt_Solvent_ID>
0

> <MPID>
98209

> <LogBCF>
0.85

> <Tr_1_Tst_0>
0

$$$$
100279
  Mrv171c012241911322D          

 17 17  0  0  0  0            999 V2000
    2.0185   -2.3363    0.0000 S   0  0  0  0  0  0  0  0  0  0  0  0
    2.4310   -3.0508    0.0000 P   0  0  0  0  0  0  0  0  0  0  0  0
    1.7166   -3.4633    0.0000 O   0  0  0  0  0  0  0  0  0  0  0  0
    1.7166   -4.2883    0.0000 C   0  0  0  0  0  0  0  0  0  0  0  0
    2.8435   -3.7653    0.0000 O   0  0  0  0  0  0  0  0  0  0  0  0
    2.4310   -4.4797    0.0000 C   0  0  0  0  0  0  0  0  0  0  0  0
    3.1455   -2.6383    0.0000 O   0  0  0  0  0  0  0  0  0  0  0  0
    3.1455   -1.8133    0.0000 C   0  0  0  0  0  0  0  0  0  0  0  0
    3.8600   -1.4008    0.0000 C   0  0  0  0  0  0  0  0  0  0  0  0
    3.8600   -0.5758    0.0000 C   0  0  0  0  0  0  0  0  0  0  0  0
    3.1455   -0.1633    0.0000 C   0  0  0  0  0  0  0  0  0  0  0  0
    3.1455    0.6617    0.0000 N   0  3  0  0  0  0  0  0  0  0  0  0
    2.4310    1.0742    0.0000 O   0  5  0  0  0  0  0  0  0  0  0  0
    3.8600    1.0742    0.0000 O   0  0  0  0  0  0  0  0  0  0  0  0
    2.4310   -0.5758    0.0000 C   0  0  0  0  0  0  0  0  0  0  0  0
    1.7166   -0.1633    0.0000 C   0  0  0  0  0  0  0  0  0  0  0  0
    2.4310   -1.4008    0.0000 C   0  0  0  0  0  0  0  0  0  0  0  0
  1  2  2  0  0  0  0
  2  3  1  0  0  0  0
  3  4  1  0  0  0  0
  2  5  1  0  0  0  0
  5  6  1  0  0  0  0
  2  7  1  0  0  0  0
  7  8  1  0  0  0  0
  9  8  2  0  0  0  0
 10  9  1  0  0  0  0
 11 10  2  0  0  0  0
 11 12  1  0  0  0  0
 12 13  1  0  0  0  0
 12 14  2  0  0  0  0
 15 11  1  0  0  0  0
 15 16  1  0  0  0  0
 17 15  2  0  0  0  0
  8 17  1  0  0  0  0
M  CHG  2  12   1  13  -1
M  END
> <ChemID>
100279

> <CAS>
122-14-5

> <Original_SMILES>
Cc1cc(ccc1[N+]([O-])=O)OP(=S)(OC)OC

> <preferred_name>
Fenitrothion

> <dsstox_substance_id>
DTXSID4032613

> <dsstox_compound_id>
DTXCID2012613

> <qc_level>
DSSTox_Low

> <Canonical_QSARr>
CC1=CC(=CC=C1[N+]([O-])=O)OP(=S)(OC)OC

> <InChI_Code_QSARr>
InChI=1S/C9H12NO5PS/c1-7-6-8(4-5-9(7)10(11)12)15-16(17,13-2)14-3/h4-6H,1-3H3

> <InChI Key_QSARr>
ZNOLGFHPUIJIMJ-UHFFFAOYSA-N

> <Salt_Solvent>


> <Salt_Solvent_ID>
0

> <MPID>
98210

> <LogBCF>
1.95

> <Tr_1_Tst_0>
1

$$$$
100280
  Mrv171c012241911322D          

 13 12  0  0  0  0            999 V2000
    0.4108   -3.3741    0.0000 C   0  0  0  0  0  0  0  0  0  0  0  0
    1.1253   -3.7866    0.0000 C   0  0  0  0  0  0  0  0  0  0  0  0
    1.1253   -4.6116    0.0000 O   0  0  0  0  0  0  0  0  0  0  0  0
    1.8398   -3.3741    0.0000 C   0  0  0  0  0  0  0  0  0  0  0  0
    1.8398   -2.5491    0.0000 N   0  0  0  0  0  0  0  0  0  0  0  0
    1.1253   -2.1366    0.0000 C   0  0  0  0  0  0  0  0  0  0  0  0
    1.1253   -1.3116    0.0000 C   0  0  0  0  0  0  0  0  0  0  0  0
    1.8398   -0.8991    0.0000 O   0  0  0  0  0  0  0  0  0  0  0  0
    0.4108   -0.8991    0.0000 C   0  0  0  0  0  0  0  0  0  0  0  0
    2.5542   -2.1366    0.0000 C   0  0  0  0  0  0  0  0  0  0  0  0
    2.5542   -1.3116    0.0000 C   0  0  0  0  0  0  0  0  0  0  0  0
    3.2687   -0.8991    0.0000 O   0  0  0  0  0  0  0  0  0  0  0  0
    2.2187   -0.5579    0.0000 C   0  0  0  0  0  0  0  0  0  0  0  0
  1  2  1  0  0  0  0
  2  3  1  0  0  0  0
  2  4  1  0  0  0  0
  4  5  1  0  0  0  0
  5  6  1  0  0  0  0
  6  7  1  0  0  0  0
  7  8  1  0  0  0  0
  7  9  1  0  0  0  0
  5 10  1  0  0  0  0
 10 11  1  0  0  0  0
 11 12  1  0  0  0  0
 11 13  1  0  0  0  0
M  END
> <ChemID>
100280

> <CAS>
122-20-3

> <Original_SMILES>
CC(O)CN(CC(C)O)CC(C)O

> <preferred_name>
Triisopropanolamine

> <dsstox_substance_id>
DTXSID5021415

> <dsstox_compound_id>
DTXCID201415

> <qc_level>
DSSTox_High

> <Canonical_QSARr>
CC(O)CN(CC(C)O)CC(C)O

> <InChI_Code_QSARr>
InChI=1S/C9H21NO3/c1-7(11)4-10(5-8(2)12)6-9(3)13/h7-9,11-13H,4-6H2,1-3H3

> <InChI Key_QSARr>
SLINHMUFWFWBMU-UHFFFAOYSA-N

> <Salt_Solvent>


> <Salt_Solvent_ID>
0

> <MPID>
98211

> <LogBCF>
-0.24

> <Tr_1_Tst_0>
1

$$$$
100281
  Mrv171c012241911322D          

 13 13  0  0  0  0            999 V2000
    3.8567   -2.9222    0.0000 Cl  0  0  0  0  0  0  0  0  0  0  0  0
    3.1422   -2.5097    0.0000 C   0  0  0  0  0  0  0  0  0  0  0  0
    3.1422   -1.6847    0.0000 N   0  0  0  0  0  0  0  0  0  0  0  0
    2.4277   -1.2722    0.0000 C   0  0  0  0  0  0  0  0  0  0  0  0
    2.4277   -0.4472    0.0000 N   0  0  0  0  0  0  0  0  0  0  0  0
    3.1422   -0.0347    0.0000 C   0  0  0  0  0  0  0  0  0  0  0  0
    3.1422    0.7903    0.0000 C   0  0  0  0  0  0  0  0  0  0  0  0
    1.7133   -1.6847    0.0000 N   0  0  0  0  0  0  0  0  0  0  0  0
    1.7133   -2.5097    0.0000 C   0  0  0  0  0  0  0  0  0  0  0  0
    0.9988   -2.9222    0.0000 N   0  0  0  0  0  0  0  0  0  0  0  0
    0.2843   -2.5097    0.0000 C   0  0  0  0  0  0  0  0  0  0  0  0
   -0.4301   -2.9222    0.0000 C   0  0  0  0  0  0  0  0  0  0  0  0
    2.4277   -2.9222    0.0000 N   0  0  0  0  0  0  0  0  0  0  0  0
  1  2  1  0  0  0  0
  3  2  1  0  0  0  0
  4  3  2  0  0  0  0
  4  5  1  0  0  0  0
  5  6  1  0  0  0  0
  6  7  1  0  0  0  0
  8  4  1  0  0  0  0
  9  8  2  0  0  0  0
  9 10  1  0  0  0  0
 10 11  1  0  0  0  0
 11 12  1  0  0  0  0
 13  9  1  0  0  0  0
  2 13  2  0  0  0  0
M  END
> <ChemID>
100281

> <CAS>
122-34-9

> <Original_SMILES>
CCNc1[n]c(Cl)[n]c(NCC)[n]1

> <preferred_name>
Simazine

> <dsstox_substance_id>
DTXSID4021268

> <dsstox_compound_id>
DTXCID501268

> <qc_level>
DSSTox_Low

> <Canonical_QSARr>
CCNC1=NC(Cl)=NC(NCC)=N1

> <InChI_Code_QSARr>
InChI=1S/C7H12ClN5/c1-3-9-6-11-5(8)12-7(13-6)10-4-2/h3-4H2,1-2H3,(H2,9,10,11,12,13)

> <InChI Key_QSARr>
ODCWYMIRDDJXKW-UHFFFAOYSA-N

> <Salt_Solvent>


> <Salt_Solvent_ID>
0

> <MPID>
98212

> <LogBCF>
0.56

> <Tr_1_Tst_0>
1

$$$$
100282
  Mrv171c012241911322D          

 13 14  0  0  0  0            999 V2000
    3.5155   -1.7446    0.0000 C   0  0  0  0  0  0  0  0  0  0  0  0
    2.8010   -1.3321    0.0000 C   0  0  0  0  0  0  0  0  0  0  0  0
    2.8010   -0.5071    0.0000 N   0  0  0  0  0  0  0  0  0  0  0  0
    2.0865   -0.0946    0.0000 C   0  0  0  0  0  0  0  0  0  0  0  0
    2.0865    0.7304    0.0000 C   0  0  0  0  0  0  0  0  0  0  0  0
    1.3721    1.1429    0.0000 C   0  0  0  0  0  0  0  0  0  0  0  0
    0.6576    0.7304    0.0000 C   0  0  0  0  0  0  0  0  0  0  0  0
    0.6576   -0.0946    0.0000 C   0  0  0  0  0  0  0  0  0  0  0  0
    1.3721   -0.5071    0.0000 C   0  0  0  0  0  0  0  0  0  0  0  0
    2.0865   -1.7446    0.0000 C   0  0  0  0  0  0  0  0  0  0  0  0
    2.0865   -2.5696    0.0000 C   0  0  0  0  0  0  0  0  0  0  0  0
    2.8010   -2.9821    0.0000 C   0  0  0  0  0  0  0  0  0  0  0  0
    3.5155   -2.5696    0.0000 C   0  0  0  0  0  0  0  0  0  0  0  0
  2  1  1  0  0  0  0
  2  3  1  0  0  0  0
  3  4  1  0  0  0  0
  5  4  1  0  0  0  0
  6  5  2  0  0  0  0
  7  6  1  0  0  0  0
  8  7  2  0  0  0  0
  9  8  1  0  0  0  0
  4  9  2  0  0  0  0
 10  2  2  0  0  0  0
 11 10  1  0  0  0  0
 12 11  2  0  0  0  0
 13 12  1  0  0  0  0
  1 13  2  0  0  0  0
M  END
> <ChemID>
100282

> <CAS>
122-39-4

> <Original_SMILES>
c1ccccc1Nc1ccccc1

> <preferred_name>
Diphenylamine

> <dsstox_substance_id>
DTXSID4021975

> <dsstox_compound_id>
DTXCID001975

> <qc_level>
DSSTox_Low

> <Canonical_QSARr>
C1=CC=CC=C1NC1C=CC=CC=1

> <InChI_Code_QSARr>
InChI=1S/C12H11N/c1-3-7-11(8-4-1)13-12-9-5-2-6-10-12/h1-10,13H

> <InChI Key_QSARr>
DMBHHRLKUKUOEG-UHFFFAOYSA-N

> <Salt_Solvent>


> <Salt_Solvent_ID>
0

> <MPID>
98213

> <LogBCF>
2.18

> <Tr_1_Tst_0>
0

$$$$
100283
  Mrv171c012241911322D          

  9  9  0  0  0  0            999 V2000
    2.3657   -1.8423    0.0000 C   0  0  0  0  0  0  0  0  0  0  0  0
    2.3657   -1.0173    0.0000 O   0  0  0  0  0  0  0  0  0  0  0  0
    1.6512   -0.6048    0.0000 C   0  0  0  0  0  0  0  0  0  0  0  0
    1.6512    0.2202    0.0000 C   0  0  0  0  0  0  0  0  0  0  0  0
    0.9368   -1.0173    0.0000 O   0  0  0  0  0  0  0  0  0  0  0  0
    0.9368   -1.8423    0.0000 C   0  0  0  0  0  0  0  0  0  0  0  0
    0.2223   -2.2548    0.0000 C   0  0  0  0  0  0  0  0  0  0  0  0
    1.6512   -2.2548    0.0000 O   0  0  0  0  0  0  0  0  0  0  0  0
    3.0802   -2.2548    0.0000 C   0  0  0  0  0  0  0  0  0  0  0  0
  2  1  1  0  0  0  0
  3  2  1  0  0  0  0
  3  4  1  0  0  0  0
  5  3  1  0  0  0  0
  6  5  1  0  0  0  0
  6  7  1  0  0  0  0
  8  6  1  0  0  0  0
  1  8  1  0  0  0  0
  1  9  1  0  0  0  0
M  END
> <ChemID>
100283

> <CAS>
123-63-7

> <Original_SMILES>
CC1OC(C)OC(C)O1

> <preferred_name>
Paraldehyde

> <dsstox_substance_id>
DTXSID9023419

> <dsstox_compound_id>
DTXCID003419

> <qc_level>
DSSTox_Low

> <Canonical_QSARr>
CC1OC(C)OC(C)O1

> <InChI_Code_QSARr>
InChI=1S/C6H12O3/c1-4-7-5(2)9-6(3)8-4/h4-6H,1-3H3

> <InChI Key_QSARr>
SQYNKIJPMDEDEG-UHFFFAOYSA-N

> <Salt_Solvent>


> <Salt_Solvent_ID>
0

> <MPID>
98214

> <LogBCF>
0.48

> <Tr_1_Tst_0>
1

$$$$
100284
  Mrv171c012241911322D          

  6  6  0  0  0  0            999 V2000
    1.4289   -0.4125    0.0000 C   0  0  0  0  0  0  0  0  0  0  0  0
    0.7145    0.0000    0.0000 O   0  0  0  0  0  0  0  0  0  0  0  0
    0.0000   -0.4125    0.0000 C   0  0  0  0  0  0  0  0  0  0  0  0
    0.0000   -1.2375    0.0000 C   0  0  0  0  0  0  0  0  0  0  0  0
    0.7145   -1.6500    0.0000 O   0  0  0  0  0  0  0  0  0  0  0  0
    1.4289   -1.2375    0.0000 C   0  0  0  0  0  0  0  0  0  0  0  0
  2  1  1  0  0  0  0
  3  2  1  0  0  0  0
  4  3  1  0  0  0  0
  5  4  1  0  0  0  0
  6  5  1  0  0  0  0
  1  6  1  0  0  0  0
M  END
> <ChemID>
100284

> <CAS>
123-91-1

> <Original_SMILES>
C1COCCO1

> <preferred_name>
1,4-Dioxane

> <dsstox_substance_id>
DTXSID4020533

> <dsstox_compound_id>
DTXCID00533

> <qc_level>
DSSTox_Low

> <Canonical_QSARr>
C1COCCO1

> <InChI_Code_QSARr>
InChI=1S/C4H8O2/c1-2-6-4-3-5-1/h1-4H2

> <InChI Key_QSARr>
RYHBNJHYFVUHQT-UHFFFAOYSA-N

> <Salt_Solvent>


> <Salt_Solvent_ID>
0

> <MPID>
98215

> <LogBCF>
-0.3

> <Tr_1_Tst_0>
1

$$$$
100285
  Mrv171c012241911322D          

  9  8  0  0  0  0            999 V2000
    5.8558    2.5559    0.0000 C   0  0  0  0  0  0  0  0  0  0  0  0
    5.1414    2.1434    0.0000 C   0  0  0  0  0  0  0  0  0  0  0  0
    4.4269    2.5559    0.0000 C   0  0  0  0  0  0  0  0  0  0  0  0
    3.7124    2.1434    0.0000 C   0  0  0  0  0  0  0  0  0  0  0  0
    2.9980    2.5559    0.0000 C   0  0  0  0  0  0  0  0  0  0  0  0
    6.5703    2.1434    0.0000 C   0  0  0  0  0  0  0  0  0  0  0  0
    7.2848    2.5559    0.0000 C   0  0  0  0  0  0  0  0  0  0  0  0
    7.9992    2.1434    0.0000 C   0  0  0  0  0  0  0  0  0  0  0  0
    8.7137    2.5559    0.0000 C   0  0  0  0  0  0  0  0  0  0  0  0
  1  2  1  0  0  0  0
  2  3  1  0  0  0  0
  3  4  1  0  0  0  0
  4  5  2  0  0  0  0
  1  6  1  0  0  0  0
  6  7  1  0  0  0  0
  7  8  1  0  0  0  0
  8  9  1  0  0  0  0
M  END
> <ChemID>
100285

> <CAS>
124-11-8

> <Original_SMILES>
CCCCCCCC=C

> <preferred_name>
1-Nonene

> <dsstox_substance_id>
DTXSID2059562

> <dsstox_compound_id>
DTXCID3033806

> <qc_level>
Public_High

> <Canonical_QSARr>
CCCCCCCC=C

> <InChI_Code_QSARr>
InChI=1S/C9H18/c1-3-5-7-9-8-6-4-2/h3H,1,4-9H2,2H3

> <InChI Key_QSARr>
JRZJOMJEPLMPRA-UHFFFAOYSA-N

> <Salt_Solvent>


> <Salt_Solvent_ID>
0

> <MPID>
98216

> <LogBCF>
3.17

> <Tr_1_Tst_0>
1

$$$$
100286
  Mrv171c012241911322D          

  7  6  0  0  0  0            999 V2000
    1.6714   -1.3255    0.0000 C   0  0  0  0  0  0  0  0  0  0  0  0
    2.4964   -1.3255    0.0000 O   0  0  0  0  0  0  0  0  0  0  0  0
    1.2589   -0.6111    0.0000 C   0  0  0  0  0  0  0  0  0  0  0  0
    1.9734   -0.1986    0.0000 C   0  0  0  0  0  0  0  0  0  0  0  0
    0.5445   -1.0236    0.0000 C   0  0  0  0  0  0  0  0  0  0  0  0
    0.8464    0.1034    0.0000 C   0  0  0  0  0  0  0  0  0  0  0  0
    0.0214    0.1034    0.0000 O   0  0  0  0  0  0  0  0  0  0  0  0
  1  2  1  0  0  0  0
  1  3  1  0  0  0  0
  3  4  1  0  0  0  0
  3  5  1  0  0  0  0
  3  6  1  0  0  0  0
  6  7  1  0  0  0  0
M  END
> <ChemID>
100286

> <CAS>
126-30-7

> <Original_SMILES>
CC(C)(CO)CO

> <preferred_name>
2,2-Dimethylpropane-1,3-diol

> <dsstox_substance_id>
DTXSID8027036

> <dsstox_compound_id>
DTXCID007036

> <qc_level>
DSSTox_Low

> <Canonical_QSARr>
CC(C)(CO)CO

> <InChI_Code_QSARr>
InChI=1S/C5H12O2/c1-5(2,3-6)4-7/h6-7H,3-4H2,1-2H3

> <InChI Key_QSARr>
SLCVBVWXLSEKPL-UHFFFAOYSA-N

> <Salt_Solvent>


> <Salt_Solvent_ID>
0

> <MPID>
98217

> <LogBCF>
0.67

> <Tr_1_Tst_0>
0

$$$$
100287
  Mrv171c012241911322D          

  7  7  0  0  0  0            999 V2000
    0.6919   -0.7465    0.0000 S   0  0  0  0  0  0  0  0  0  0  0  0
    0.1399   -0.1334    0.0000 O   0  0  0  0  0  0  0  0  0  0  0  0
    1.2439   -0.1334    0.0000 O   0  0  0  0  0  0  0  0  0  0  0  0
    0.0245   -1.2314    0.0000 C   0  0  0  0  0  0  0  0  0  0  0  0
    0.2794   -2.0161    0.0000 C   0  0  0  0  0  0  0  0  0  0  0  0
    1.1044   -2.0161    0.0000 C   0  0  0  0  0  0  0  0  0  0  0  0
    1.3593   -1.2314    0.0000 C   0  0  0  0  0  0  0  0  0  0  0  0
  1  2  2  0  0  0  0
  1  3  2  0  0  0  0
  4  1  1  0  0  0  0
  5  4  1  0  0  0  0
  6  5  1  0  0  0  0
  7  6  1  0  0  0  0
  1  7  1  0  0  0  0
M  END
> <ChemID>
100287

> <CAS>
126-33-0

> <Original_SMILES>
O=S1(=O)CCCC1

> <preferred_name>
Sulfolane

> <dsstox_substance_id>
DTXSID3027037

> <dsstox_compound_id>
DTXCID407037

> <qc_level>
DSSTox_Low

> <Canonical_QSARr>
O=S1(=O)CCCC1

> <InChI_Code_QSARr>
InChI=1S/C4H8O2S/c5-7(6)3-1-2-4-7/h1-4H2

> <InChI Key_QSARr>
HXJUTPCZVOIRIF-UHFFFAOYSA-N

> <Salt_Solvent>


> <Salt_Solvent_ID>
0

> <MPID>
98218

> <LogBCF>
0.85

> <Tr_1_Tst_0>
1

$$$$
100288
  Mrv171c012241911322D          

 20 19  0  0  0  0            999 V2000
    1.8832   -3.7510    0.0000 O   0  0  0  0  0  0  0  0  0  0  0  0
    1.8832   -2.9260    0.0000 P   0  0  0  0  0  0  0  0  0  0  0  0
    2.7082   -2.9260    0.0000 O   0  0  0  0  0  0  0  0  0  0  0  0
    3.1207   -3.6404    0.0000 C   0  0  0  0  0  0  0  0  0  0  0  0
    3.9457   -3.6404    0.0000 C   0  0  0  0  0  0  0  0  0  0  0  0
    4.3582   -2.9260    0.0000 Br  0  0  0  0  0  0  0  0  0  0  0  0
    4.3582   -4.3549    0.0000 C   0  0  0  0  0  0  0  0  0  0  0  0
    5.1832   -4.3549    0.0000 Br  0  0  0  0  0  0  0  0  0  0  0  0
    1.0582   -2.9260    0.0000 O   0  0  0  0  0  0  0  0  0  0  0  0
    0.6457   -2.2115    0.0000 C   0  0  0  0  0  0  0  0  0  0  0  0
   -0.1793   -2.2115    0.0000 C   0  0  0  0  0  0  0  0  0  0  0  0
   -0.5918   -2.9260    0.0000 Br  0  0  0  0  0  0  0  0  0  0  0  0
   -0.5918   -1.4970    0.0000 C   0  0  0  0  0  0  0  0  0  0  0  0
   -1.4168   -1.4970    0.0000 Br  0  0  0  0  0  0  0  0  0  0  0  0
    1.8832   -2.1010    0.0000 O   0  0  0  0  0  0  0  0  0  0  0  0
    2.5977   -1.6885    0.0000 C   0  0  0  0  0  0  0  0  0  0  0  0
    3.3121   -2.1010    0.0000 C   0  0  0  0  0  0  0  0  0  0  0  0
    3.3121   -2.9260    0.0000 Br  0  0  0  0  0  0  0  0  0  0  0  0
    4.0266   -1.6885    0.0000 C   0  0  0  0  0  0  0  0  0  0  0  0
    4.7411   -2.1010    0.0000 Br  0  0  0  0  0  0  0  0  0  0  0  0
  1  2  2  0  0  0  0
  2  3  1  0  0  0  0
  3  4  1  0  0  0  0
  4  5  1  0  0  0  0
  5  6  1  0  0  0  0
  5  7  1  0  0  0  0
  7  8  1  0  0  0  0
  2  9  1  0  0  0  0
  9 10  1  0  0  0  0
 10 11  1  0  0  0  0
 11 12  1  0  0  0  0
 11 13  1  0  0  0  0
 13 14  1  0  0  0  0
  2 15  1  0  0  0  0
 15 16  1  0  0  0  0
 16 17  1  0  0  0  0
 17 18  1  0  0  0  0
 17 19  1  0  0  0  0
 19 20  1  0  0  0  0
M  END
> <ChemID>
100288

> <CAS>
126-72-7

> <Original_SMILES>
O=P(OCC(Br)CBr)(OCC(Br)CBr)OCC(Br)CBr

> <preferred_name>
Tris(2,3-dibromopropyl) phosphate

> <dsstox_substance_id>
DTXSID5021413

> <dsstox_compound_id>
DTXCID401413

> <qc_level>
DSSTox_Low

> <Canonical_QSARr>
O=P(OCC(Br)CBr)(OCC(Br)CBr)OCC(Br)CBr

> <InChI_Code_QSARr>
InChI=1S/C9H15Br6O4P/c10-1-7(13)4-17-20(16,18-5-8(14)2-11)19-6-9(15)3-12/h7-9H,1-6H2

> <InChI Key_QSARr>
PQYJRMFWJJONBO-UHFFFAOYSA-N

> <Salt_Solvent>


> <Salt_Solvent_ID>
0

> <MPID>
98219

> <LogBCF>
0.51

> <Tr_1_Tst_0>
1

$$$$
100289
  Mrv171c012241911322D          

 17 16  0  0  0  0            999 V2000
    0.1316   -3.5849    0.0000 C   0  0  0  0  0  0  0  0  0  0  0  0
    0.5441   -2.8704    0.0000 C   0  0  0  0  0  0  0  0  0  0  0  0
    1.3691   -2.8704    0.0000 C   0  0  0  0  0  0  0  0  0  0  0  0
    1.7816   -2.1559    0.0000 C   0  0  0  0  0  0  0  0  0  0  0  0
    2.6066   -2.1559    0.0000 O   0  0  0  0  0  0  0  0  0  0  0  0
    3.0191   -1.4415    0.0000 P   0  0  0  0  0  0  0  0  0  0  0  0
    3.4316   -0.7270    0.0000 O   0  0  0  0  0  0  0  0  0  0  0  0
    4.2566   -0.7270    0.0000 C   0  0  0  0  0  0  0  0  0  0  0  0
    4.6691   -0.0125    0.0000 C   0  0  0  0  0  0  0  0  0  0  0  0
    5.4941   -0.0125    0.0000 C   0  0  0  0  0  0  0  0  0  0  0  0
    5.9066    0.7019    0.0000 C   0  0  0  0  0  0  0  0  0  0  0  0
    3.7336   -1.8540    0.0000 O   0  0  0  0  0  0  0  0  0  0  0  0
    4.4480   -1.4415    0.0000 C   0  0  0  0  0  0  0  0  0  0  0  0
    5.1625   -1.8540    0.0000 C   0  0  0  0  0  0  0  0  0  0  0  0
    5.8770   -1.4415    0.0000 C   0  0  0  0  0  0  0  0  0  0  0  0
    6.5914   -1.8540    0.0000 C   0  0  0  0  0  0  0  0  0  0  0  0
    2.3046   -1.0290    0.0000 O   0  0  0  0  0  0  0  0  0  0  0  0
  1  2  1  0  0  0  0
  2  3  1  0  0  0  0
  3  4  1  0  0  0  0
  4  5  1  0  0  0  0
  5  6  1  0  0  0  0
  6  7  1  0  0  0  0
  7  8  1  0  0  0  0
  8  9  1  0  0  0  0
  9 10  1  0  0  0  0
 10 11  1  0  0  0  0
  6 12  1  0  0  0  0
 12 13  1  0  0  0  0
 13 14  1  0  0  0  0
 14 15  1  0  0  0  0
 15 16  1  0  0  0  0
  6 17  2  0  0  0  0
M  END
> <ChemID>
100289

> <CAS>
126-73-8

> <Original_SMILES>
CCCCOP(=O)(OCCCC)OCCCC

> <preferred_name>
Tributyl phosphate

> <dsstox_substance_id>
DTXSID3021986

> <dsstox_compound_id>
DTXCID701986

> <qc_level>
DSSTox_Low

> <Canonical_QSARr>
CCCCOP(=O)(OCCCC)OCCCC

> <InChI_Code_QSARr>
InChI=1S/C12H27O4P/c1-4-7-10-14-17(13,15-11-8-5-2)16-12-9-6-3/h4-12H2,1-3H3

> <InChI Key_QSARr>
STCOOQWBFONSKY-UHFFFAOYSA-N

> <Salt_Solvent>


> <Salt_Solvent_ID>
0

> <MPID>
98220

> <LogBCF>
1.47

> <Tr_1_Tst_0>
1

$$$$
100290
  Mrv171c012241911322D          

  6  5  0  0  0  0            999 V2000
    1.8554   -1.7855    0.0000 Cl  0  0  0  0  0  0  0  0  0  0  0  0
    1.4429   -1.0710    0.0000 C   0  0  0  0  0  0  0  0  0  0  0  0
    1.8554   -0.3566    0.0000 Cl  0  0  0  0  0  0  0  0  0  0  0  0
    0.6179   -1.0710    0.0000 C   0  0  0  0  0  0  0  0  0  0  0  0
    0.2054   -1.7855    0.0000 Cl  0  0  0  0  0  0  0  0  0  0  0  0
    0.2054   -0.3566    0.0000 Cl  0  0  0  0  0  0  0  0  0  0  0  0
  1  2  1  0  0  0  0
  2  3  1  0  0  0  0
  2  4  2  0  0  0  0
  4  5  1  0  0  0  0
  4  6  1  0  0  0  0
M  END
> <ChemID>
100290

> <CAS>
127-18-4

> <Original_SMILES>
ClC(Cl)=C(Cl)Cl

> <preferred_name>
Tetrachloroethylene

> <dsstox_substance_id>
DTXSID2021319

> <dsstox_compound_id>
DTXCID601319

> <qc_level>
DSSTox_Low

> <Canonical_QSARr>
ClC(Cl)=C(Cl)Cl

> <InChI_Code_QSARr>
InChI=1S/C2Cl4/c3-1(4)2(5)6

> <InChI Key_QSARr>
CYTYCFOTNPOANT-UHFFFAOYSA-N

> <Salt_Solvent>


> <Salt_Solvent_ID>
0

> <MPID>
98221

> <LogBCF>
1.72

> <Tr_1_Tst_0>
0

$$$$
100291
  Mrv171c012241911322D          

  7  6  0  0  0  0            999 V2000
    0.4125    1.1227    0.0000 O   0  0  0  0  0  0  0  0  0  0  0  0
   -0.0000    0.4083    0.0000 C   0  0  0  0  0  0  0  0  0  0  0  0
    0.4125   -0.3062    0.0000 C   0  0  0  0  0  0  0  0  0  0  0  0
    0.8250   -1.0207    0.0000 Cl  0  0  0  0  0  0  0  0  0  0  0  0
   -0.3020   -0.7187    0.0000 Cl  0  0  0  0  0  0  0  0  0  0  0  0
    1.1270    0.1063    0.0000 C   0  0  0  0  0  0  0  0  0  0  0  0
   -0.8250    0.4083    0.0000 O   0  0  0  0  0  0  0  0  0  0  0  0
  1  2  1  0  0  0  0
  2  3  1  0  0  0  0
  3  4  1  0  0  0  0
  3  5  1  0  0  0  0
  3  6  1  0  0  0  0
  2  7  2  0  0  0  0
M  END
> <ChemID>
100291

> <CAS>
127-20-8

> <Original_SMILES>
[Na+].CC(Cl)(Cl)C([O-])=O

> <preferred_name>
Dalapon-sodium

> <dsstox_substance_id>
DTXSID5024001

> <dsstox_compound_id>
DTXCID804001

> <qc_level>
DSSTox_Low

> <Canonical_QSARr>
CC(Cl)(Cl)C(O)=O

> <InChI_Code_QSARr>
InChI=1S/C3H4Cl2O2/c1-3(4,5)2(6)7/h1H3,(H,6,7)

> <InChI Key_QSARr>
NDUPDOJHUQKPAG-UHFFFAOYSA-N

> <Salt_Solvent>
[Na+]

> <Salt_Solvent_ID>
110

> <MPID>
98222

> <LogBCF>
0.86

> <Tr_1_Tst_0>
1

$$$$
100292
  Mrv171c012241911322D          

 22 24  0  0  0  0            999 V2000
    0.3551    0.4547    0.0000 C   0  0  0  0  0  0  0  0  0  0  0  0
   -0.0574    1.1692    0.0000 C   0  0  0  0  0  0  0  0  0  0  0  0
    0.7676    1.1692    0.0000 C   0  0  0  0  0  0  0  0  0  0  0  0
    1.5926    1.1692    0.0000 C   0  0  0  0  0  0  0  0  0  0  0  0
    2.0051    0.4547    0.0000 C   0  0  0  0  0  0  0  0  0  0  0  0
    1.5926   -0.2597    0.0000 C   0  0  0  0  0  0  0  0  0  0  0  0
    2.3678   -0.5419    0.0000 C   0  0  0  0  0  0  0  0  0  0  0  0
    1.4493   -1.0722    0.0000 C   0  0  0  0  0  0  0  0  0  0  0  0
    0.6741   -1.3544    0.0000 O   0  0  0  0  0  0  0  0  0  0  0  0
    2.0813   -1.6025    0.0000 O   0  0  0  0  0  0  0  0  0  0  0  0
    0.7676   -0.2597    0.0000 C   0  0  0  0  0  0  0  0  0  0  0  0
    0.3551   -0.9742    0.0000 C   0  0  0  0  0  0  0  0  0  0  0  0
   -0.4699   -0.9742    0.0000 C   0  0  0  0  0  0  0  0  0  0  0  0
   -0.8824   -0.2597    0.0000 C   0  0  0  0  0  0  0  0  0  0  0  0
   -1.7074   -0.2597    0.0000 C   0  0  0  0  0  0  0  0  0  0  0  0
   -2.1199    0.4547    0.0000 C   0  0  0  0  0  0  0  0  0  0  0  0
   -2.7519   -0.0756    0.0000 C   0  0  0  0  0  0  0  0  0  0  0  0
   -2.7519    0.9850    0.0000 C   0  0  0  0  0  0  0  0  0  0  0  0
   -3.5272    0.7029    0.0000 C   0  0  0  0  0  0  0  0  0  0  0  0
   -1.7074    1.1692    0.0000 C   0  0  0  0  0  0  0  0  0  0  0  0
   -0.8824    1.1692    0.0000 C   0  0  0  0  0  0  0  0  0  0  0  0
   -0.4699    0.4547    0.0000 C   0  0  0  0  0  0  0  0  0  0  0  0
  1  2  1  0  0  0  0
  3  1  1  0  0  0  0
  4  3  1  0  0  0  0
  5  4  1  0  0  0  0
  6  5  1  0  0  0  0
  6  7  1  0  0  0  0
  6  8  1  0  0  0  0
  8  9  1  0  0  0  0
  8 10  2  0  0  0  0
 11  6  1  0  0  0  0
 11  1  1  0  0  0  0
 12 11  1  0  0  0  0
 13 12  1  0  0  0  0
 14 13  1  0  0  0  0
 14 15  2  0  0  0  0
 15 16  1  0  0  0  0
 16 17  1  0  0  0  0
 16 18  1  0  0  0  0
 18 19  2  0  0  0  0
 16 20  1  0  0  0  0
 20 21  1  0  0  0  0
 21 22  1  0  0  0  0
  1 22  1  0  0  0  0
 22 14  1  0  0  0  0
M  END
> <ChemID>
100292

> <CAS>
127-27-5

> <Original_SMILES>
C[C@]12CCC[C@](C)([C@@H]1CCC1=C[C@@](C)(CC[C@H]21)C=C)C(O)=O

> <preferred_name>
alpha-Pimaricacid

> <dsstox_substance_id>
DTXSID80858728

> <dsstox_compound_id>
DTXCID30809462

> <qc_level>
DSSTox_High

> <Canonical_QSARr>
CC12CCCC(C)(C1CCC1=CC(C)(CCC21)C=C)C(O)=O

> <InChI_Code_QSARr>
InChI=1S/C20H30O2/c1-5-18(2)12-9-15-14(13-18)7-8-16-19(15,3)10-6-11-20(16,4)17(21)22/h5,13,15-16H,1,6-12H2,2-4H3,(H,21,22)

> <InChI Key_QSARr>
MHVJRKBZMUDEEV-UHFFFAOYSA-N

> <Salt_Solvent>


> <Salt_Solvent_ID>
0

> <MPID>
98223

> <LogBCF>
1.92

> <Tr_1_Tst_0>
1

$$$$
100293
  Mrv171c012241911322D          

 13 13  0  0  0  0            999 V2000
   -0.4397   -1.9038    0.0000 O   0  5  0  0  0  0  0  0  0  0  0  0
   -0.4397   -1.0788    0.0000 N   0  3  0  0  0  0  0  0  0  0  0  0
    0.2748   -0.6663    0.0000 C   0  0  0  0  0  0  0  0  0  0  0  0
    0.9893   -1.0788    0.0000 C   0  0  0  0  0  0  0  0  0  0  0  0
    1.7037   -0.6663    0.0000 C   0  0  0  0  0  0  0  0  0  0  0  0
    1.7037    0.1587    0.0000 C   0  0  0  0  0  0  0  0  0  0  0  0
    0.9893    0.5712    0.0000 C   0  0  0  0  0  0  0  0  0  0  0  0
    0.9893    1.3962    0.0000 S   0  0  0  0  0  0  0  0  0  0  0  0
    0.9893    2.2212    0.0000 O   0  0  0  0  0  0  0  0  0  0  0  0
    1.8143    1.3962    0.0000 O   0  0  0  0  0  0  0  0  0  0  0  0
    0.1643    1.3962    0.0000 O   0  0  0  0  0  0  0  0  0  0  0  0
    0.2748    0.1587    0.0000 C   0  0  0  0  0  0  0  0  0  0  0  0
   -1.1541   -0.6663    0.0000 O   0  0  0  0  0  0  0  0  0  0  0  0
  1  2  1  0  0  0  0
  2  3  1  0  0  0  0
  4  3  1  0  0  0  0
  5  4  2  0  0  0  0
  6  5  1  0  0  0  0
  7  6  2  0  0  0  0
  7  8  1  0  0  0  0
  8  9  2  0  0  0  0
  8 10  2  0  0  0  0
  8 11  1  0  0  0  0
 12  7  1  0  0  0  0
  3 12  2  0  0  0  0
  2 13  2  0  0  0  0
M  CHG  2   1  -1   2   1
M  END
> <ChemID>
100293

> <CAS>
127-68-4

> <Original_SMILES>
[Na+].[O-][N+](=O)c1cc(ccc1)S([O-])(=O)=O

> <preferred_name>
Sodium 3-nitrobenzenesulfonate

> <dsstox_substance_id>
DTXSID2027048

> <dsstox_compound_id>
DTXCID107048

> <qc_level>
DSSTox_Low

> <Canonical_QSARr>
[O-][N+](=O)C1=CC(=CC=C1)S(O)(=O)=O

> <InChI_Code_QSARr>
InChI=1S/C6H5NO5S/c8-7(9)5-2-1-3-6(4-5)13(10,11)12/h1-4H,(H,10,11,12)

> <InChI Key_QSARr>
ONMOULMPIIOVTQ-UHFFFAOYSA-N

> <Salt_Solvent>
[Na+]

> <Salt_Solvent_ID>
110

> <MPID>
98224

> <LogBCF>
0.7

> <Tr_1_Tst_0>
1

$$$$
100294
  Mrv171c012241911322D          

 15 14  0  0  0  0            999 V2000
    2.2007   -1.2374    0.0000 C   0  0  0  0  0  0  0  0  0  0  0  0
    2.2007   -2.0624    0.0000 O   0  0  0  0  0  0  0  0  0  0  0  0
    1.4862   -2.4749    0.0000 C   0  0  0  0  0  0  0  0  0  0  0  0
    1.4862   -3.2999    0.0000 C   0  0  0  0  0  0  0  0  0  0  0  0
    2.2007   -3.7124    0.0000 Cl  0  0  0  0  0  0  0  0  0  0  0  0
    0.7718   -3.7124    0.0000 C   0  0  0  0  0  0  0  0  0  0  0  0
    0.0573   -4.1249    0.0000 Cl  0  0  0  0  0  0  0  0  0  0  0  0
    1.1843   -4.4269    0.0000 Cl  0  0  0  0  0  0  0  0  0  0  0  0
    0.3593   -2.9980    0.0000 Cl  0  0  0  0  0  0  0  0  0  0  0  0
    2.9152   -0.8249    0.0000 C   0  0  0  0  0  0  0  0  0  0  0  0
    3.6296   -1.2374    0.0000 Cl  0  0  0  0  0  0  0  0  0  0  0  0
    2.9152    0.0001    0.0000 C   0  0  0  0  0  0  0  0  0  0  0  0
    2.9152    0.8251    0.0000 Cl  0  0  0  0  0  0  0  0  0  0  0  0
    3.7402    0.0001    0.0000 Cl  0  0  0  0  0  0  0  0  0  0  0  0
    2.0902    0.0001    0.0000 Cl  0  0  0  0  0  0  0  0  0  0  0  0
  1  2  1  0  0  0  0
  2  3  1  0  0  0  0
  3  4  1  0  0  0  0
  4  5  1  0  0  0  0
  4  6  1  0  0  0  0
  6  7  1  0  0  0  0
  6  8  1  0  0  0  0
  6  9  1  0  0  0  0
  1 10  1  0  0  0  0
 10 11  1  0  0  0  0
 10 12  1  0  0  0  0
 12 13  1  0  0  0  0
 12 14  1  0  0  0  0
 12 15  1  0  0  0  0
M  END
> <ChemID>
100294

> <CAS>
127-90-2

> <Original_SMILES>
ClC(Cl)(Cl)C(Cl)COCC(Cl)C(Cl)(Cl)Cl

> <preferred_name>


> <dsstox_substance_id>
DTXSID40861778

> <dsstox_compound_id>
DTXCID30810659

> <qc_level>


> <Canonical_QSARr>
ClC(Cl)(Cl)C(Cl)COCC(Cl)C(Cl)(Cl)Cl

> <InChI_Code_QSARr>
InChI=1S/C6H6Cl8O/c7-3(5(9,10)11)1-15-2-4(8)6(12,13)14/h3-4H,1-2H2

> <InChI Key_QSARr>
LNJXZKBHJZAIKQ-UHFFFAOYSA-N

> <Salt_Solvent>


> <Salt_Solvent_ID>
0

> <MPID>
98225

> <LogBCF>
3.28

> <Tr_1_Tst_0>
1

$$$$
100295
  Mrv171c012241911322D          

 16 16  0  0  0  0            999 V2000
    4.0266   -2.2423    0.0000 O   0  0  0  0  0  0  0  0  0  0  0  0
    3.3122   -2.6548    0.0000 C   0  0  0  0  0  0  0  0  0  0  0  0
    2.5977   -2.2423    0.0000 C   0  0  0  0  0  0  0  0  0  0  0  0
    2.5977   -1.4173    0.0000 C   0  0  0  0  0  0  0  0  0  0  0  0
    2.5977   -0.5923    0.0000 C   0  0  0  0  0  0  0  0  0  0  0  0
    1.7727   -1.4173    0.0000 C   0  0  0  0  0  0  0  0  0  0  0  0
    3.4227   -1.4173    0.0000 C   0  0  0  0  0  0  0  0  0  0  0  0
    1.8832   -2.6548    0.0000 C   0  0  0  0  0  0  0  0  0  0  0  0
    1.8832   -3.4798    0.0000 C   0  0  0  0  0  0  0  0  0  0  0  0
    1.1687   -3.8923    0.0000 C   0  0  0  0  0  0  0  0  0  0  0  0
    2.5977   -3.8923    0.0000 C   0  0  0  0  0  0  0  0  0  0  0  0
    3.3122   -3.4798    0.0000 C   0  0  0  0  0  0  0  0  0  0  0  0
    4.0266   -3.8923    0.0000 C   0  0  0  0  0  0  0  0  0  0  0  0
    4.7411   -4.3048    0.0000 C   0  0  0  0  0  0  0  0  0  0  0  0
    3.6141   -4.6067    0.0000 C   0  0  0  0  0  0  0  0  0  0  0  0
    4.4391   -3.1778    0.0000 C   0  0  0  0  0  0  0  0  0  0  0  0
  1  2  1  0  0  0  0
  3  2  1  0  0  0  0
  3  4  1  0  0  0  0
  4  5  1  0  0  0  0
  4  6  1  0  0  0  0
  4  7  1  0  0  0  0
  8  3  2  0  0  0  0
  9  8  1  0  0  0  0
  9 10  1  0  0  0  0
 11  9  2  0  0  0  0
 12 11  1  0  0  0  0
  2 12  2  0  0  0  0
 12 13  1  0  0  0  0
 13 14  1  0  0  0  0
 13 15  1  0  0  0  0
 13 16  1  0  0  0  0
M  END
> <ChemID>
100295

> <CAS>
128-37-0

> <Original_SMILES>
Cc1cc(c(O)c(c1)C(C)(C)C)C(C)(C)C

> <preferred_name>
Butylated hydroxytoluene

> <dsstox_substance_id>
DTXSID2020216

> <dsstox_compound_id>
DTXCID20216

> <qc_level>
DSSTox_Low

> <Canonical_QSARr>
CC1C=C(C(O)=C(C=1)C(C)(C)C)C(C)(C)C

> <InChI_Code_QSARr>
InChI=1S/C15H24O/c1-10-8-11(14(2,3)4)13(16)12(9-10)15(5,6)7/h8-9,16H,1-7H3

> <InChI Key_QSARr>
NLZUEZXRPGMBCV-UHFFFAOYSA-N

> <Salt_Solvent>


> <Salt_Solvent_ID>
0

> <MPID>
98226

> <LogBCF>
3.03

> <Tr_1_Tst_0>
1

$$$$
100296
  Mrv171c012241911322D          

 16 19  0  0  0  0            999 V2000
    2.2044   -1.4429    0.0000 C   0  0  0  0  0  0  0  0  0  0  0  0
    2.6169   -0.7285    0.0000 C   0  0  0  0  0  0  0  0  0  0  0  0
    2.2044   -0.0140    0.0000 C   0  0  0  0  0  0  0  0  0  0  0  0
    1.3794   -0.0140    0.0000 C   0  0  0  0  0  0  0  0  0  0  0  0
    0.9669   -0.7285    0.0000 C   0  0  0  0  0  0  0  0  0  0  0  0
    0.1419   -0.7285    0.0000 C   0  0  0  0  0  0  0  0  0  0  0  0
   -0.2706   -1.4429    0.0000 C   0  0  0  0  0  0  0  0  0  0  0  0
    0.1419   -2.1574    0.0000 C   0  0  0  0  0  0  0  0  0  0  0  0
    0.9669   -2.1574    0.0000 C   0  0  0  0  0  0  0  0  0  0  0  0
    1.3794   -2.8719    0.0000 C   0  0  0  0  0  0  0  0  0  0  0  0
    2.2044   -2.8719    0.0000 C   0  0  0  0  0  0  0  0  0  0  0  0
    2.6169   -2.1574    0.0000 C   0  0  0  0  0  0  0  0  0  0  0  0
    3.4419   -2.1574    0.0000 C   0  0  0  0  0  0  0  0  0  0  0  0
    3.8544   -1.4429    0.0000 C   0  0  0  0  0  0  0  0  0  0  0  0
    3.4419   -0.7285    0.0000 C   0  0  0  0  0  0  0  0  0  0  0  0
    1.3794   -1.4429    0.0000 C   0  0  0  0  0  0  0  0  0  0  0  0
  2  1  1  0  0  0  0
  2  3  1  0  0  0  0
  3  4  2  0  0  0  0
  4  5  1  0  0  0  0
  5  6  2  0  0  0  0
  6  7  1  0  0  0  0
  7  8  2  0  0  0  0
  8  9  1  0  0  0  0
  9 10  1  0  0  0  0
 10 11  2  0  0  0  0
 11 12  1  0  0  0  0
 12  1  2  0  0  0  0
 12 13  1  0  0  0  0
 13 14  2  0  0  0  0
 14 15  1  0  0  0  0
 15  2  2  0  0  0  0
  9 16  2  0  0  0  0
  1 16  1  0  0  0  0
 16  5  1  0  0  0  0
M  END
> <ChemID>
100296

> <CAS>
129-00-0

> <Original_SMILES>
c1cc2cccc3ccc4cccc1c4c32

> <preferred_name>
Pyrene

> <dsstox_substance_id>
DTXSID3024289

> <dsstox_compound_id>
DTXCID804289

> <qc_level>
DSSTox_Low

> <Canonical_QSARr>
C1=CC2C=CC=C3C=CC4=CC=CC1=C4C=23

> <InChI_Code_QSARr>
InChI=1S/C16H10/c1-3-11-7-9-13-5-2-6-14-10-8-12(4-1)15(11)16(13)14/h1-10H

> <InChI Key_QSARr>
BBEAQIROQSPTKN-UHFFFAOYSA-N

> <Salt_Solvent>


> <Salt_Solvent_ID>
0

> <MPID>
98227

> <LogBCF>
3.18

> <Tr_1_Tst_0>
0

$$$$
100297
  Mrv171c012241911322D          

 17 19  0  0  0  0            999 V2000
    1.4708   -0.6309    0.0000 O   0  0  0  0  0  0  0  0  0  0  0  0
    1.4708   -1.4559    0.0000 C   0  0  0  0  0  0  0  0  0  0  0  0
    2.1853   -1.8684    0.0000 C   0  0  0  0  0  0  0  0  0  0  0  0
    2.8997   -1.4559    0.0000 C   0  0  0  0  0  0  0  0  0  0  0  0
    3.6142   -1.8684    0.0000 C   0  0  0  0  0  0  0  0  0  0  0  0
    3.6142   -2.6934    0.0000 C   0  0  0  0  0  0  0  0  0  0  0  0
    2.8997   -3.1059    0.0000 C   0  0  0  0  0  0  0  0  0  0  0  0
    2.1853   -2.6934    0.0000 C   0  0  0  0  0  0  0  0  0  0  0  0
    1.4708   -3.1059    0.0000 C   0  0  0  0  0  0  0  0  0  0  0  0
    1.4708   -3.9309    0.0000 O   0  0  0  0  0  0  0  0  0  0  0  0
    0.7563   -2.6934    0.0000 C   0  0  0  0  0  0  0  0  0  0  0  0
    0.0418   -3.1059    0.0000 C   0  0  0  0  0  0  0  0  0  0  0  0
   -0.6726   -2.6934    0.0000 C   0  0  0  0  0  0  0  0  0  0  0  0
   -0.6726   -1.8684    0.0000 C   0  0  0  0  0  0  0  0  0  0  0  0
    0.0418   -1.4559    0.0000 C   0  0  0  0  0  0  0  0  0  0  0  0
    0.0418   -0.6309    0.0000 O   0  0  0  0  0  0  0  0  0  0  0  0
    0.7563   -1.8684    0.0000 C   0  0  0  0  0  0  0  0  0  0  0  0
  1  2  2  0  0  0  0
  3  2  1  0  0  0  0
  3  4  1  0  0  0  0
  4  5  2  0  0  0  0
  5  6  1  0  0  0  0
  6  7  2  0  0  0  0
  7  8  1  0  0  0  0
  8  3  2  0  0  0  0
  9  8  1  0  0  0  0
  9 10  2  0  0  0  0
 11  9  1  0  0  0  0
 11 12  2  0  0  0  0
 12 13  1  0  0  0  0
 13 14  2  0  0  0  0
 14 15  1  0  0  0  0
 15 16  1  0  0  0  0
 15 17  2  0  0  0  0
  2 17  1  0  0  0  0
 17 11  1  0  0  0  0
M  END
> <ChemID>
100297

> <CAS>
129-43-1

> <Original_SMILES>
Oc1cccc2c1C(=O)c1ccccc1C2=O

> <preferred_name>
1-Hydroxyanthraquinone

> <dsstox_substance_id>
DTXSID1020722

> <dsstox_compound_id>
DTXCID70722

> <qc_level>
DSSTox_Low

> <Canonical_QSARr>
OC1C=CC=C2C=1C(=O)C1C=CC=CC=1C2=O

> <InChI_Code_QSARr>
InChI=1S/C14H8O3/c15-11-7-3-6-10-12(11)14(17)9-5-2-1-4-8(9)13(10)16/h1-7,15H

> <InChI Key_QSARr>
BTLXPCBPYBNQNR-UHFFFAOYSA-N

> <Salt_Solvent>


> <Salt_Solvent_ID>
0

> <MPID>
98228

> <LogBCF>
2.25

> <Tr_1_Tst_0>
1

$$$$
100298
  Mrv171c012241911322D          

 15 16  0  0  0  0            999 V2000
   -0.3811   -2.3100    0.0000 O   0  0  0  0  0  0  0  0  0  0  0  0
   -0.3811   -1.4850    0.0000 S   0  0  0  0  0  0  0  0  0  0  0  0
   -0.3811   -0.6600    0.0000 C   0  0  0  0  0  0  0  0  0  0  0  0
    0.3334   -0.2475    0.0000 C   0  0  0  0  0  0  0  0  0  0  0  0
    0.3334    0.5775    0.0000 C   0  0  0  0  0  0  0  0  0  0  0  0
    1.0479    0.9900    0.0000 C   0  0  0  0  0  0  0  0  0  0  0  0
    1.7624    0.5775    0.0000 C   0  0  0  0  0  0  0  0  0  0  0  0
    1.7624   -0.2475    0.0000 C   0  0  0  0  0  0  0  0  0  0  0  0
    1.0479   -0.6600    0.0000 C   0  0  0  0  0  0  0  0  0  0  0  0
   -0.3811    0.9900    0.0000 C   0  0  0  0  0  0  0  0  0  0  0  0
   -0.3811    1.8150    0.0000 N   0  0  0  0  0  0  0  0  0  0  0  0
   -1.0955    0.5775    0.0000 C   0  0  0  0  0  0  0  0  0  0  0  0
   -1.0955   -0.2475    0.0000 C   0  0  0  0  0  0  0  0  0  0  0  0
    0.4439   -1.4850    0.0000 O   0  0  0  0  0  0  0  0  0  0  0  0
   -1.2061   -1.4850    0.0000 O   0  0  0  0  0  0  0  0  0  0  0  0
  1  2  1  0  0  0  0
  2  3  1  0  0  0  0
  4  3  1  0  0  0  0
  4  5  1  0  0  0  0
  5  6  2  0  0  0  0
  6  7  1  0  0  0  0
  7  8  2  0  0  0  0
  8  9  1  0  0  0  0
  9  4  2  0  0  0  0
 10  5  1  0  0  0  0
 10 11  1  0  0  0  0
 12 10  2  0  0  0  0
 13 12  1  0  0  0  0
  3 13  2  0  0  0  0
  2 14  2  0  0  0  0
  2 15  2  0  0  0  0
M  END
> <ChemID>
100298

> <CAS>
130-13-2

> <Original_SMILES>
[Na+].Nc1ccc(c2ccccc21)S([O-])(=O)=O

> <preferred_name>
4-Amino-1-naphthalenesulfonic acid sodium salt

> <dsstox_substance_id>
DTXSID0059611

> <dsstox_compound_id>
DTXCID8033938

> <qc_level>
Public_High

> <Canonical_QSARr>
NC1=CC=C(C2=CC=CC=C21)S(O)(=O)=O

> <InChI_Code_QSARr>
InChI=1S/C10H9NO3S/c11-9-5-6-10(15(12,13)14)8-4-2-1-3-7(8)9/h1-6H,11H2,(H,12,13,14)

> <InChI Key_QSARr>
NRZRRZAVMCAKEP-UHFFFAOYSA-N

> <Salt_Solvent>
[Na+]

> <Salt_Solvent_ID>
110

> <MPID>
98229

> <LogBCF>
0.78

> <Tr_1_Tst_0>
0

$$$$
100299
  Mrv171c012241911322D          

 17 19  0  0  0  0            999 V2000
   -0.0003   -1.1416    0.0000 C   0  0  0  0  0  0  0  0  0  0  0  0
    0.7141   -0.7291    0.0000 C   0  0  0  0  0  0  0  0  0  0  0  0
    1.4286   -1.1416    0.0000 C   0  0  0  0  0  0  0  0  0  0  0  0
    2.1431   -0.7291    0.0000 C   0  0  0  0  0  0  0  0  0  0  0  0
    2.1431    0.0959    0.0000 O   0  0  0  0  0  0  0  0  0  0  0  0
    2.8576   -1.1416    0.0000 C   0  0  0  0  0  0  0  0  0  0  0  0
    2.8576   -1.9666    0.0000 C   0  0  0  0  0  0  0  0  0  0  0  0
    2.1431   -2.3791    0.0000 C   0  0  0  0  0  0  0  0  0  0  0  0
    2.1431   -3.2041    0.0000 O   0  0  0  0  0  0  0  0  0  0  0  0
    1.4286   -1.9666    0.0000 C   0  0  0  0  0  0  0  0  0  0  0  0
    0.7141   -2.3791    0.0000 C   0  0  0  0  0  0  0  0  0  0  0  0
   -0.0003   -1.9666    0.0000 C   0  0  0  0  0  0  0  0  0  0  0  0
    3.5720   -2.3791    0.0000 C   0  0  0  0  0  0  0  0  0  0  0  0
    4.2865   -1.9666    0.0000 C   0  0  0  0  0  0  0  0  0  0  0  0
    5.0010   -2.3791    0.0000 Cl  0  0  0  0  0  0  0  0  0  0  0  0
    4.2865   -1.1416    0.0000 C   0  0  0  0  0  0  0  0  0  0  0  0
    3.5720   -0.7291    0.0000 C   0  0  0  0  0  0  0  0  0  0  0  0
  2  1  2  0  0  0  0
  3  2  1  0  0  0  0
  3  4  1  0  0  0  0
  4  5  2  0  0  0  0
  4  6  1  0  0  0  0
  7  6  2  0  0  0  0
  7  8  1  0  0  0  0
  8  9  2  0  0  0  0
  8 10  1  0  0  0  0
 10  3  2  0  0  0  0
 11 10  1  0  0  0  0
 12 11  2  0  0  0  0
  1 12  1  0  0  0  0
 13  7  1  0  0  0  0
 14 13  2  0  0  0  0
 14 15  1  0  0  0  0
 16 14  1  0  0  0  0
 17 16  2  0  0  0  0
  6 17  1  0  0  0  0
M  END
> <ChemID>
100299

> <CAS>
131-09-9

> <Original_SMILES>
O=C1c2cc(Cl)ccc2C(=O)c2ccccc12

> <preferred_name>
2-Chloroanthraquinone

> <dsstox_substance_id>
DTXSID7049213

> <dsstox_compound_id>
DTXCID9029069

> <qc_level>
DSSTox_Low

> <Canonical_QSARr>
O=C1C2C=C(Cl)C=CC=2C(=O)C2C=CC=CC1=2

> <InChI_Code_QSARr>
InChI=1S/C14H7ClO2/c15-8-5-6-11-12(7-8)14(17)10-4-2-1-3-9(10)13(11)16/h1-7H

> <InChI Key_QSARr>
FPKCTSIVDAWGFA-UHFFFAOYSA-N

> <Salt_Solvent>


> <Salt_Solvent_ID>
0

> <MPID>
98230

> <LogBCF>
2.28

> <Tr_1_Tst_0>
1

$$$$
100300
  Mrv171c012241911322D          

 12 12  0  0  0  0            999 V2000
    1.0164    0.1105    0.0000 O   0  0  0  0  0  0  0  0  0  0  0  0
    0.3020   -0.3020    0.0000 C   0  0  0  0  0  0  0  0  0  0  0  0
   -0.4125    0.1105    0.0000 C   0  0  0  0  0  0  0  0  0  0  0  0
   -0.4125    0.9355    0.0000 Cl  0  0  0  0  0  0  0  0  0  0  0  0
   -1.1270   -0.3020    0.0000 C   0  0  0  0  0  0  0  0  0  0  0  0
   -1.8414    0.1105    0.0000 Cl  0  0  0  0  0  0  0  0  0  0  0  0
   -1.1270   -1.1270    0.0000 C   0  0  0  0  0  0  0  0  0  0  0  0
   -1.8414   -1.5395    0.0000 Cl  0  0  0  0  0  0  0  0  0  0  0  0
   -0.4125   -1.5395    0.0000 C   0  0  0  0  0  0  0  0  0  0  0  0
   -0.4125   -2.3645    0.0000 Cl  0  0  0  0  0  0  0  0  0  0  0  0
    0.3020   -1.1270    0.0000 C   0  0  0  0  0  0  0  0  0  0  0  0
    1.0164   -1.5395    0.0000 Cl  0  0  0  0  0  0  0  0  0  0  0  0
  1  2  1  0  0  0  0
  3  2  2  0  0  0  0
  3  4  1  0  0  0  0
  5  3  1  0  0  0  0
  5  6  1  0  0  0  0
  7  5  2  0  0  0  0
  7  8  1  0  0  0  0
  9  7  1  0  0  0  0
  9 10  1  0  0  0  0
 11  9  2  0  0  0  0
  2 11  1  0  0  0  0
 11 12  1  0  0  0  0
M  END
> <ChemID>
100300

> <CAS>
131-52-2

> <Original_SMILES>
[Na+].[O-]c1c(Cl)c(Cl)c(Cl)c(Cl)c1Cl

> <preferred_name>
Sodium pentachlorophenate

> <dsstox_substance_id>
DTXSID4040264

> <dsstox_compound_id>
DTXCID2020264

> <qc_level>
DSSTox_Low

> <Canonical_QSARr>
OC1C(Cl)=C(Cl)C(Cl)=C(Cl)C=1Cl

> <InChI_Code_QSARr>
InChI=1S/C6HCl5O/c7-1-2(8)4(10)6(12)5(11)3(1)9/h12H

> <InChI Key_QSARr>
IZUPBVBPLAPZRR-UHFFFAOYSA-N

> <Salt_Solvent>
[Na+]

> <Salt_Solvent_ID>
110

> <MPID>
98231

> <LogBCF>
2.78

> <Tr_1_Tst_0>
1

$$$$
100301
  Mrv171c012241911322D          

 17 18  0  0  0  0            999 V2000
    2.1009   -1.6512    0.0000 C   0  0  0  0  0  0  0  0  0  0  0  0
    2.8154   -1.2387    0.0000 C   0  0  0  0  0  0  0  0  0  0  0  0
    2.8154   -0.4137    0.0000 C   0  0  0  0  0  0  0  0  0  0  0  0
    2.1009   -0.0012    0.0000 C   0  0  0  0  0  0  0  0  0  0  0  0
    2.1009    0.8238    0.0000 O   0  0  0  0  0  0  0  0  0  0  0  0
    1.3865    1.2363    0.0000 C   0  0  0  0  0  0  0  0  0  0  0  0
    1.3865   -0.4137    0.0000 C   0  0  0  0  0  0  0  0  0  0  0  0
    1.3865   -1.2387    0.0000 C   0  0  0  0  0  0  0  0  0  0  0  0
    0.6720   -1.6512    0.0000 O   0  0  0  0  0  0  0  0  0  0  0  0
    2.1009   -2.4762    0.0000 C   0  0  0  0  0  0  0  0  0  0  0  0
    2.8154   -2.8887    0.0000 C   0  0  0  0  0  0  0  0  0  0  0  0
    2.8154   -3.7137    0.0000 C   0  0  0  0  0  0  0  0  0  0  0  0
    3.5299   -4.1262    0.0000 C   0  0  0  0  0  0  0  0  0  0  0  0
    4.2443   -3.7137    0.0000 C   0  0  0  0  0  0  0  0  0  0  0  0
    4.2443   -2.8887    0.0000 C   0  0  0  0  0  0  0  0  0  0  0  0
    3.5299   -2.4762    0.0000 C   0  0  0  0  0  0  0  0  0  0  0  0
    1.3865   -2.8887    0.0000 O   0  0  0  0  0  0  0  0  0  0  0  0
  2  1  2  0  0  0  0
  3  2  1  0  0  0  0
  4  3  2  0  0  0  0
  4  5  1  0  0  0  0
  5  6  1  0  0  0  0
  7  4  1  0  0  0  0
  8  7  2  0  0  0  0
  1  8  1  0  0  0  0
  8  9  1  0  0  0  0
  1 10  1  0  0  0  0
 10 11  1  0  0  0  0
 12 11  2  0  0  0  0
 13 12  1  0  0  0  0
 14 13  2  0  0  0  0
 15 14  1  0  0  0  0
 16 15  2  0  0  0  0
 11 16  1  0  0  0  0
 10 17  2  0  0  0  0
M  END
> <ChemID>
100301

> <CAS>
131-57-7

> <Original_SMILES>
COc1cc(O)c(cc1)C(=O)c1ccccc1

> <preferred_name>
2-Hydroxy-4-methoxybenzophenone

> <dsstox_substance_id>
DTXSID3022405

> <dsstox_compound_id>
DTXCID002405

> <qc_level>
DSSTox_Low

> <Canonical_QSARr>
COC1C=C(O)C(=CC=1)C(=O)C1C=CC=CC=1

> <InChI_Code_QSARr>
InChI=1S/C14H12O3/c1-17-11-7-8-12(13(15)9-11)14(16)10-5-3-2-4-6-10/h2-9,15H,1H3

> <InChI Key_QSARr>
DXGLGDHPHMLXJC-UHFFFAOYSA-N

> <Salt_Solvent>


> <Salt_Solvent_ID>
0

> <MPID>
98232

> <LogBCF>
1.97

> <Tr_1_Tst_0>
1

$$$$
100302
  Mrv171c012241911322D          

 13 15  0  0  0  0            999 V2000
    0.5267   -1.6923    0.0000 C   0  0  0  0  0  0  0  0  0  0  0  0
    1.3336   -1.5208    0.0000 C   0  0  0  0  0  0  0  0  0  0  0  0
    2.0011   -2.0057    0.0000 O   0  0  0  0  0  0  0  0  0  0  0  0
    2.6685   -1.5208    0.0000 C   0  0  0  0  0  0  0  0  0  0  0  0
    3.4755   -1.6923    0.0000 C   0  0  0  0  0  0  0  0  0  0  0  0
    4.0275   -1.0792    0.0000 C   0  0  0  0  0  0  0  0  0  0  0  0
    3.7726   -0.2946    0.0000 C   0  0  0  0  0  0  0  0  0  0  0  0
    2.9656   -0.1231    0.0000 C   0  0  0  0  0  0  0  0  0  0  0  0
    2.4136   -0.7361    0.0000 C   0  0  0  0  0  0  0  0  0  0  0  0
    1.5886   -0.7361    0.0000 C   0  0  0  0  0  0  0  0  0  0  0  0
    1.0365   -0.1231    0.0000 C   0  0  0  0  0  0  0  0  0  0  0  0
    0.2296   -0.2946    0.0000 C   0  0  0  0  0  0  0  0  0  0  0  0
   -0.0254   -1.0792    0.0000 C   0  0  0  0  0  0  0  0  0  0  0  0
  2  1  1  0  0  0  0
  2  3  1  0  0  0  0
  3  4  1  0  0  0  0
  5  4  2  0  0  0  0
  6  5  1  0  0  0  0
  7  6  2  0  0  0  0
  8  7  1  0  0  0  0
  9  8  2  0  0  0  0
  4  9  1  0  0  0  0
  9 10  1  0  0  0  0
 10  2  2  0  0  0  0
 11 10  1  0  0  0  0
 12 11  2  0  0  0  0
 13 12  1  0  0  0  0
  1 13  2  0  0  0  0
M  END
> <ChemID>
100302

> <CAS>
132-64-9

> <Original_SMILES>
c1cccc2oc3ccccc3c21

> <preferred_name>
Dibenzofuran

> <dsstox_substance_id>
DTXSID2021993

> <dsstox_compound_id>
DTXCID801993

> <qc_level>
DSSTox_Low

> <Canonical_QSARr>
C1=CC=CC2OC3=CC=CC=C3C=21

> <InChI_Code_QSARr>
InChI=1S/C12H8O/c1-3-7-11-9(5-1)10-6-2-4-8-12(10)13-11/h1-8H

> <InChI Key_QSARr>
TXCDCPKCNAJMEE-UHFFFAOYSA-N

> <Salt_Solvent>


> <Salt_Solvent_ID>
0

> <MPID>
98233

> <LogBCF>
3.18

> <Tr_1_Tst_0>
0

$$$$
100303
  Mrv171c012241911322D          

 13 15  0  0  0  0            999 V2000
    2.6771   -0.4818    0.0000 C   0  0  0  0  0  0  0  0  0  0  0  0
    3.4841   -0.3102    0.0000 C   0  0  0  0  0  0  0  0  0  0  0  0
    4.0361   -0.9233    0.0000 C   0  0  0  0  0  0  0  0  0  0  0  0
    3.7812   -1.7080    0.0000 C   0  0  0  0  0  0  0  0  0  0  0  0
    2.9742   -1.8795    0.0000 C   0  0  0  0  0  0  0  0  0  0  0  0
    2.4221   -1.2664    0.0000 C   0  0  0  0  0  0  0  0  0  0  0  0
    1.5971   -1.2664    0.0000 C   0  0  0  0  0  0  0  0  0  0  0  0
    1.0451   -1.8795    0.0000 C   0  0  0  0  0  0  0  0  0  0  0  0
    0.2381   -1.7080    0.0000 C   0  0  0  0  0  0  0  0  0  0  0  0
   -0.0168   -0.9233    0.0000 C   0  0  0  0  0  0  0  0  0  0  0  0
    0.5352   -0.3102    0.0000 C   0  0  0  0  0  0  0  0  0  0  0  0
    1.3422   -0.4818    0.0000 C   0  0  0  0  0  0  0  0  0  0  0  0
    2.0096    0.0032    0.0000 S   0  0  0  0  0  0  0  0  0  0  0  0
  2  1  1  0  0  0  0
  3  2  2  0  0  0  0
  4  3  1  0  0  0  0
  5  4  2  0  0  0  0
  6  5  1  0  0  0  0
  6  1  2  0  0  0  0
  7  6  1  0  0  0  0
  7  8  1  0  0  0  0
  8  9  2  0  0  0  0
  9 10  1  0  0  0  0
 10 11  2  0  0  0  0
 11 12  1  0  0  0  0
 12  7  2  0  0  0  0
 13 12  1  0  0  0  0
  1 13  1  0  0  0  0
M  END
> <ChemID>
100303

> <CAS>
132-65-0

> <Original_SMILES>
c1cccc2[s]c3ccccc3c21

> <preferred_name>
Dibenzothiophene

> <dsstox_substance_id>
DTXSID0047741

> <dsstox_compound_id>
DTXCID0027725

> <qc_level>
DSSTox_Low

> <Canonical_QSARr>
C1=CC=CC2SC3C=CC=CC=3C=21

> <InChI_Code_QSARr>
InChI=1S/C12H8S/c1-3-7-11-9(5-1)10-6-2-4-8-12(10)13-11/h1-8H

> <InChI Key_QSARr>
IYYZUPMFVPLQIF-UHFFFAOYSA-N

> <Salt_Solvent>


> <Salt_Solvent_ID>
0

> <MPID>
98234

> <LogBCF>
3.05

> <Tr_1_Tst_0>
1

$$$$
100304
  Mrv171c012241911322D          

 16 17  0  0  0  0            999 V2000
    2.0521    0.1152    0.0000 O   0  0  0  0  0  0  0  0  0  0  0  0
    2.3071   -0.6694    0.0000 C   0  0  0  0  0  0  0  0  0  0  0  0
    3.0917   -0.9243    0.0000 C   0  0  0  0  0  0  0  0  0  0  0  0
    3.8062   -0.5118    0.0000 C   0  0  0  0  0  0  0  0  0  0  0  0
    4.5206   -0.9243    0.0000 C   0  0  0  0  0  0  0  0  0  0  0  0
    4.5206   -1.7493    0.0000 C   0  0  0  0  0  0  0  0  0  0  0  0
    3.8062   -2.1618    0.0000 C   0  0  0  0  0  0  0  0  0  0  0  0
    3.0917   -1.7493    0.0000 C   0  0  0  0  0  0  0  0  0  0  0  0
    2.3071   -2.0043    0.0000 C   0  0  0  0  0  0  0  0  0  0  0  0
    2.0521   -2.7889    0.0000 O   0  0  0  0  0  0  0  0  0  0  0  0
    1.8221   -1.3368    0.0000 N   0  0  0  0  0  0  0  0  0  0  0  0
    0.9971   -1.3368    0.0000 S   0  0  0  0  0  0  0  0  0  0  0  0
    0.5846   -2.0513    0.0000 C   0  0  0  0  0  0  0  0  0  0  0  0
    0.1721   -2.7658    0.0000 Cl  0  0  0  0  0  0  0  0  0  0  0  0
   -0.1298   -1.6388    0.0000 Cl  0  0  0  0  0  0  0  0  0  0  0  0
    1.2991   -2.4638    0.0000 Cl  0  0  0  0  0  0  0  0  0  0  0  0
  1  2  2  0  0  0  0
  3  2  1  0  0  0  0
  3  4  1  0  0  0  0
  4  5  1  0  0  0  0
  5  6  2  0  0  0  0
  6  7  1  0  0  0  0
  7  8  1  0  0  0  0
  8  3  1  0  0  0  0
  9  8  1  0  0  0  0
  9 10  2  0  0  0  0
 11  9  1  0  0  0  0
  2 11  1  0  0  0  0
 11 12  1  0  0  0  0
 12 13  1  0  0  0  0
 13 14  1  0  0  0  0
 13 15  1  0  0  0  0
 13 16  1  0  0  0  0
M  END
> <ChemID>
100304

> <CAS>
133-06-2

> <Original_SMILES>
O=C1C2CC=CCC2C(=O)N1SC(Cl)(Cl)Cl

> <preferred_name>
Captan

> <dsstox_substance_id>
DTXSID9020243

> <dsstox_compound_id>
DTXCID90243

> <qc_level>
DSSTox_Low

> <Canonical_QSARr>
O=C1C2CC=CCC2C(=O)N1SC(Cl)(Cl)Cl

> <InChI_Code_QSARr>
InChI=1S/C9H8Cl3NO2S/c10-9(11,12)16-13-7(14)5-3-1-2-4-6(5)8(13)15/h1-2,5-6H,3-4H2

> <InChI Key_QSARr>
LDVVMCZRFWMZSG-UHFFFAOYSA-N

> <Salt_Solvent>


> <Salt_Solvent_ID>
0

> <MPID>
98235

> <LogBCF>
1.98

> <Tr_1_Tst_0>
1

$$$$
100305
  Mrv171c012241911322D          

 11 12  0  0  0  0            999 V2000
    1.5577   -0.8473    0.0000 C   0  0  0  0  0  0  0  0  0  0  0  0
    0.8432   -0.4348    0.0000 C   0  0  0  0  0  0  0  0  0  0  0  0
    0.1287   -0.8473    0.0000 C   0  0  0  0  0  0  0  0  0  0  0  0
    0.1287   -1.6723    0.0000 C   0  0  0  0  0  0  0  0  0  0  0  0
    0.8432   -2.0848    0.0000 C   0  0  0  0  0  0  0  0  0  0  0  0
    0.8432   -2.9098    0.0000 N   0  0  0  0  0  0  0  0  0  0  0  0
    1.5577   -1.6723    0.0000 C   0  0  0  0  0  0  0  0  0  0  0  0
    2.2721   -2.0848    0.0000 C   0  0  0  0  0  0  0  0  0  0  0  0
    2.9866   -1.6723    0.0000 C   0  0  0  0  0  0  0  0  0  0  0  0
    2.9866   -0.8473    0.0000 C   0  0  0  0  0  0  0  0  0  0  0  0
    2.2721   -0.4348    0.0000 C   0  0  0  0  0  0  0  0  0  0  0  0
  2  1  1  0  0  0  0
  3  2  2  0  0  0  0
  4  3  1  0  0  0  0
  5  4  2  0  0  0  0
  5  6  1  0  0  0  0
  7  5  1  0  0  0  0
  7  1  2  0  0  0  0
  8  7  1  0  0  0  0
  9  8  2  0  0  0  0
 10  9  1  0  0  0  0
 11 10  2  0  0  0  0
  1 11  1  0  0  0  0
M  END
> <ChemID>
100305

> <CAS>
134-32-7

> <Original_SMILES>
Nc1cccc2ccccc21

> <preferred_name>
1-Naphthylamine

> <dsstox_substance_id>
DTXSID7020920

> <dsstox_compound_id>
DTXCID30920

> <qc_level>
DSSTox_Low

> <Canonical_QSARr>
NC1=CC=CC2C=CC=CC=21

> <InChI_Code_QSARr>
InChI=1S/C10H9N/c11-10-7-3-5-8-4-1-2-6-9(8)10/h1-7H,11H2

> <InChI Key_QSARr>
RUFPHBVGCFYCNW-UHFFFAOYSA-N

> <Salt_Solvent>


> <Salt_Solvent_ID>
0

> <MPID>
98236

> <LogBCF>
1.4

> <Tr_1_Tst_0>
1

$$$$
100306
  Mrv171c012241911322D          

 34 37  0  0  0  0            999 V2000
   -2.1434   -1.2375    0.0000 O   0  0  0  0  0  0  0  0  0  0  0  0
   -2.1434   -0.4125    0.0000 C   0  0  0  0  0  0  0  0  0  0  0  0
   -2.8579    0.0000    0.0000 N   0  0  0  0  0  0  0  0  0  0  0  0
   -3.5724   -0.4125    0.0000 C   0  0  0  0  0  0  0  0  0  0  0  0
   -3.5724   -1.2375    0.0000 C   0  0  0  0  0  0  0  0  0  0  0  0
   -4.2868   -1.6500    0.0000 C   0  0  0  0  0  0  0  0  0  0  0  0
   -4.2868   -2.4750    0.0000 C   0  0  0  0  0  0  0  0  0  0  0  0
   -5.0013   -2.8875    0.0000 C   0  0  0  0  0  0  0  0  0  0  0  0
   -5.7158   -2.4750    0.0000 C   0  0  0  0  0  0  0  0  0  0  0  0
   -5.7158   -1.6500    0.0000 C   0  0  0  0  0  0  0  0  0  0  0  0
   -6.4302   -1.2375    0.0000 O   0  0  0  0  0  0  0  0  0  0  0  0
   -5.0013   -1.2375    0.0000 C   0  0  0  0  0  0  0  0  0  0  0  0
   -5.0013   -0.4125    0.0000 C   0  0  0  0  0  0  0  0  0  0  0  0
   -4.2868    0.0000    0.0000 C   0  0  0  0  0  0  0  0  0  0  0  0
   -5.0013   -3.7125    0.0000 S   0  0  0  0  0  0  0  0  0  0  0  0
   -5.0013   -4.5375    0.0000 O   0  0  0  0  0  0  0  0  0  0  0  0
   -4.1763   -3.7125    0.0000 O   0  0  0  0  0  0  0  0  0  0  0  0
   -5.8263   -3.7125    0.0000 O   0  0  0  0  0  0  0  0  0  0  0  0
   -1.4289    0.0000    0.0000 N   0  0  0  0  0  0  0  0  0  0  0  0
   -0.7145   -0.4125    0.0000 C   0  0  0  0  0  0  0  0  0  0  0  0
    0.0000    0.0000    0.0000 C   0  0  0  0  0  0  0  0  0  0  0  0
    0.7145   -0.4125    0.0000 C   0  0  0  0  0  0  0  0  0  0  0  0
    1.4289    0.0000    0.0000 C   0  0  0  0  0  0  0  0  0  0  0  0
    2.1434   -0.4125    0.0000 C   0  0  0  0  0  0  0  0  0  0  0  0
    2.1434   -1.2375    0.0000 C   0  0  0  0  0  0  0  0  0  0  0  0
    1.4289   -1.6500    0.0000 C   0  0  0  0  0  0  0  0  0  0  0  0
    1.4289   -2.4750    0.0000 O   0  0  0  0  0  0  0  0  0  0  0  0
    0.7145   -1.2375    0.0000 C   0  0  0  0  0  0  0  0  0  0  0  0
    0.0000   -1.6500    0.0000 C   0  0  0  0  0  0  0  0  0  0  0  0
   -0.7145   -1.2375    0.0000 C   0  0  0  0  0  0  0  0  0  0  0  0
    2.8579    0.0000    0.0000 S   0  0  0  0  0  0  0  0  0  0  0  0
    3.5724    0.4125    0.0000 O   0  0  0  0  0  0  0  0  0  0  0  0
    3.2704   -0.7145    0.0000 O   0  0  0  0  0  0  0  0  0  0  0  0
    2.4454    0.7145    0.0000 O   0  0  0  0  0  0  0  0  0  0  0  0
  1  2  2  0  0  0  0
  2  3  1  0  0  0  0
  3  4  1  0  0  0  0
  5  4  1  0  0  0  0
  6  5  2  0  0  0  0
  6  7  1  0  0  0  0
  7  8  2  0  0  0  0
  8  9  1  0  0  0  0
  9 10  2  0  0  0  0
 10 11  1  0  0  0  0
 10 12  1  0  0  0  0
 12  6  1  0  0  0  0
 13 12  2  0  0  0  0
 14 13  1  0  0  0  0
  4 14  2  0  0  0  0
  8 15  1  0  0  0  0
 15 16  1  0  0  0  0
 15 17  2  0  0  0  0
 15 18  2  0  0  0  0
  2 19  1  0  0  0  0
 19 20  1  0  0  0  0
 21 20  1  0  0  0  0
 22 21  2  0  0  0  0
 22 23  1  0  0  0  0
 23 24  2  0  0  0  0
 24 25  1  0  0  0  0
 25 26  2  0  0  0  0
 26 27  1  0  0  0  0
 26 28  1  0  0  0  0
 28 22  1  0  0  0  0
 29 28  2  0  0  0  0
 30 29  1  0  0  0  0
 20 30  2  0  0  0  0
 24 31  1  0  0  0  0
 31 32  1  0  0  0  0
 31 33  2  0  0  0  0
 31 34  2  0  0  0  0
M  END
> <ChemID>
100306

> <CAS>
134-47-4

> <Original_SMILES>
OS(=O)(=O)c1cc(O)c2ccc(cc2c1)NC(=O)Nc1cc2cc(cc(O)c2cc1)S(O)(=O)=O

> <preferred_name>
7,7'-(Carbonyldiimino)bis[4-hydroxy-2-naphthalenesulfonic acid]

> <dsstox_substance_id>
DTXSID7059642

> <dsstox_compound_id>
DTXCID6034180

> <qc_level>
Public_High

> <Canonical_QSARr>
OS(=O)(=O)C1=CC2=CC(=CC=C2C(O)=C1)NC(=O)NC1C=C2C=C(C=C(O)C2=CC=1)S(O)(=O)=O

> <InChI_Code_QSARr>
InChI=1S/C21H16N2O9S2/c24-19-9-15(33(27,28)29)7-11-5-13(1-3-17(11)19)22-21(26)23-14-2-4-18-12(6-14)8-16(10-20(18)25)34(30,31)32/h1-10,24-25H,(H2,22,23,26)(H,27,28,29)(H,30,31,32)

> <InChI Key_QSARr>
PCGISRHGYLRXSR-UHFFFAOYSA-N

> <Salt_Solvent>


> <Salt_Solvent_ID>
0

> <MPID>
98237

> <LogBCF>
0.26

> <Tr_1_Tst_0>
0

$$$$
100307
  Mrv171c012241911322D          

 14 14  0  0  0  0            999 V2000
    3.2271   -3.2545    0.0000 C   0  0  0  0  0  0  0  0  0  0  0  0
    3.2271   -2.4295    0.0000 C   0  0  0  0  0  0  0  0  0  0  0  0
    2.5126   -2.0170    0.0000 N   0  0  0  0  0  0  0  0  0  0  0  0
    2.5126   -1.1920    0.0000 C   0  0  0  0  0  0  0  0  0  0  0  0
    1.7982   -0.7795    0.0000 C   0  0  0  0  0  0  0  0  0  0  0  0
    1.7982    0.0455    0.0000 C   0  0  0  0  0  0  0  0  0  0  0  0
    1.0837    0.4580    0.0000 C   0  0  0  0  0  0  0  0  0  0  0  0
    1.0837    1.2830    0.0000 C   0  0  0  0  0  0  0  0  0  0  0  0
    0.3692    0.0455    0.0000 C   0  0  0  0  0  0  0  0  0  0  0  0
    0.3692   -0.7795    0.0000 C   0  0  0  0  0  0  0  0  0  0  0  0
    1.0837   -1.1920    0.0000 C   0  0  0  0  0  0  0  0  0  0  0  0
    3.2271   -0.7795    0.0000 O   0  0  0  0  0  0  0  0  0  0  0  0
    1.7982   -2.4295    0.0000 C   0  0  0  0  0  0  0  0  0  0  0  0
    1.0837   -2.0170    0.0000 C   0  0  0  0  0  0  0  0  0  0  0  0
  1  2  1  0  0  0  0
  2  3  1  0  0  0  0
  3  4  1  0  0  0  0
  4  5  1  0  0  0  0
  6  5  1  0  0  0  0
  7  6  2  0  0  0  0
  7  8  1  0  0  0  0
  9  7  1  0  0  0  0
 10  9  2  0  0  0  0
 11 10  1  0  0  0  0
  5 11  2  0  0  0  0
  4 12  2  0  0  0  0
  3 13  1  0  0  0  0
 13 14  1  0  0  0  0
M  END
> <ChemID>
100307

> <CAS>
134-62-3

> <Original_SMILES>
Cc1cc(ccc1)C(=O)N(CC)CC

> <preferred_name>
DEET

> <dsstox_substance_id>
DTXSID2021995

> <dsstox_compound_id>
DTXCID601995

> <qc_level>
DSSTox_Low

> <Canonical_QSARr>
CC1C=CC=C(C=1)C(=O)N(CC)CC

> <InChI_Code_QSARr>
InChI=1S/C12H17NO/c1-4-13(5-2)12(14)11-8-6-7-10(3)9-11/h6-9H,4-5H2,1-3H3

> <InChI Key_QSARr>
MMOXZBCLCQITDF-UHFFFAOYSA-N

> <Salt_Solvent>


> <Salt_Solvent_ID>
0

> <MPID>
98238

> <LogBCF>
0.38

> <Tr_1_Tst_0>
1

$$$$
100308
  Mrv171c012241911322D          

 17 19  0  0  0  0            999 V2000
    3.5741   -1.6515    0.0000 C   0  0  0  0  0  0  0  0  0  0  0  0
    2.8596   -1.2390    0.0000 C   0  0  0  0  0  0  0  0  0  0  0  0
    2.1452   -1.6515    0.0000 N   0  0  0  0  0  0  0  0  0  0  0  0
    1.4307   -1.2390    0.0000 C   0  0  0  0  0  0  0  0  0  0  0  0
    1.4307   -0.4140    0.0000 C   0  0  0  0  0  0  0  0  0  0  0  0
    0.7162   -0.0015    0.0000 C   0  0  0  0  0  0  0  0  0  0  0  0
    0.0018   -0.4140    0.0000 C   0  0  0  0  0  0  0  0  0  0  0  0
    0.0018   -1.2390    0.0000 C   0  0  0  0  0  0  0  0  0  0  0  0
    0.7162   -1.6515    0.0000 C   0  0  0  0  0  0  0  0  0  0  0  0
    2.8596   -0.4140    0.0000 C   0  0  0  0  0  0  0  0  0  0  0  0
    3.5741   -0.0015    0.0000 C   0  0  0  0  0  0  0  0  0  0  0  0
    4.2886   -0.4140    0.0000 C   0  0  0  0  0  0  0  0  0  0  0  0
    5.0031   -0.0015    0.0000 C   0  0  0  0  0  0  0  0  0  0  0  0
    5.7175   -0.4140    0.0000 C   0  0  0  0  0  0  0  0  0  0  0  0
    5.7175   -1.2390    0.0000 C   0  0  0  0  0  0  0  0  0  0  0  0
    5.0031   -1.6515    0.0000 C   0  0  0  0  0  0  0  0  0  0  0  0
    4.2886   -1.2390    0.0000 C   0  0  0  0  0  0  0  0  0  0  0  0
  2  1  1  0  0  0  0
  2  3  1  0  0  0  0
  3  4  1  0  0  0  0
  5  4  1  0  0  0  0
  6  5  2  0  0  0  0
  7  6  1  0  0  0  0
  8  7  2  0  0  0  0
  9  8  1  0  0  0  0
  4  9  2  0  0  0  0
 10  2  2  0  0  0  0
 11 10  1  0  0  0  0
 12 11  2  0  0  0  0
 12 13  1  0  0  0  0
 13 14  2  0  0  0  0
 14 15  1  0  0  0  0
 15 16  2  0  0  0  0
 16 17  1  0  0  0  0
  1 17  2  0  0  0  0
 17 12  1  0  0  0  0
M  END
> <ChemID>
100308

> <CAS>
135-88-6

> <Original_SMILES>
c1c(ccc2ccccc21)Nc1ccccc1

> <preferred_name>
N-Phenyl-2-naphthylamine

> <dsstox_substance_id>
DTXSID4021131

> <dsstox_compound_id>
DTXCID601131

> <qc_level>
DSSTox_Low

> <Canonical_QSARr>
C1C(=CC=C2C=CC=CC2=1)NC1C=CC=CC=1

> <InChI_Code_QSARr>
InChI=1S/C16H13N/c1-2-8-15(9-3-1)17-16-11-10-13-6-4-5-7-14(13)12-16/h1-12,17H

> <InChI Key_QSARr>
KEQFTVQCIQJIQW-UHFFFAOYSA-N

> <Salt_Solvent>


> <Salt_Solvent_ID>
0

> <MPID>
98239

> <LogBCF>
2.37

> <Tr_1_Tst_0>
1

$$$$
100309
  Mrv171c012241911322D          

 12 11  0  0  0  0            999 V2000
    3.3960   -0.1034    0.0000 S   0  0  0  0  0  0  0  0  0  0  0  0
    3.3960   -0.9284    0.0000 C   0  0  0  0  0  0  0  0  0  0  0  0
    2.6816   -1.3409    0.0000 S   0  0  0  0  0  0  0  0  0  0  0  0
    1.9671   -0.9284    0.0000 S   0  0  0  0  0  0  0  0  0  0  0  0
    1.2526   -1.3409    0.0000 C   0  0  0  0  0  0  0  0  0  0  0  0
    0.5381   -0.9284    0.0000 N   0  0  0  0  0  0  0  0  0  0  0  0
   -0.1763   -1.3409    0.0000 C   0  0  0  0  0  0  0  0  0  0  0  0
    0.5381   -0.1034    0.0000 C   0  0  0  0  0  0  0  0  0  0  0  0
    1.2526   -2.1659    0.0000 S   0  0  0  0  0  0  0  0  0  0  0  0
    4.1105   -1.3409    0.0000 N   0  0  0  0  0  0  0  0  0  0  0  0
    4.8250   -0.9284    0.0000 C   0  0  0  0  0  0  0  0  0  0  0  0
    4.1105   -2.1659    0.0000 C   0  0  0  0  0  0  0  0  0  0  0  0
  1  2  2  0  0  0  0
  2  3  1  0  0  0  0
  3  4  1  0  0  0  0
  4  5  1  0  0  0  0
  5  6  1  0  0  0  0
  6  7  1  0  0  0  0
  6  8  1  0  0  0  0
  5  9  2  0  0  0  0
  2 10  1  0  0  0  0
 10 11  1  0  0  0  0
 10 12  1  0  0  0  0
M  END
> <ChemID>
100309

> <CAS>
137-26-8

> <Original_SMILES>
CN(C)C(=S)SSC(=S)N(C)C

> <preferred_name>
Thiram

> <dsstox_substance_id>
DTXSID5021332

> <dsstox_compound_id>
DTXCID401332

> <qc_level>
DSSTox_Low

> <Canonical_QSARr>
CN(C)C(=S)SSC(=S)N(C)C

> <InChI_Code_QSARr>
InChI=1S/C6H12N2S4/c1-7(2)5(9)11-12-6(10)8(3)4/h1-4H3

> <InChI Key_QSARr>
KUAZQDVKQLNFPE-UHFFFAOYSA-N

> <Salt_Solvent>


> <Salt_Solvent_ID>
0

> <MPID>
98240

> <LogBCF>
0.53

> <Tr_1_Tst_0>
1

$$$$
100310
  Mrv171c012241911322D          

 15 15  0  0  0  0            999 V2000
    2.5833   -1.8191    0.0000 C   0  0  0  0  0  0  0  0  0  0  0  0
    3.4083   -1.8191    0.0000 C   0  0  0  0  0  0  0  0  0  0  0  0
    1.7583   -1.8191    0.0000 C   0  0  0  0  0  0  0  0  0  0  0  0
    2.5833   -2.6441    0.0000 C   0  0  0  0  0  0  0  0  0  0  0  0
    1.8689   -3.0566    0.0000 C   0  0  0  0  0  0  0  0  0  0  0  0
    1.1544   -3.4691    0.0000 C   0  0  0  0  0  0  0  0  0  0  0  0
    2.2814   -3.7711    0.0000 C   0  0  0  0  0  0  0  0  0  0  0  0
    1.4564   -2.3421    0.0000 C   0  0  0  0  0  0  0  0  0  0  0  0
    2.5833   -0.9941    0.0000 C   0  0  0  0  0  0  0  0  0  0  0  0
    3.2978   -0.5816    0.0000 C   0  0  0  0  0  0  0  0  0  0  0  0
    3.2978    0.2434    0.0000 C   0  0  0  0  0  0  0  0  0  0  0  0
    2.5833    0.6559    0.0000 C   0  0  0  0  0  0  0  0  0  0  0  0
    2.5833    1.4809    0.0000 O   0  0  0  0  0  0  0  0  0  0  0  0
    1.8689    0.2434    0.0000 C   0  0  0  0  0  0  0  0  0  0  0  0
    1.8689   -0.5816    0.0000 C   0  0  0  0  0  0  0  0  0  0  0  0
  1  2  1  0  0  0  0
  1  3  1  0  0  0  0
  1  4  1  0  0  0  0
  4  5  1  0  0  0  0
  5  6  1  0  0  0  0
  5  7  1  0  0  0  0
  5  8  1  0  0  0  0
  1  9  1  0  0  0  0
 10  9  1  0  0  0  0
 11 10  2  0  0  0  0
 12 11  1  0  0  0  0
 12 13  1  0  0  0  0
 14 12  2  0  0  0  0
 15 14  1  0  0  0  0
  9 15  2  0  0  0  0
M  END
> <ChemID>
100310

> <CAS>
140-66-9

> <Original_SMILES>
CC(C)(C)CC(C)(C)c1ccc(O)cc1

> <preferred_name>
4-(1,1,3,3-Tetramethylbutyl)phenol

> <dsstox_substance_id>
DTXSID9022360

> <dsstox_compound_id>
DTXCID602360

> <qc_level>
DSSTox_Low

> <Canonical_QSARr>
CC(C)(C)CC(C)(C)C1C=CC(O)=CC=1

> <InChI_Code_QSARr>
InChI=1S/C14H22O/c1-13(2,3)10-14(4,5)11-6-8-12(15)9-7-11/h6-9,15H,10H2,1-5H3

> <InChI Key_QSARr>
ISAVYTVYFVQUDY-UHFFFAOYSA-N

> <Salt_Solvent>


> <Salt_Solvent_ID>
0

> <MPID>
98241

> <LogBCF>
2.46

> <Tr_1_Tst_0>
0

$$$$
100311
  Mrv171c012241911322D          

 10 10  0  0  0  0            999 V2000
    1.0697   -2.8457    0.0000 C   0  0  0  0  0  0  0  0  0  0  0  0
    1.0697   -2.0207    0.0000 C   0  0  0  0  0  0  0  0  0  0  0  0
    1.7842   -1.6082    0.0000 C   0  0  0  0  0  0  0  0  0  0  0  0
    2.4986   -2.0207    0.0000 C   0  0  0  0  0  0  0  0  0  0  0  0
    3.2131   -1.6082    0.0000 C   0  0  0  0  0  0  0  0  0  0  0  0
    3.2131   -0.7832    0.0000 C   0  0  0  0  0  0  0  0  0  0  0  0
    2.4986   -0.3707    0.0000 C   0  0  0  0  0  0  0  0  0  0  0  0
    2.4986    0.4543    0.0000 C   0  0  0  0  0  0  0  0  0  0  0  0
    1.7842    0.8668    0.0000 C   0  0  0  0  0  0  0  0  0  0  0  0
    1.7842   -0.7832    0.0000 C   0  0  0  0  0  0  0  0  0  0  0  0
  1  2  1  0  0  0  0
  2  3  1  0  0  0  0
  4  3  1  0  0  0  0
  5  4  2  0  0  0  0
  6  5  1  0  0  0  0
  7  6  2  0  0  0  0
  7  8  1  0  0  0  0
  8  9  1  0  0  0  0
 10  7  1  0  0  0  0
  3 10  2  0  0  0  0
M  END
> <ChemID>
100311

> <CAS>
141-93-5

> <Original_SMILES>
CCc1cc(CC)ccc1

> <preferred_name>
1,3-Diethylbenzene

> <dsstox_substance_id>
DTXSID1022003

> <dsstox_compound_id>
DTXCID402003

> <qc_level>
DSSTox_Low

> <Canonical_QSARr>
CCC1C=C(CC)C=CC=1

> <InChI_Code_QSARr>
InChI=1S/C10H14/c1-3-9-6-5-7-10(4-2)8-9/h5-8H,3-4H2,1-2H3

> <InChI Key_QSARr>
AFZZYIJIWUTJFO-UHFFFAOYSA-N

> <Salt_Solvent>


> <Salt_Solvent_ID>
0

> <MPID>
98242

> <LogBCF>
2.73

> <Tr_1_Tst_0>
1

$$$$
100312
  Mrv171c012241911322D          

  9  8  0  0  0  0            999 V2000
    0.0017   -0.0454    0.0000 C   0  0  0  0  0  0  0  0  0  0  0  0
    0.7161   -0.4579    0.0000 C   0  0  0  0  0  0  0  0  0  0  0  0
    1.4306   -0.0454    0.0000 C   0  0  0  0  0  0  0  0  0  0  0  0
    2.1451   -0.4579    0.0000 C   0  0  0  0  0  0  0  0  0  0  0  0
    2.8595   -0.0454    0.0000 O   0  0  0  0  0  0  0  0  0  0  0  0
    3.5740   -0.4579    0.0000 C   0  0  0  0  0  0  0  0  0  0  0  0
    4.2885   -0.0454    0.0000 C   0  0  0  0  0  0  0  0  0  0  0  0
    5.0030   -0.4579    0.0000 C   0  0  0  0  0  0  0  0  0  0  0  0
    5.7174   -0.0454    0.0000 C   0  0  0  0  0  0  0  0  0  0  0  0
  1  2  1  0  0  0  0
  2  3  1  0  0  0  0
  3  4  1  0  0  0  0
  4  5  1  0  0  0  0
  5  6  1  0  0  0  0
  6  7  1  0  0  0  0
  7  8  1  0  0  0  0
  8  9  1  0  0  0  0
M  END
> <ChemID>
100312

> <CAS>
142-96-1

> <Original_SMILES>
CCCCOCCCC

> <preferred_name>
Butyl ether

> <dsstox_substance_id>
DTXSID1022007

> <dsstox_compound_id>
DTXCID002007

> <qc_level>
DSSTox_Low

> <Canonical_QSARr>
CCCCOCCCC

> <InChI_Code_QSARr>
InChI=1S/C8H18O/c1-3-5-7-9-8-6-4-2/h3-8H2,1-2H3

> <InChI Key_QSARr>
DURPTKYDGMDSBL-UHFFFAOYSA-N

> <Salt_Solvent>


> <Salt_Solvent_ID>
0

> <MPID>
98243

> <LogBCF>
1.86

> <Tr_1_Tst_0>
1

$$$$
100313
  Mrv171c012241911322D          

 21 25  0  0  0  0            999 V2000
    2.0825   -0.3631    0.0000 C   0  0  0  0  0  0  0  0  0  0  0  0
    2.3411    0.4203    0.0000 Cl  0  0  0  0  0  0  0  0  0  0  0  0
    2.1167   -1.0020    0.0000 C   0  0  0  0  0  0  0  0  0  0  0  0
    2.2031   -2.0722    0.0000 C   0  0  0  0  0  0  0  0  0  0  0  0
    2.7303   -1.8159    0.0000 C   0  0  0  0  0  0  0  0  0  0  0  0
    1.6622   -1.9816    0.0000 C   0  0  0  0  0  0  0  0  0  0  0  0
    1.2236   -2.6803    0.0000 Cl  0  0  0  0  0  0  0  0  0  0  0  0
    1.8328   -1.3826    0.0000 C   0  0  0  0  0  0  0  0  0  0  0  0
    0.8041   -1.3317    0.0000 C   0  0  0  0  0  0  0  0  0  0  0  0
    1.1335   -0.4697    0.0000 C   0  0  0  0  0  0  0  0  0  0  0  0
    0.6284    0.1826    0.0000 Cl  0  0  0  0  0  0  0  0  0  0  0  0
    1.3778   -1.0490    0.0000 C   0  0  0  0  0  0  0  0  0  0  0  0
    0.9154   -1.7323    0.0000 Cl  0  0  0  0  0  0  0  0  0  0  0  0
    0.4782   -2.0896    0.0000 Cl  0  0  0  0  0  0  0  0  0  0  0  0
   -0.0209   -1.3248    0.0000 Cl  0  0  0  0  0  0  0  0  0  0  0  0
    1.6723   -0.5733    0.0000 Cl  0  0  0  0  0  0  0  0  0  0  0  0
    2.7252   -0.9614    0.0000 C   0  0  0  0  0  0  0  0  0  0  0  0
    3.5404   -1.0883    0.0000 Cl  0  0  0  0  0  0  0  0  0  0  0  0
    3.4310   -2.2515    0.0000 Cl  0  0  0  0  0  0  0  0  0  0  0  0
    1.7939   -2.7886    0.0000 O   0  0  0  0  0  0  0  0  0  0  0  0
    2.9167   -1.2038    0.0000 Cl  0  0  0  0  0  0  0  0  0  0  0  0
  1  2  1  0  0  0  0
  3  1  1  0  0  0  0
  3  4  1  0  0  0  0
  4  5  1  0  0  0  0
  5  6  1  0  0  0  0
  6  7  1  0  0  0  0
  8  6  1  0  0  0  0
  9  8  1  0  0  0  0
 10  9  1  0  0  0  0
 10  1  1  0  0  0  0
 10 11  1  0  0  0  0
 12 10  1  0  0  0  0
 12  3  1  0  0  0  0
  6 12  1  0  0  0  0
 12 13  1  0  0  0  0
  9 14  1  0  0  0  0
  9 15  1  0  0  0  0
  8 16  1  0  0  0  0
  8 17  1  0  0  0  0
  1 17  1  0  0  0  0
 17  5  1  0  0  0  0
 17 18  1  0  0  0  0
  5 19  1  0  0  0  0
  4 20  2  0  0  0  0
  3 21  1  0  0  0  0
M  END
> <ChemID>
100313

> <CAS>
143-50-0

> <Original_SMILES>
O=C1C2(Cl)C3(Cl)C4(Cl)C2(Cl)C2(Cl)C(Cl)(C3(Cl)C21Cl)C4(Cl)Cl

> <preferred_name>
Kepone

> <dsstox_substance_id>
DTXSID1020770

> <dsstox_compound_id>
DTXCID10770

> <qc_level>
DSSTox_Low

> <Canonical_QSARr>
O=C1C2(Cl)C3(Cl)C4(Cl)C2(Cl)C2(Cl)C(Cl)(C3(Cl)C21Cl)C4(Cl)Cl

> <InChI_Code_QSARr>
InChI=1S/C10Cl10O/c11-2-1(21)3(12)6(15)4(2,13)8(17)5(2,14)7(3,16)9(6,18)10(8,19)20

> <InChI Key_QSARr>
LHHGDZSESBACKH-UHFFFAOYSA-N

> <Salt_Solvent>


> <Salt_Solvent_ID>
0

> <MPID>
98244

> <LogBCF>
3.19

> <Tr_1_Tst_0>
1

$$$$
100314
  Mrv171c012241911322D          

 10  9  0  0  0  0            999 V2000
    1.1841    0.0590    0.0000 C   0  0  0  0  0  0  0  0  0  0  0  0
    1.5966    0.7735    0.0000 O   0  0  0  0  0  0  0  0  0  0  0  0
    1.5966   -0.6554    0.0000 C   0  0  0  0  0  0  0  0  0  0  0  0
    0.8822   -1.0679    0.0000 C   0  0  0  0  0  0  0  0  0  0  0  0
    2.3111   -0.2429    0.0000 C   0  0  0  0  0  0  0  0  0  0  0  0
    2.0091   -1.3699    0.0000 C   0  0  0  0  0  0  0  0  0  0  0  0
    2.8341   -1.3699    0.0000 O   0  0  0  0  0  0  0  0  0  0  0  0
    1.5966   -2.0844    0.0000 C   0  0  0  0  0  0  0  0  0  0  0  0
    2.0091   -2.7989    0.0000 C   0  0  0  0  0  0  0  0  0  0  0  0
    0.7716   -2.0844    0.0000 C   0  0  0  0  0  0  0  0  0  0  0  0
  1  2  1  0  0  0  0
  1  3  1  0  0  0  0
  3  4  1  0  0  0  0
  3  5  1  0  0  0  0
  3  6  1  0  0  0  0
  6  7  1  0  0  0  0
  6  8  1  0  0  0  0
  8  9  1  0  0  0  0
  8 10  1  0  0  0  0
M  END
> <ChemID>
100314

> <CAS>
144-19-4

> <Original_SMILES>
CC(C)C(O)C(C)(C)CO

> <preferred_name>
2,2,4-Trimethyl-1,3-pentanediol

> <dsstox_substance_id>
DTXSID8027113

> <dsstox_compound_id>
DTXCID407113

> <qc_level>
DSSTox_Low

> <Canonical_QSARr>
CC(C)C(O)C(C)(C)CO

> <InChI_Code_QSARr>
InChI=1S/C8H18O2/c1-6(2)7(10)8(3,4)5-9/h6-7,9-10H,5H2,1-4H3

> <InChI Key_QSARr>
JCTXKRPTIMZBJT-UHFFFAOYSA-N

> <Salt_Solvent>


> <Salt_Solvent_ID>
0

> <MPID>
98245

> <LogBCF>
0.0

> <Tr_1_Tst_0>
0

$$$$
100315
  Mrv171c012241911322D          

 10 11  0  0  0  0            999 V2000
   -0.0016   -0.8236    0.0000 S   0  0  0  0  0  0  0  0  0  0  0  0
    0.8234   -0.8236    0.0000 C   0  0  0  0  0  0  0  0  0  0  0  0
    1.3084   -0.1562    0.0000 S   0  0  0  0  0  0  0  0  0  0  0  0
    2.0930   -0.4111    0.0000 C   0  0  0  0  0  0  0  0  0  0  0  0
    2.8075    0.0014    0.0000 C   0  0  0  0  0  0  0  0  0  0  0  0
    3.5219   -0.4111    0.0000 C   0  0  0  0  0  0  0  0  0  0  0  0
    3.5219   -1.2361    0.0000 C   0  0  0  0  0  0  0  0  0  0  0  0
    2.8075   -1.6486    0.0000 C   0  0  0  0  0  0  0  0  0  0  0  0
    2.0930   -1.2361    0.0000 C   0  0  0  0  0  0  0  0  0  0  0  0
    1.3084   -1.4911    0.0000 N   0  0  0  0  0  0  0  0  0  0  0  0
  1  2  1  0  0  0  0
  3  2  1  0  0  0  0
  4  3  1  0  0  0  0
  4  5  1  0  0  0  0
  5  6  2  0  0  0  0
  6  7  1  0  0  0  0
  7  8  2  0  0  0  0
  8  9  1  0  0  0  0
  9  4  2  0  0  0  0
 10  9  1  0  0  0  0
  2 10  2  0  0  0  0
M  END
> <ChemID>
100315

> <CAS>
149-30-4

> <Original_SMILES>
Sc1[n]c2ccccc2[s]1

> <preferred_name>
2-Mercaptobenzothiazole

> <dsstox_substance_id>
DTXSID1020807

> <dsstox_compound_id>
DTXCID90807

> <qc_level>
DSSTox_High

> <Canonical_QSARr>
SC1=NC2C=CC=CC=2S1

> <InChI_Code_QSARr>
InChI=1S/C7H5NS2/c9-7-8-5-3-1-2-4-6(5)10-7/h1-4H,(H,8,9)

> <InChI Key_QSARr>
YXIWHUQXZSMYRE-UHFFFAOYSA-N

> <Salt_Solvent>


> <Salt_Solvent_ID>
0

> <MPID>
98246

> <LogBCF>
0.9

> <Tr_1_Tst_0>
1

$$$$
100316
  Mrv171c012241911322D          

 10 10  0  0  0  0            999 V2000
    2.5326   -1.7271    0.0000 O   0  0  0  0  0  0  0  0  0  0  0  0
    1.8182   -2.1396    0.0000 C   0  0  0  0  0  0  0  0  0  0  0  0
    1.8182   -2.9646    0.0000 C   0  0  0  0  0  0  0  0  0  0  0  0
    2.5326   -0.9021    0.0000 C   0  0  0  0  0  0  0  0  0  0  0  0
    3.2471   -0.4896    0.0000 C   0  0  0  0  0  0  0  0  0  0  0  0
    3.2471    0.3354    0.0000 C   0  0  0  0  0  0  0  0  0  0  0  0
    2.5326    0.7479    0.0000 C   0  0  0  0  0  0  0  0  0  0  0  0
    2.5326    1.5729    0.0000 N   0  0  0  0  0  0  0  0  0  0  0  0
    1.8182    0.3354    0.0000 C   0  0  0  0  0  0  0  0  0  0  0  0
    1.8182   -0.4896    0.0000 C   0  0  0  0  0  0  0  0  0  0  0  0
  1  2  1  0  0  0  0
  2  3  1  0  0  0  0
  1  4  1  0  0  0  0
  5  4  1  0  0  0  0
  6  5  2  0  0  0  0
  7  6  1  0  0  0  0
  7  8  1  0  0  0  0
  9  7  2  0  0  0  0
 10  9  1  0  0  0  0
  4 10  2  0  0  0  0
M  END
> <ChemID>
100316

> <CAS>
156-43-4

> <Original_SMILES>
CCOc1ccc(N)cc1

> <preferred_name>
4-Ethoxyaniline

> <dsstox_substance_id>
DTXSID0025864

> <dsstox_compound_id>
DTXCID505864

> <qc_level>
DSSTox_Low

> <Canonical_QSARr>
CCOC1C=CC(N)=CC=1

> <InChI_Code_QSARr>
InChI=1S/C8H11NO/c1-2-10-8-5-3-7(9)4-6-8/h3-6H,2,9H2,1H3

> <InChI Key_QSARr>
IMPPGHMHELILKG-UHFFFAOYSA-N

> <Salt_Solvent>


> <Salt_Solvent_ID>
0

> <MPID>
98247

> <LogBCF>
1.0

> <Tr_1_Tst_0>
1

$$$$
100317
  Mrv171c012241911322D          

 16 19  0  0  0  0            999 V2000
    1.7518   -1.4991    0.0000 C   0  0  0  0  0  0  0  0  0  0  0  0
    2.0068   -2.2837    0.0000 C   0  0  0  0  0  0  0  0  0  0  0  0
    2.8318   -2.2837    0.0000 C   0  0  0  0  0  0  0  0  0  0  0  0
    3.0867   -1.4991    0.0000 C   0  0  0  0  0  0  0  0  0  0  0  0
    2.4193   -1.0142    0.0000 C   0  0  0  0  0  0  0  0  0  0  0  0
    2.3330   -0.1937    0.0000 C   0  0  0  0  0  0  0  0  0  0  0  0
    1.5794    0.1419    0.0000 C   0  0  0  0  0  0  0  0  0  0  0  0
    0.9119   -0.3430    0.0000 C   0  0  0  0  0  0  0  0  0  0  0  0
    0.9449   -1.3276    0.0000 C   0  0  0  0  0  0  0  0  0  0  0  0
    0.3928   -1.9407    0.0000 C   0  0  0  0  0  0  0  0  0  0  0  0
    0.6478   -2.7253    0.0000 C   0  0  0  0  0  0  0  0  0  0  0  0
    1.4547   -2.8968    0.0000 C   0  0  0  0  0  0  0  0  0  0  0  0
    3.8937   -1.3276    0.0000 C   0  0  0  0  0  0  0  0  0  0  0  0
    4.4457   -1.9407    0.0000 C   0  0  0  0  0  0  0  0  0  0  0  0
    4.1908   -2.7253    0.0000 C   0  0  0  0  0  0  0  0  0  0  0  0
    3.3838   -2.8968    0.0000 C   0  0  0  0  0  0  0  0  0  0  0  0
  2  1  1  0  0  0  0
  2  3  1  0  0  0  0
  4  3  2  0  0  0  0
  4  5  1  0  0  0  0
  5  1  2  0  0  0  0
  5  6  1  0  0  0  0
  6  7  2  0  0  0  0
  7  8  1  0  0  0  0
  8  9  2  0  0  0  0
  1  9  1  0  0  0  0
  9 10  1  0  0  0  0
 10 11  2  0  0  0  0
 11 12  1  0  0  0  0
 12  2  2  0  0  0  0
 13  4  1  0  0  0  0
 14 13  2  0  0  0  0
 15 14  1  0  0  0  0
 16 15  2  0  0  0  0
  3 16  1  0  0  0  0
M  END
> <ChemID>
100317

> <CAS>
206-44-0

> <Original_SMILES>
c1ccc2c3c(cccc31)-c1ccccc1-2

> <preferred_name>
Fluoranthene

> <dsstox_substance_id>
DTXSID3024104

> <dsstox_compound_id>
DTXCID204104

> <qc_level>
DSSTox_Low

> <Canonical_QSARr>
C1=CC=C2C3=C(C=CC=C31)C1C=CC=CC=12

> <InChI_Code_QSARr>
InChI=1S/C16H10/c1-2-8-13-12(7-1)14-9-3-5-11-6-4-10-15(13)16(11)14/h1-10H

> <InChI Key_QSARr>
GVEPBJHOBDJJJI-UHFFFAOYSA-N

> <Salt_Solvent>


> <Salt_Solvent_ID>
0

> <MPID>
98248

> <LogBCF>
3.56

> <Tr_1_Tst_0>
1

$$$$
100318
  Mrv171c012241911322D          

 12 14  0  0  0  0            999 V2000
    1.0219   -0.0469    0.0000 C   0  0  0  0  0  0  0  0  0  0  0  0
    0.7670   -0.8315    0.0000 C   0  0  0  0  0  0  0  0  0  0  0  0
    1.4344   -1.3165    0.0000 C   0  0  0  0  0  0  0  0  0  0  0  0
    1.3482   -2.1369    0.0000 C   0  0  0  0  0  0  0  0  0  0  0  0
    0.5945   -2.4725    0.0000 C   0  0  0  0  0  0  0  0  0  0  0  0
   -0.0729   -1.9876    0.0000 C   0  0  0  0  0  0  0  0  0  0  0  0
    0.0133   -1.1671    0.0000 C   0  0  0  0  0  0  0  0  0  0  0  0
    2.2743   -2.4725    0.0000 C   0  0  0  0  0  0  0  0  0  0  0  0
    2.9418   -1.9876    0.0000 C   0  0  0  0  0  0  0  0  0  0  0  0
    2.8555   -1.1671    0.0000 C   0  0  0  0  0  0  0  0  0  0  0  0
    2.1019   -0.8315    0.0000 C   0  0  0  0  0  0  0  0  0  0  0  0
    1.8469   -0.0469    0.0000 C   0  0  0  0  0  0  0  0  0  0  0  0
  2  1  1  0  0  0  0
  2  3  2  0  0  0  0
  3  4  1  0  0  0  0
  4  5  2  0  0  0  0
  5  6  1  0  0  0  0
  6  7  2  0  0  0  0
  7  2  1  0  0  0  0
  4  8  1  0  0  0  0
  8  9  2  0  0  0  0
  9 10  1  0  0  0  0
 10 11  2  0  0  0  0
 11  3  1  0  0  0  0
 12 11  1  0  0  0  0
  1 12  2  0  0  0  0
M  END
> <ChemID>
100318

> <CAS>
208-96-8

> <Original_SMILES>
c1ccc2C=Cc3cccc1c32

> <preferred_name>
Acenaphthylene

> <dsstox_substance_id>
DTXSID3023845

> <dsstox_compound_id>
DTXCID103845

> <qc_level>
DSSTox_Low

> <Canonical_QSARr>
C1=CC=C2C=CC=C3C=CC1=C32

> <InChI_Code_QSARr>
InChI=1S/C12H8/c1-3-9-4-2-6-11-8-7-10(5-1)12(9)11/h1-8H

> <InChI Key_QSARr>
HXGDTGSAIMULJN-UHFFFAOYSA-N

> <Salt_Solvent>


> <Salt_Solvent_ID>
0

> <MPID>
98249

> <LogBCF>
2.43

> <Tr_1_Tst_0>
0

$$$$
100319
  Mrv171c012241911322D          

 18 21  0  0  0  0            999 V2000
    2.4548    0.1007    0.0000 C   0  0  0  0  0  0  0  0  0  0  0  0
    2.9949    0.7243    0.0000 C   0  0  0  0  0  0  0  0  0  0  0  0
    3.8050    0.5684    0.0000 C   0  0  0  0  0  0  0  0  0  0  0  0
    4.0751   -0.2111    0.0000 C   0  0  0  0  0  0  0  0  0  0  0  0
    4.8852   -0.3671    0.0000 C   0  0  0  0  0  0  0  0  0  0  0  0
    5.4253    0.2566    0.0000 C   0  0  0  0  0  0  0  0  0  0  0  0
    5.1552    1.0361    0.0000 C   0  0  0  0  0  0  0  0  0  0  0  0
    4.3451    1.1921    0.0000 C   0  0  0  0  0  0  0  0  0  0  0  0
    3.5350   -0.8348    0.0000 N   0  0  0  0  0  0  0  0  0  0  0  0
    2.7248   -0.6789    0.0000 C   0  0  0  0  0  0  0  0  0  0  0  0
    2.1847   -1.3025    0.0000 C   0  0  0  0  0  0  0  0  0  0  0  0
    1.3746   -1.1466    0.0000 C   0  0  0  0  0  0  0  0  0  0  0  0
    1.1046   -0.3671    0.0000 C   0  0  0  0  0  0  0  0  0  0  0  0
    0.2944   -0.2111    0.0000 C   0  0  0  0  0  0  0  0  0  0  0  0
    0.0244    0.5684    0.0000 C   0  0  0  0  0  0  0  0  0  0  0  0
    0.5645    1.1921    0.0000 C   0  0  0  0  0  0  0  0  0  0  0  0
    1.3746    1.0361    0.0000 C   0  0  0  0  0  0  0  0  0  0  0  0
    1.6447    0.2566    0.0000 C   0  0  0  0  0  0  0  0  0  0  0  0
  2  1  2  0  0  0  0
  3  2  1  0  0  0  0
  3  4  1  0  0  0  0
  4  5  2  0  0  0  0
  5  6  1  0  0  0  0
  6  7  2  0  0  0  0
  7  8  1  0  0  0  0
  8  3  2  0  0  0  0
  9  4  1  0  0  0  0
 10  9  2  0  0  0  0
 10  1  1  0  0  0  0
 11 10  1  0  0  0  0
 12 11  2  0  0  0  0
 13 12  1  0  0  0  0
 13 14  2  0  0  0  0
 14 15  1  0  0  0  0
 15 16  2  0  0  0  0
 16 17  1  0  0  0  0
 17 18  2  0  0  0  0
  1 18  1  0  0  0  0
 18 13  1  0  0  0  0
M  END
> <ChemID>
100319

> <CAS>
225-11-6

> <Original_SMILES>
c1c2c3ccccc3ccc2[n]c2ccccc21

> <preferred_name>
Benz[a]acridine

> <dsstox_substance_id>
DTXSID9075371

> <dsstox_compound_id>
DTXCID0036710

> <qc_level>
Public_High

> <Canonical_QSARr>
C1=C2C3=CC=CC=C3C=CC2=NC2=CC=CC=C21

> <InChI_Code_QSARr>
InChI=1S/C17H11N/c1-3-7-14-12(5-1)9-10-17-15(14)11-13-6-2-4-8-16(13)18-17/h1-11H

> <InChI Key_QSARr>
JEGZRTMZYUDVBF-UHFFFAOYSA-N

> <Salt_Solvent>


> <Salt_Solvent_ID>
0

> <MPID>
98250

> <LogBCF>
2.02

> <Tr_1_Tst_0>
1

$$$$
100320
  Mrv171c012241911322D          

 22 26  0  0  0  0            999 V2000
    2.3644    0.4125    0.0000 C   0  0  0  0  0  0  0  0  0  0  0  0
    2.7769    1.1270    0.0000 C   0  0  0  0  0  0  0  0  0  0  0  0
    3.6019    1.1270    0.0000 C   0  0  0  0  0  0  0  0  0  0  0  0
    4.0144    0.4125    0.0000 C   0  0  0  0  0  0  0  0  0  0  0  0
    4.8394    0.4125    0.0000 C   0  0  0  0  0  0  0  0  0  0  0  0
    5.2519   -0.3020    0.0000 C   0  0  0  0  0  0  0  0  0  0  0  0
    6.0769   -0.3020    0.0000 C   0  0  0  0  0  0  0  0  0  0  0  0
    6.4894    0.4125    0.0000 C   0  0  0  0  0  0  0  0  0  0  0  0
    6.0769    1.1270    0.0000 C   0  0  0  0  0  0  0  0  0  0  0  0
    5.2519    1.1270    0.0000 C   0  0  0  0  0  0  0  0  0  0  0  0
    4.8394    1.8414    0.0000 C   0  0  0  0  0  0  0  0  0  0  0  0
    4.0144    1.8414    0.0000 C   0  0  0  0  0  0  0  0  0  0  0  0
    3.6019   -0.3020    0.0000 N   0  0  0  0  0  0  0  0  0  0  0  0
    2.7769   -0.3020    0.0000 C   0  0  0  0  0  0  0  0  0  0  0  0
    2.3644   -1.0164    0.0000 C   0  0  0  0  0  0  0  0  0  0  0  0
    1.5394   -1.0164    0.0000 C   0  0  0  0  0  0  0  0  0  0  0  0
    1.1269   -0.3020    0.0000 C   0  0  0  0  0  0  0  0  0  0  0  0
    0.3019   -0.3020    0.0000 C   0  0  0  0  0  0  0  0  0  0  0  0
   -0.1106    0.4125    0.0000 C   0  0  0  0  0  0  0  0  0  0  0  0
    0.3019    1.1270    0.0000 C   0  0  0  0  0  0  0  0  0  0  0  0
    1.1269    1.1270    0.0000 C   0  0  0  0  0  0  0  0  0  0  0  0
    1.5394    0.4125    0.0000 C   0  0  0  0  0  0  0  0  0  0  0  0
  2  1  1  0  0  0  0
  3  2  2  0  0  0  0
  3  4  1  0  0  0  0
  4  5  1  0  0  0  0
  6  5  2  0  0  0  0
  7  6  1  0  0  0  0
  8  7  2  0  0  0  0
  9  8  1  0  0  0  0
 10  9  2  0  0  0  0
  5 10  1  0  0  0  0
 10 11  1  0  0  0  0
 11 12  2  0  0  0  0
 12  3  1  0  0  0  0
 13  4  2  0  0  0  0
 14 13  1  0  0  0  0
 14  1  2  0  0  0  0
 15 14  1  0  0  0  0
 16 15  2  0  0  0  0
 17 16  1  0  0  0  0
 17 18  2  0  0  0  0
 18 19  1  0  0  0  0
 19 20  2  0  0  0  0
 20 21  1  0  0  0  0
 21 22  2  0  0  0  0
  1 22  1  0  0  0  0
 22 17  1  0  0  0  0
M  END
> <ChemID>
100320

> <CAS>
226-36-8

> <Original_SMILES>
c1c2c(ccc3ccccc32)[n]c2c3ccccc3ccc21

> <preferred_name>
Dibenz[a,h]acridine

> <dsstox_substance_id>
DTXSID3059761

> <dsstox_compound_id>
DTXCID9036725

> <qc_level>
Public_High

> <Canonical_QSARr>
C1C2C3=CC=CC=C3C=CC=2N=C2C3=CC=CC=C3C=CC2=1

> <InChI_Code_QSARr>
InChI=1S/C21H13N/c1-3-7-17-14(5-1)11-12-20-19(17)13-16-10-9-15-6-2-4-8-18(15)21(16)22-20/h1-13H

> <InChI Key_QSARr>
JNCSIWAONQTVCF-UHFFFAOYSA-N

> <Salt_Solvent>


> <Salt_Solvent_ID>
0

> <MPID>
98251

> <LogBCF>
2.03

> <Tr_1_Tst_0>
1

$$$$
100321
  Mrv171c012241911322D          

 14 16  0  0  0  0            999 V2000
    2.8579   -0.0000    0.0000 C   0  0  0  0  0  0  0  0  0  0  0  0
    3.5724   -0.4125    0.0000 C   0  0  0  0  0  0  0  0  0  0  0  0
    4.2868    0.0000    0.0000 C   0  0  0  0  0  0  0  0  0  0  0  0
    4.2868    0.8250    0.0000 C   0  0  0  0  0  0  0  0  0  0  0  0
    3.5724    1.2375    0.0000 C   0  0  0  0  0  0  0  0  0  0  0  0
    2.8579    0.8250    0.0000 C   0  0  0  0  0  0  0  0  0  0  0  0
    2.1434    1.2375    0.0000 N   0  0  0  0  0  0  0  0  0  0  0  0
    1.4289    0.8250    0.0000 C   0  0  0  0  0  0  0  0  0  0  0  0
    1.4289    0.0000    0.0000 C   0  0  0  0  0  0  0  0  0  0  0  0
    0.7145   -0.4125    0.0000 C   0  0  0  0  0  0  0  0  0  0  0  0
    0.0000   -0.0000    0.0000 C   0  0  0  0  0  0  0  0  0  0  0  0
    0.0000    0.8250    0.0000 C   0  0  0  0  0  0  0  0  0  0  0  0
    0.7145    1.2375    0.0000 C   0  0  0  0  0  0  0  0  0  0  0  0
    2.1434   -0.4125    0.0000 C   0  0  0  0  0  0  0  0  0  0  0  0
  2  1  1  0  0  0  0
  3  2  2  0  0  0  0
  4  3  1  0  0  0  0
  5  4  2  0  0  0  0
  6  5  1  0  0  0  0
  6  1  1  0  0  0  0
  7  6  2  0  0  0  0
  8  7  1  0  0  0  0
  8  9  1  0  0  0  0
  9 10  2  0  0  0  0
 10 11  1  0  0  0  0
 11 12  2  0  0  0  0
 12 13  1  0  0  0  0
 13  8  2  0  0  0  0
 14  9  1  0  0  0  0
  1 14  2  0  0  0  0
M  END
> <ChemID>
100321

> <CAS>
260-94-6

> <Original_SMILES>
c1c2ccccc2[n]c2ccccc21

> <preferred_name>
Acridine

> <dsstox_substance_id>
DTXSID8059766

> <dsstox_compound_id>
DTXCID6037433

> <qc_level>
Public_High

> <Canonical_QSARr>
C1=C2C=CC=CC2=NC2=CC=CC=C21

> <InChI_Code_QSARr>
InChI=1S/C13H9N/c1-3-7-12-10(5-1)9-11-6-2-4-8-13(11)14-12/h1-9H

> <InChI Key_QSARr>
DZBUGLKDJFMEHC-UHFFFAOYSA-N

> <Salt_Solvent>


> <Salt_Solvent_ID>
0

> <MPID>
98252

> <LogBCF>
2.1

> <Tr_1_Tst_0>
1

$$$$
100322
  Mrv171c012241911322D          

 12 12  0  0  0  0            999 V2000
    2.1416   -0.4108    0.0000 C   0  0  0  0  0  0  0  0  0  0  0  0
    1.4271   -0.8233    0.0000 C   0  0  0  0  0  0  0  0  0  0  0  0
    0.7127   -0.4108    0.0000 C   0  0  0  0  0  0  0  0  0  0  0  0
   -0.0018   -0.8233    0.0000 C   0  0  0  0  0  0  0  0  0  0  0  0
   -0.0018   -1.6483    0.0000 C   0  0  0  0  0  0  0  0  0  0  0  0
    0.7127   -2.0608    0.0000 C   0  0  0  0  0  0  0  0  0  0  0  0
    0.7127   -2.8858    0.0000 C   0  0  0  0  0  0  0  0  0  0  0  0
    1.4271   -3.2983    0.0000 C   0  0  0  0  0  0  0  0  0  0  0  0
    2.1416   -2.8858    0.0000 C   0  0  0  0  0  0  0  0  0  0  0  0
    2.1416   -2.0608    0.0000 C   0  0  0  0  0  0  0  0  0  0  0  0
    2.8561   -1.6483    0.0000 C   0  0  0  0  0  0  0  0  0  0  0  0
    2.8561   -0.8233    0.0000 C   0  0  0  0  0  0  0  0  0  0  0  0
  2  1  1  0  0  0  0
  3  2  1  0  0  0  0
  4  3  1  0  0  0  0
  5  4  1  0  0  0  0
  6  5  1  0  0  0  0
  7  6  1  0  0  0  0
  8  7  1  0  0  0  0
  9  8  1  0  0  0  0
 10  9  1  0  0  0  0
 11 10  1  0  0  0  0
 12 11  1  0  0  0  0
  1 12  1  0  0  0  0
M  END
> <ChemID>
100322

> <CAS>
294-62-2

> <Original_SMILES>
C1CCCCCCCCCCC1

> <preferred_name>
Cyclododecane

> <dsstox_substance_id>
DTXSID9021552

> <dsstox_compound_id>
DTXCID401552

> <qc_level>
DSSTox_Low

> <Canonical_QSARr>
C1CCCCCCCCCCC1

> <InChI_Code_QSARr>
InChI=1S/C12H24/c1-2-4-6-8-10-12-11-9-7-5-3-1/h1-12H2

> <InChI Key_QSARr>
DDTBPAQBQHZRDW-UHFFFAOYSA-N

> <Salt_Solvent>


> <Salt_Solvent_ID>
0

> <MPID>
98253

> <LogBCF>
3.91

> <Tr_1_Tst_0>
0

$$$$
100323
  Mrv171c012241911322D          

 16 16  0  0  0  0            999 V2000
    1.9978   -1.7106    0.0000 S   0  0  0  0  0  0  0  0  0  0  0  0
    2.4103   -2.4251    0.0000 P   0  0  0  0  0  0  0  0  0  0  0  0
    1.6958   -2.8376    0.0000 O   0  0  0  0  0  0  0  0  0  0  0  0
    1.6958   -3.6626    0.0000 C   0  0  0  0  0  0  0  0  0  0  0  0
    2.8228   -3.1396    0.0000 O   0  0  0  0  0  0  0  0  0  0  0  0
    2.4103   -3.8540    0.0000 C   0  0  0  0  0  0  0  0  0  0  0  0
    3.1247   -2.0126    0.0000 O   0  0  0  0  0  0  0  0  0  0  0  0
    3.1247   -1.1876    0.0000 C   0  0  0  0  0  0  0  0  0  0  0  0
    3.8392   -0.7751    0.0000 C   0  0  0  0  0  0  0  0  0  0  0  0
    3.8392    0.0499    0.0000 C   0  0  0  0  0  0  0  0  0  0  0  0
    3.1247    0.4624    0.0000 C   0  0  0  0  0  0  0  0  0  0  0  0
    3.1247    1.2874    0.0000 N   0  3  0  0  0  0  0  0  0  0  0  0
    2.4103    1.6999    0.0000 O   0  5  0  0  0  0  0  0  0  0  0  0
    3.8392    1.6999    0.0000 O   0  0  0  0  0  0  0  0  0  0  0  0
    2.4103    0.0499    0.0000 C   0  0  0  0  0  0  0  0  0  0  0  0
    2.4103   -0.7751    0.0000 C   0  0  0  0  0  0  0  0  0  0  0  0
  1  2  2  0  0  0  0
  2  3  1  0  0  0  0
  3  4  1  0  0  0  0
  2  5  1  0  0  0  0
  5  6  1  0  0  0  0
  2  7  1  0  0  0  0
  7  8  1  0  0  0  0
  9  8  1  0  0  0  0
 10  9  2  0  0  0  0
 11 10  1  0  0  0  0
 11 12  1  0  0  0  0
 12 13  1  0  0  0  0
 12 14  2  0  0  0  0
 15 11  2  0  0  0  0
 16 15  1  0  0  0  0
  8 16  2  0  0  0  0
M  CHG  2  12   1  13  -1
M  END
> <ChemID>
100323

> <CAS>
298-00-0

> <Original_SMILES>
COP(=S)(Oc1ccc(cc1)[N+]([O-])=O)OC

> <preferred_name>
Methyl parathion

> <dsstox_substance_id>
DTXSID1020855

> <dsstox_compound_id>
DTXCID30855

> <qc_level>
DSSTox_Low

> <Canonical_QSARr>
COP(=S)(OC1C=CC(=CC=1)[N+]([O-])=O)OC

> <InChI_Code_QSARr>
InChI=1S/C8H10NO5PS/c1-12-15(16,13-2)14-8-5-3-7(4-6-8)9(10)11/h3-6H,1-2H3

> <InChI Key_QSARr>
RLBIQVVOMOPOHC-UHFFFAOYSA-N

> <Salt_Solvent>


> <Salt_Solvent_ID>
0

> <MPID>
98254

> <LogBCF>
1.93

> <Tr_1_Tst_0>
1

$$$$
100324
  Mrv171c012241911322D          

 14 13  0  0  0  0            999 V2000
    3.7882   -0.5279    0.0000 C   0  0  0  0  0  0  0  0  0  0  0  0
    3.0737   -0.9404    0.0000 C   0  0  0  0  0  0  0  0  0  0  0  0
    3.0737   -1.7654    0.0000 O   0  0  0  0  0  0  0  0  0  0  0  0
    2.3593   -2.1779    0.0000 P   0  0  0  0  0  0  0  0  0  0  0  0
    1.6448   -2.5904    0.0000 S   0  0  0  0  0  0  0  0  0  0  0  0
    0.9303   -2.1779    0.0000 C   0  0  0  0  0  0  0  0  0  0  0  0
    0.9303   -1.3529    0.0000 C   0  0  0  0  0  0  0  0  0  0  0  0
    0.2158   -0.9404    0.0000 S   0  0  0  0  0  0  0  0  0  0  0  0
    0.2158   -0.1154    0.0000 C   0  0  0  0  0  0  0  0  0  0  0  0
   -0.4986    0.2971    0.0000 C   0  0  0  0  0  0  0  0  0  0  0  0
    1.9468   -1.4634    0.0000 S   0  0  0  0  0  0  0  0  0  0  0  0
    2.7718   -2.8924    0.0000 O   0  0  0  0  0  0  0  0  0  0  0  0
    2.3593   -3.6069    0.0000 C   0  0  0  0  0  0  0  0  0  0  0  0
    1.5343   -3.6069    0.0000 C   0  0  0  0  0  0  0  0  0  0  0  0
  1  2  1  0  0  0  0
  2  3  1  0  0  0  0
  3  4  1  0  0  0  0
  4  5  1  0  0  0  0
  5  6  1  0  0  0  0
  6  7  1  0  0  0  0
  7  8  1  0  0  0  0
  8  9  1  0  0  0  0
  9 10  1  0  0  0  0
  4 11  2  0  0  0  0
  4 12  1  0  0  0  0
 12 13  1  0  0  0  0
 13 14  1  0  0  0  0
M  END
> <ChemID>
100324

> <CAS>
298-04-4

> <Original_SMILES>
CCSCCSP(=S)(OCC)OCC

> <preferred_name>
Disulfoton

> <dsstox_substance_id>
DTXSID0022018

> <dsstox_compound_id>
DTXCID702018

> <qc_level>
DSSTox_Low

> <Canonical_QSARr>
CCSCCSP(=S)(OCC)OCC

> <InChI_Code_QSARr>
InChI=1S/C8H19O2PS3/c1-4-9-11(12,10-5-2)14-8-7-13-6-3/h4-8H2,1-3H3

> <InChI Key_QSARr>
DOFZAZXDOSGAJZ-UHFFFAOYSA-N

> <Salt_Solvent>


> <Salt_Solvent_ID>
0

> <MPID>
98255

> <LogBCF>
2.34

> <Tr_1_Tst_0>
1

$$$$
100325
  Mrv171c012241911322D          

  9  8  0  0  0  0            999 V2000
    1.5346   -1.0320    0.0000 P   0  0  0  0  0  0  0  0  0  0  0  0
    1.5346   -0.2070    0.0000 S   0  0  0  0  0  0  0  0  0  0  0  0
    1.5346   -1.8570    0.0000 S   0  0  0  0  0  0  0  0  0  0  0  0
    2.3596   -1.0320    0.0000 O   0  0  0  0  0  0  0  0  0  0  0  0
    2.7721   -1.7465    0.0000 C   0  0  0  0  0  0  0  0  0  0  0  0
    3.5971   -1.7465    0.0000 C   0  0  0  0  0  0  0  0  0  0  0  0
    0.7096   -1.0320    0.0000 O   0  0  0  0  0  0  0  0  0  0  0  0
    0.2971   -0.3176    0.0000 C   0  0  0  0  0  0  0  0  0  0  0  0
   -0.5279   -0.3176    0.0000 C   0  0  0  0  0  0  0  0  0  0  0  0
  1  2  2  0  0  0  0
  1  3  1  0  0  0  0
  1  4  1  0  0  0  0
  4  5  1  0  0  0  0
  5  6  1  0  0  0  0
  1  7  1  0  0  0  0
  7  8  1  0  0  0  0
  8  9  1  0  0  0  0
M  END
> <ChemID>
100325

> <CAS>
298-06-6

> <Original_SMILES>
CCOP(S)(=S)OCC

> <preferred_name>
O,O-Diethyl dithiophosphate

> <dsstox_substance_id>
DTXSID6027133

> <dsstox_compound_id>
DTXCID007133

> <qc_level>
DSSTox_Low

> <Canonical_QSARr>
CCOP(S)(=S)OCC

> <InChI_Code_QSARr>
InChI=1S/C4H11O2PS2/c1-3-5-7(8,9)6-4-2/h3-4H2,1-2H3,(H,8,9)

> <InChI Key_QSARr>
IRDLUHRVLVEUHA-UHFFFAOYSA-N

> <Salt_Solvent>


> <Salt_Solvent_ID>
0

> <MPID>
98256

> <LogBCF>
0.7

> <Tr_1_Tst_0>
1

$$$$
100326
  Mrv171c012241911322D          

 21 20  0  0  0  0            999 V2000
    3.1009   -2.2688    0.0000 P   0  0  0  0  0  0  0  0  0  0  0  0
    2.3865   -1.8563    0.0000 O   0  0  0  0  0  0  0  0  0  0  0  0
    2.6884   -2.9833    0.0000 O   0  0  0  0  0  0  0  0  0  0  0  0
    1.8634   -2.9833    0.0000 C   0  0  0  0  0  0  0  0  0  0  0  0
    1.4509   -3.6977    0.0000 C   0  0  0  0  0  0  0  0  0  0  0  0
    1.8634   -4.4122    0.0000 C   0  0  0  0  0  0  0  0  0  0  0  0
    1.4509   -5.1267    0.0000 C   0  0  0  0  0  0  0  0  0  0  0  0
    0.6259   -3.6977    0.0000 C   0  0  0  0  0  0  0  0  0  0  0  0
    0.2134   -4.4122    0.0000 C   0  0  0  0  0  0  0  0  0  0  0  0
   -0.6116   -4.4122    0.0000 C   0  0  0  0  0  0  0  0  0  0  0  0
   -1.0241   -5.1267    0.0000 C   0  0  0  0  0  0  0  0  0  0  0  0
    3.5134   -1.5543    0.0000 O   0  0  0  0  0  0  0  0  0  0  0  0
    4.3384   -1.5543    0.0000 C   0  0  0  0  0  0  0  0  0  0  0  0
    4.7509   -0.8398    0.0000 C   0  0  0  0  0  0  0  0  0  0  0  0
    4.3384   -0.1254    0.0000 C   0  0  0  0  0  0  0  0  0  0  0  0
    4.7509    0.5891    0.0000 C   0  0  0  0  0  0  0  0  0  0  0  0
    5.5759   -0.8398    0.0000 C   0  0  0  0  0  0  0  0  0  0  0  0
    5.9884   -0.1254    0.0000 C   0  0  0  0  0  0  0  0  0  0  0  0
    6.8134   -0.1254    0.0000 C   0  0  0  0  0  0  0  0  0  0  0  0
    7.2259    0.5891    0.0000 C   0  0  0  0  0  0  0  0  0  0  0  0
    3.8154   -2.6813    0.0000 O   0  0  0  0  0  0  0  0  0  0  0  0
  1  2  1  0  0  0  0
  1  3  1  0  0  0  0
  3  4  1  0  0  0  0
  4  5  1  0  0  0  0
  5  6  1  0  0  0  0
  6  7  1  0  0  0  0
  5  8  1  0  0  0  0
  8  9  1  0  0  0  0
  9 10  1  0  0  0  0
 10 11  1  0  0  0  0
  1 12  1  0  0  0  0
 12 13  1  0  0  0  0
 13 14  1  0  0  0  0
 14 15  1  0  0  0  0
 15 16  1  0  0  0  0
 14 17  1  0  0  0  0
 17 18  1  0  0  0  0
 18 19  1  0  0  0  0
 19 20  1  0  0  0  0
  1 21  2  0  0  0  0
M  END
> <ChemID>
100326

> <CAS>
298-07-7

> <Original_SMILES>
CCCCC(COP(O)(=O)OCC(CCCC)CC)CC

> <preferred_name>
Bis(2-ethylhexyl) phosphate

> <dsstox_substance_id>
DTXSID1027134

> <dsstox_compound_id>
DTXCID407134

> <qc_level>
DSSTox_Low

> <Canonical_QSARr>
CCCCC(COP(O)(=O)OCC(CCCC)CC)CC

> <InChI_Code_QSARr>
InChI=1S/C16H35O4P/c1-5-9-11-15(7-3)13-19-21(17,18)20-14-16(8-4)12-10-6-2/h15-16H,5-14H2,1-4H3,(H,17,18)

> <InChI Key_QSARr>
SEGLCEQVOFDUPX-UHFFFAOYSA-N

> <Salt_Solvent>


> <Salt_Solvent_ID>
0

> <MPID>
98257

> <LogBCF>
0.64

> <Tr_1_Tst_0>
0

$$$$
100327
  Mrv171c012241911322D          

 16 16  0  0  0  0            999 V2000
    3.5726   -0.8607    0.0000 P   0  0  0  0  0  0  0  0  0  0  0  0
    4.2870   -1.2732    0.0000 O   0  0  0  0  0  0  0  0  0  0  0  0
    5.0015   -0.8607    0.0000 C   0  0  0  0  0  0  0  0  0  0  0  0
    3.9851   -0.1463    0.0000 O   0  0  0  0  0  0  0  0  0  0  0  0
    3.5726    0.5682    0.0000 C   0  0  0  0  0  0  0  0  0  0  0  0
    3.1601   -1.5752    0.0000 S   0  0  0  0  0  0  0  0  0  0  0  0
    2.8581   -0.4482    0.0000 O   0  0  0  0  0  0  0  0  0  0  0  0
    2.1436   -0.8607    0.0000 C   0  0  0  0  0  0  0  0  0  0  0  0
    1.4292   -0.4482    0.0000 C   0  0  0  0  0  0  0  0  0  0  0  0
    1.4292    0.3768    0.0000 Cl  0  0  0  0  0  0  0  0  0  0  0  0
    0.7147   -0.8607    0.0000 C   0  0  0  0  0  0  0  0  0  0  0  0
    0.7147   -1.6857    0.0000 C   0  0  0  0  0  0  0  0  0  0  0  0
    0.0002   -2.0982    0.0000 Cl  0  0  0  0  0  0  0  0  0  0  0  0
    1.4292   -2.0982    0.0000 C   0  0  0  0  0  0  0  0  0  0  0  0
    1.4292   -2.9232    0.0000 Cl  0  0  0  0  0  0  0  0  0  0  0  0
    2.1436   -1.6857    0.0000 C   0  0  0  0  0  0  0  0  0  0  0  0
  1  2  1  0  0  0  0
  2  3  1  0  0  0  0
  1  4  1  0  0  0  0
  4  5  1  0  0  0  0
  1  6  2  0  0  0  0
  1  7  1  0  0  0  0
  7  8  1  0  0  0  0
  9  8  2  0  0  0  0
  9 10  1  0  0  0  0
 11  9  1  0  0  0  0
 12 11  2  0  0  0  0
 12 13  1  0  0  0  0
 14 12  1  0  0  0  0
 14 15  1  0  0  0  0
 16 14  2  0  0  0  0
  8 16  1  0  0  0  0
M  END
> <ChemID>
100327

> <CAS>
299-84-3

> <Original_SMILES>
COP(=S)(Oc1cc(Cl)c(Cl)cc1Cl)OC

> <preferred_name>
Fenchlorphos

> <dsstox_substance_id>
DTXSID2034885

> <dsstox_compound_id>
DTXCID0014885

> <qc_level>
DSSTox_Low

> <Canonical_QSARr>
COP(=S)(OC1C=C(Cl)C(Cl)=CC=1Cl)OC

> <InChI_Code_QSARr>
InChI=1S/C8H8Cl3O3PS/c1-12-15(16,13-2)14-8-4-6(10)5(9)3-7(8)11/h3-4H,1-2H3

> <InChI Key_QSARr>
JHJOOSLFWRRSGU-UHFFFAOYSA-N

> <Salt_Solvent>


> <Salt_Solvent_ID>
0

> <MPID>
98258

> <LogBCF>
3.58

> <Tr_1_Tst_0>
1

$$$$
100328
  Mrv171c012241911322D          

 18 21  0  0  0  0            999 V2000
   -0.3589    0.4477    0.0000 C   0  0  0  0  0  0  0  0  0  0  0  0
    0.4683    0.8300    0.0000 C   0  0  0  0  0  0  0  0  0  0  0  0
    0.6746    0.0050    0.0000 C   0  0  0  0  0  0  0  0  0  0  0  0
    0.0262    0.8109    0.0000 Cl  0  0  0  0  0  0  0  0  0  0  0  0
    0.0153   -0.8830    0.0000 Cl  0  0  0  0  0  0  0  0  0  0  0  0
    0.4683   -0.8200    0.0000 C   0  0  0  0  0  0  0  0  0  0  0  0
    0.6568   -1.6979    0.0000 Cl  0  0  0  0  0  0  0  0  0  0  0  0
    1.1828   -0.4075    0.0000 C   0  0  0  0  0  0  0  0  0  0  0  0
    1.1828    0.4175    0.0000 C   0  0  0  0  0  0  0  0  0  0  0  0
    1.9390    0.8445    0.0000 Cl  0  0  0  0  0  0  0  0  0  0  0  0
    1.9455   -0.8253    0.0000 Cl  0  0  0  0  0  0  0  0  0  0  0  0
   -0.2462   -0.4075    0.0000 C   0  0  0  0  0  0  0  0  0  0  0  0
   -0.9606   -0.8200    0.0000 C   0  0  0  0  0  0  0  0  0  0  0  0
   -1.1669    0.0050    0.0000 C   0  0  0  0  0  0  0  0  0  0  0  0
   -0.9606    0.8300    0.0000 C   0  0  0  0  0  0  0  0  0  0  0  0
   -1.6751    0.4175    0.0000 C   0  0  0  0  0  0  0  0  0  0  0  0
   -1.6751   -0.4075    0.0000 C   0  0  0  0  0  0  0  0  0  0  0  0
    0.5213    1.7138    0.0000 Cl  0  0  0  0  0  0  0  0  0  0  0  0
  2  1  1  0  0  0  0
  2  3  1  0  0  0  0
  3  4  1  0  0  0  0
  3  5  1  0  0  0  0
  3  6  1  0  0  0  0
  6  7  1  0  0  0  0
  6  8  1  0  0  0  0
  8  9  2  0  0  0  0
  9  2  1  0  0  0  0
  9 10  1  0  0  0  0
  8 11  1  0  0  0  0
 12  6  1  0  0  0  0
 12  1  1  0  0  0  0
 13 12  1  0  0  0  0
 13 14  1  0  0  0  0
 14 15  1  0  0  0  0
  1 15  1  0  0  0  0
 15 16  1  0  0  0  0
 16 17  2  0  0  0  0
 17 13  1  0  0  0  0
  2 18  1  0  0  0  0
M  END
> <ChemID>
100328

> <CAS>
309-00-2

> <Original_SMILES>
ClC1(Cl)[C@@]2(Cl)[C@@H]3[C@@H]4C[C@@H](C=C4)[C@@H]3[C@]1(Cl)C(Cl)=C2Cl

> <preferred_name>
Aldrin

> <dsstox_substance_id>
DTXSID8020040

> <dsstox_compound_id>
DTXCID10819882

> <qc_level>
DSSTox_High

> <Canonical_QSARr>
ClC1(Cl)C2(Cl)C3C4CC(C=C4)C3C1(Cl)C(Cl)=C2Cl

> <InChI_Code_QSARr>
InChI=1S/C12H8Cl6/c13-8-9(14)11(16)7-5-2-1-4(3-5)6(7)10(8,15)12(11,17)18/h1-2,4-7H,3H2

> <InChI Key_QSARr>
QBYJBZPUGVGKQQ-UHFFFAOYSA-N

> <Salt_Solvent>


> <Salt_Solvent_ID>
0

> <MPID>
98259

> <LogBCF>
3.74

> <Tr_1_Tst_0>
1

$$$$
100329
  Mrv171c012241911322D          

 14 14  0  0  0  0            999 V2000
    1.5310    0.3536    0.0000 N   0  0  0  0  0  0  0  0  0  0  0  0
    0.8165    0.7661    0.0000 C   0  0  0  0  0  0  0  0  0  0  0  0
    0.8165    1.5911    0.0000 O   0  0  0  0  0  0  0  0  0  0  0  0
    0.1021    0.3536    0.0000 N   0  0  0  0  0  0  0  0  0  0  0  0
   -0.6124    0.7661    0.0000 C   0  0  0  0  0  0  0  0  0  0  0  0
   -1.3269    0.3536    0.0000 C   0  0  0  0  0  0  0  0  0  0  0  0
   -2.0413    0.7661    0.0000 C   0  0  0  0  0  0  0  0  0  0  0  0
   -0.6124    1.5911    0.0000 C   0  0  0  0  0  0  0  0  0  0  0  0
    0.1021   -0.4714    0.0000 C   0  0  0  0  0  0  0  0  0  0  0  0
   -0.6124   -0.8839    0.0000 O   0  0  0  0  0  0  0  0  0  0  0  0
    0.8165   -0.8839    0.0000 C   0  0  0  0  0  0  0  0  0  0  0  0
    0.8165   -1.7089    0.0000 Br  0  0  0  0  0  0  0  0  0  0  0  0
    1.5310   -0.4714    0.0000 C   0  0  0  0  0  0  0  0  0  0  0  0
    2.2455   -0.8839    0.0000 C   0  0  0  0  0  0  0  0  0  0  0  0
  2  1  1  0  0  0  0
  2  3  2  0  0  0  0
  4  2  1  0  0  0  0
  4  5  1  0  0  0  0
  5  6  1  0  0  0  0
  6  7  1  0  0  0  0
  5  8  1  0  0  0  0
  9  4  1  0  0  0  0
  9 10  2  0  0  0  0
 11  9  1  0  0  0  0
 11 12  1  0  0  0  0
 13 11  1  0  0  0  0
  1 13  2  0  0  0  0
 13 14  1  0  0  0  0
M  END
> <ChemID>
100329

> <CAS>
314-40-9

> <Original_SMILES>
CC1NC(=O)N(C(C)CC)C(=O)C=1Br

> <preferred_name>
Bromacil

> <dsstox_substance_id>
DTXSID4022020

> <dsstox_compound_id>
DTXCID802020

> <qc_level>
DSSTox_High

> <Canonical_QSARr>
CC1=NC(=O)N(C(C)CC)C(=O)C1Br

> <InChI_Code_QSARr>
InChI=1S/C9H13BrN2O2/c1-4-5(2)12-8(13)7(10)6(3)11-9(12)14/h5,7H,4H2,1-3H3

> <InChI Key_QSARr>
OSOBMCTWSONQHC-UHFFFAOYSA-N

> <Salt_Solvent>


> <Salt_Solvent_ID>
0

> <MPID>
98260

> <LogBCF>
0.51

> <Tr_1_Tst_0>
1

$$$$
100330
  Mrv171c012241911322D          

 16 16  0  0  0  0            999 V2000
    4.1526   -2.7082    0.0000 C   0  0  0  0  0  0  0  0  0  0  0  0
    3.4381   -2.2957    0.0000 C   0  0  0  0  0  0  0  0  0  0  0  0
    3.4381   -1.4707    0.0000 C   0  0  0  0  0  0  0  0  0  0  0  0
    2.7236   -1.0582    0.0000 C   0  0  0  0  0  0  0  0  0  0  0  0
    2.7236   -0.2332    0.0000 O   0  0  0  0  0  0  0  0  0  0  0  0
    2.0092    0.1793    0.0000 C   0  0  0  0  0  0  0  0  0  0  0  0
    2.0092    1.0043    0.0000 N   0  0  0  0  0  0  0  0  0  0  0  0
    1.2947    1.4168    0.0000 C   0  0  0  0  0  0  0  0  0  0  0  0
    1.2947   -0.2332    0.0000 O   0  0  0  0  0  0  0  0  0  0  0  0
    2.0092   -1.4707    0.0000 C   0  0  0  0  0  0  0  0  0  0  0  0
    2.0092   -2.2957    0.0000 C   0  0  0  0  0  0  0  0  0  0  0  0
    1.2947   -2.7082    0.0000 C   0  0  0  0  0  0  0  0  0  0  0  0
    2.7236   -2.7082    0.0000 C   0  0  0  0  0  0  0  0  0  0  0  0
    2.7236   -3.5332    0.0000 N   0  0  0  0  0  0  0  0  0  0  0  0
    3.4381   -3.9457    0.0000 C   0  0  0  0  0  0  0  0  0  0  0  0
    2.0092   -3.9457    0.0000 C   0  0  0  0  0  0  0  0  0  0  0  0
  1  2  1  0  0  0  0
  3  2  1  0  0  0  0
  4  3  2  0  0  0  0
  4  5  1  0  0  0  0
  5  6  1  0  0  0  0
  6  7  1  0  0  0  0
  7  8  1  0  0  0  0
  6  9  2  0  0  0  0
 10  4  1  0  0  0  0
 11 10  2  0  0  0  0
 11 12  1  0  0  0  0
 13 11  1  0  0  0  0
  2 13  2  0  0  0  0
 13 14  1  0  0  0  0
 14 15  1  0  0  0  0
 14 16  1  0  0  0  0
M  END
> <ChemID>
100330

> <CAS>
315-18-4

> <Original_SMILES>
CN(C)c1c(C)cc(cc1C)OC(=O)NC

> <preferred_name>
Mexacarbate

> <dsstox_substance_id>
DTXSID7020893

> <dsstox_compound_id>
DTXCID50893

> <qc_level>
DSSTox_Low

> <Canonical_QSARr>
CC1C=C(C=C(C)C=1N(C)C)OC(=O)NC

> <InChI_Code_QSARr>
InChI=1S/C12H18N2O2/c1-8-6-10(16-12(15)13-3)7-9(2)11(8)14(4)5/h6-7H,1-5H3,(H,13,15)

> <InChI Key_QSARr>
YNEVBPNZHBAYOA-UHFFFAOYSA-N

> <Salt_Solvent>


> <Salt_Solvent_ID>
0

> <MPID>
98261

> <LogBCF>
1.42

> <Tr_1_Tst_0>
0

$$$$
100334
  Mrv171c012241911322D          

 12 12  0  0  0  0            999 V2000
    2.8510   -0.3495    0.0000 C   0  0  0  0  0  0  0  0  0  0  0  0
    2.1365    0.0630    0.0000 C   0  0  0  0  0  0  0  0  0  0  0  0
    2.1365    0.8880    0.0000 Cl  0  0  0  0  0  0  0  0  0  0  0  0
    1.4220   -0.3495    0.0000 C   0  0  0  0  0  0  0  0  0  0  0  0
    1.4220   -1.1745    0.0000 C   0  0  0  0  0  0  0  0  0  0  0  0
    2.1365   -1.5870    0.0000 C   0  0  0  0  0  0  0  0  0  0  0  0
    2.1365   -2.4120    0.0000 C   0  0  0  0  0  0  0  0  0  0  0  0
    2.1365   -3.2370    0.0000 F   0  0  0  0  0  0  0  0  0  0  0  0
    1.3115   -2.4120    0.0000 F   0  0  0  0  0  0  0  0  0  0  0  0
    2.9615   -2.4120    0.0000 F   0  0  0  0  0  0  0  0  0  0  0  0
    2.8510   -1.1745    0.0000 C   0  0  0  0  0  0  0  0  0  0  0  0
    3.5654   -1.5870    0.0000 Cl  0  0  0  0  0  0  0  0  0  0  0  0
  2  1  1  0  0  0  0
  2  3  1  0  0  0  0
  4  2  2  0  0  0  0
  5  4  1  0  0  0  0
  6  5  2  0  0  0  0
  6  7  1  0  0  0  0
  7  8  1  0  0  0  0
  7  9  1  0  0  0  0
  7 10  1  0  0  0  0
 11  6  1  0  0  0  0
  1 11  2  0  0  0  0
 11 12  1  0  0  0  0
M  END
> <ChemID>
100334

> <CAS>
320-60-5

> <Original_SMILES>
FC(F)(F)c1ccc(Cl)cc1Cl

> <preferred_name>
2,4-Dichlorobenzotrifluoride

> <dsstox_substance_id>
DTXSID0047959

> <dsstox_compound_id>
DTXCID0027935

> <qc_level>
DSSTox_Low

> <Canonical_QSARr>
FC(F)(F)C1=CC=C(Cl)C=C1Cl

> <InChI_Code_QSARr>
InChI=1S/C7H3Cl2F3/c8-4-1-2-5(6(9)3-4)7(10,11)12/h1-3H

> <InChI Key_QSARr>
KALSHRGEFLVFHE-UHFFFAOYSA-N

> <Salt_Solvent>


> <Salt_Solvent_ID>
0

> <MPID>
98265

> <LogBCF>
3.37

> <Tr_1_Tst_0>
1

$$$$
100335
  Mrv171c012241911322D          

 12 12  0  0  0  0            999 V2000
    2.0755   -1.5482    0.0000 C   0  0  0  0  0  0  0  0  0  0  0  0
    2.7900   -1.1357    0.0000 Cl  0  0  0  0  0  0  0  0  0  0  0  0
    1.3611   -1.1357    0.0000 C   0  0  0  0  0  0  0  0  0  0  0  0
    1.3611   -0.3107    0.0000 Cl  0  0  0  0  0  0  0  0  0  0  0  0
    0.6466   -1.5482    0.0000 C   0  0  0  0  0  0  0  0  0  0  0  0
    0.6466   -2.3732    0.0000 C   0  0  0  0  0  0  0  0  0  0  0  0
   -0.0679   -2.7857    0.0000 C   0  0  0  0  0  0  0  0  0  0  0  0
   -0.7824   -3.1982    0.0000 F   0  0  0  0  0  0  0  0  0  0  0  0
   -0.4804   -2.0712    0.0000 F   0  0  0  0  0  0  0  0  0  0  0  0
    0.3446   -3.5002    0.0000 F   0  0  0  0  0  0  0  0  0  0  0  0
    1.3611   -2.7857    0.0000 C   0  0  0  0  0  0  0  0  0  0  0  0
    2.0755   -2.3732    0.0000 C   0  0  0  0  0  0  0  0  0  0  0  0
  1  2  1  0  0  0  0
  3  1  1  0  0  0  0
  3  4  1  0  0  0  0
  5  3  2  0  0  0  0
  6  5  1  0  0  0  0
  6  7  1  0  0  0  0
  7  8  1  0  0  0  0
  7  9  1  0  0  0  0
  7 10  1  0  0  0  0
 11  6  2  0  0  0  0
 12 11  1  0  0  0  0
  1 12  2  0  0  0  0
M  END
> <ChemID>
100335

> <CAS>
328-84-7

> <Original_SMILES>
FC(F)(F)c1cc(Cl)c(Cl)cc1

> <preferred_name>
1,2-Dichloro-4-(trifluoromethyl)benzene

> <dsstox_substance_id>
DTXSID5027142

> <dsstox_compound_id>
DTXCID907142

> <qc_level>
DSSTox_Low

> <Canonical_QSARr>
FC(F)(F)C1C=C(Cl)C(Cl)=CC=1

> <InChI_Code_QSARr>
InChI=1S/C7H3Cl2F3/c8-5-2-1-4(3-6(5)9)7(10,11)12/h1-3H

> <InChI Key_QSARr>
XILPLWOGHPSJBK-UHFFFAOYSA-N

> <Salt_Solvent>


> <Salt_Solvent_ID>
0

> <MPID>
98266

> <LogBCF>
3.18

> <Tr_1_Tst_0>
1

$$$$
100336
  Mrv171c012241911322D          

 14 14  0  0  0  0            999 V2000
    3.7744   -2.5334    0.0000 Cl  0  0  0  0  0  0  0  0  0  0  0  0
    3.0599   -2.1209    0.0000 C   0  0  0  0  0  0  0  0  0  0  0  0
    3.0599   -1.2959    0.0000 C   0  0  0  0  0  0  0  0  0  0  0  0
    2.3454   -0.8834    0.0000 C   0  0  0  0  0  0  0  0  0  0  0  0
    2.3454   -0.0584    0.0000 N   0  0  0  0  0  0  0  0  0  0  0  0
    1.6310    0.3541    0.0000 C   0  0  0  0  0  0  0  0  0  0  0  0
    1.6310    1.1791    0.0000 N   0  0  0  0  0  0  0  0  0  0  0  0
    0.9165    1.5916    0.0000 C   0  0  0  0  0  0  0  0  0  0  0  0
    2.3454    1.5916    0.0000 C   0  0  0  0  0  0  0  0  0  0  0  0
    0.9165   -0.0584    0.0000 O   0  0  0  0  0  0  0  0  0  0  0  0
    1.6310   -1.2959    0.0000 C   0  0  0  0  0  0  0  0  0  0  0  0
    1.6310   -2.1209    0.0000 C   0  0  0  0  0  0  0  0  0  0  0  0
    2.3454   -2.5334    0.0000 C   0  0  0  0  0  0  0  0  0  0  0  0
    2.3454   -3.3584    0.0000 Cl  0  0  0  0  0  0  0  0  0  0  0  0
  1  2  1  0  0  0  0
  3  2  1  0  0  0  0
  4  3  2  0  0  0  0
  4  5  1  0  0  0  0
  5  6  1  0  0  0  0
  6  7  1  0  0  0  0
  7  8  1  0  0  0  0
  7  9  1  0  0  0  0
  6 10  2  0  0  0  0
 11  4  1  0  0  0  0
 12 11  2  0  0  0  0
 13 12  1  0  0  0  0
  2 13  2  0  0  0  0
 13 14  1  0  0  0  0
M  END
> <ChemID>
100336

> <CAS>
330-54-1

> <Original_SMILES>
CN(C)C(=O)Nc1cc(Cl)c(Cl)cc1

> <preferred_name>
Diuron

> <dsstox_substance_id>
DTXSID0020446

> <dsstox_compound_id>
DTXCID00446

> <qc_level>
DSSTox_Low

> <Canonical_QSARr>
CN(C)C(=O)NC1=CC(Cl)=C(Cl)C=C1

> <InChI_Code_QSARr>
InChI=1S/C9H10Cl2N2O/c1-13(2)9(14)12-6-3-4-7(10)8(11)5-6/h3-5H,1-2H3,(H,12,14)

> <InChI Key_QSARr>
XMTQQYYKAHVGBJ-UHFFFAOYSA-N

> <Salt_Solvent>


> <Salt_Solvent_ID>
0

> <MPID>
98267

> <LogBCF>
1.15

> <Tr_1_Tst_0>
1

$$$$
100337
  Mrv171c012241911322D          

 15 15  0  0  0  0            999 V2000
    1.5026   -1.2918    0.0000 C   0  0  0  0  0  0  0  0  0  0  0  0
    1.5026   -0.4668    0.0000 O   0  0  0  0  0  0  0  0  0  0  0  0
    0.7881   -1.7043    0.0000 N   0  0  0  0  0  0  0  0  0  0  0  0
    0.7881   -2.5293    0.0000 C   0  0  0  0  0  0  0  0  0  0  0  0
    0.0737   -1.2918    0.0000 O   0  0  0  0  0  0  0  0  0  0  0  0
   -0.6408   -1.7043    0.0000 C   0  0  0  0  0  0  0  0  0  0  0  0
    2.2171   -1.7043    0.0000 N   0  0  0  0  0  0  0  0  0  0  0  0
    2.9315   -1.2918    0.0000 C   0  0  0  0  0  0  0  0  0  0  0  0
    3.6460   -1.7043    0.0000 C   0  0  0  0  0  0  0  0  0  0  0  0
    4.3605   -1.2918    0.0000 C   0  0  0  0  0  0  0  0  0  0  0  0
    4.3605   -0.4668    0.0000 C   0  0  0  0  0  0  0  0  0  0  0  0
    5.0750   -0.0543    0.0000 Cl  0  0  0  0  0  0  0  0  0  0  0  0
    3.6460   -0.0543    0.0000 C   0  0  0  0  0  0  0  0  0  0  0  0
    3.6460    0.7707    0.0000 Cl  0  0  0  0  0  0  0  0  0  0  0  0
    2.9315   -0.4668    0.0000 C   0  0  0  0  0  0  0  0  0  0  0  0
  1  2  2  0  0  0  0
  1  3  1  0  0  0  0
  3  4  1  0  0  0  0
  3  5  1  0  0  0  0
  5  6  1  0  0  0  0
  1  7  1  0  0  0  0
  7  8  1  0  0  0  0
  9  8  2  0  0  0  0
 10  9  1  0  0  0  0
 11 10  2  0  0  0  0
 11 12  1  0  0  0  0
 13 11  1  0  0  0  0
 13 14  1  0  0  0  0
 15 13  2  0  0  0  0
  8 15  1  0  0  0  0
M  END
> <ChemID>
100337

> <CAS>
330-55-2

> <Original_SMILES>
CON(C)C(=O)Nc1cc(Cl)c(Cl)cc1

> <preferred_name>
Linuron

> <dsstox_substance_id>
DTXSID2024163

> <dsstox_compound_id>
DTXCID604163

> <qc_level>
DSSTox_Low

> <Canonical_QSARr>
CON(C)C(=O)NC1C=C(Cl)C(Cl)=CC=1

> <InChI_Code_QSARr>
InChI=1S/C9H10Cl2N2O2/c1-13(15-2)9(14)12-6-3-4-7(10)8(11)5-6/h3-5H,1-2H3,(H,12,14)

> <InChI Key_QSARr>
XKJMBINCVNINCA-UHFFFAOYSA-N

> <Salt_Solvent>


> <Salt_Solvent_ID>
0

> <MPID>
98268

> <LogBCF>
1.25

> <Tr_1_Tst_0>
0

$$$$
100338
  Mrv171c012241911322D          

 19 19  0  0  0  0            999 V2000
    4.2721   -2.8811    0.0000 S   0  0  0  0  0  0  0  0  0  0  0  0
    3.8596   -2.1666    0.0000 P   0  0  0  0  0  0  0  0  0  0  0  0
    4.5741   -1.7541    0.0000 O   0  0  0  0  0  0  0  0  0  0  0  0
    5.2885   -2.1666    0.0000 C   0  0  0  0  0  0  0  0  0  0  0  0
    6.0030   -1.7541    0.0000 C   0  0  0  0  0  0  0  0  0  0  0  0
    3.4471   -1.4522    0.0000 O   0  0  0  0  0  0  0  0  0  0  0  0
    3.8596   -0.7377    0.0000 C   0  0  0  0  0  0  0  0  0  0  0  0
    4.6846   -0.7377    0.0000 C   0  0  0  0  0  0  0  0  0  0  0  0
    3.1451   -2.5791    0.0000 O   0  0  0  0  0  0  0  0  0  0  0  0
    2.4307   -2.1666    0.0000 C   0  0  0  0  0  0  0  0  0  0  0  0
    2.4307   -1.3416    0.0000 C   0  0  0  0  0  0  0  0  0  0  0  0
    1.7162   -0.9291    0.0000 C   0  0  0  0  0  0  0  0  0  0  0  0
    1.7162   -0.1041    0.0000 C   0  0  0  0  0  0  0  0  0  0  0  0
    1.0017   -1.3416    0.0000 N   0  0  0  0  0  0  0  0  0  0  0  0
    1.0017   -2.1666    0.0000 C   0  0  0  0  0  0  0  0  0  0  0  0
    0.2872   -2.5791    0.0000 C   0  0  0  0  0  0  0  0  0  0  0  0
    0.2872   -3.4041    0.0000 C   0  0  0  0  0  0  0  0  0  0  0  0
   -0.4272   -2.1666    0.0000 C   0  0  0  0  0  0  0  0  0  0  0  0
    1.7162   -2.5791    0.0000 N   0  0  0  0  0  0  0  0  0  0  0  0
  1  2  2  0  0  0  0
  2  3  1  0  0  0  0
  3  4  1  0  0  0  0
  4  5  1  0  0  0  0
  2  6  1  0  0  0  0
  6  7  1  0  0  0  0
  7  8  1  0  0  0  0
  2  9  1  0  0  0  0
  9 10  1  0  0  0  0
 11 10  1  0  0  0  0
 12 11  2  0  0  0  0
 12 13  1  0  0  0  0
 14 12  1  0  0  0  0
 15 14  2  0  0  0  0
 15 16  1  0  0  0  0
 16 17  1  0  0  0  0
 16 18  1  0  0  0  0
 19 15  1  0  0  0  0
 10 19  2  0  0  0  0
M  END
> <ChemID>
100338

> <CAS>
333-41-5

> <Original_SMILES>
Cc1cc([n]c([n]1)C(C)C)OP(=S)(OCC)OCC

> <preferred_name>
Diazinon

> <dsstox_substance_id>
DTXSID9020407

> <dsstox_compound_id>
DTXCID50407

> <qc_level>
DSSTox_Low

> <Canonical_QSARr>
CC1=CC(=NC(=N1)C(C)C)OP(=S)(OCC)OCC

> <InChI_Code_QSARr>
InChI=1S/C12H21N2O3PS/c1-6-15-18(19,16-7-2)17-11-8-10(5)13-12(14-11)9(3)4/h8-9H,6-7H2,1-5H3

> <InChI Key_QSARr>
FHIVAFMUCKRCQO-UHFFFAOYSA-N

> <Salt_Solvent>


> <Salt_Solvent_ID>
0

> <MPID>
98269

> <LogBCF>
1.85

> <Tr_1_Tst_0>
1

$$$$
100339
  Mrv171c012241911322D          

  6  5  0  0  0  0            999 V2000
    1.4433   -0.1192    0.0000 C   0  0  0  0  0  0  0  0  0  0  0  0
    1.0308    0.5953    0.0000 N   0  0  0  0  0  0  0  0  0  0  0  0
    1.8558   -0.8337    0.0000 N   0  0  0  0  0  0  0  0  0  0  0  0
    1.4433   -1.5481    0.0000 C   0  0  0  0  0  0  0  0  0  0  0  0
    1.8558   -2.2626    0.0000 N   0  0  0  0  0  0  0  0  0  0  0  0
    0.6183   -1.5481    0.0000 N   0  0  0  0  0  0  0  0  0  0  0  0
  1  2  3  0  0  0  0
  1  3  1  0  0  0  0
  3  4  1  0  0  0  0
  4  5  1  0  0  0  0
  4  6  2  0  0  0  0
M  END
> <ChemID>
100339

> <CAS>
461-58-5

> <Original_SMILES>
NC(=N)NC#N

> <preferred_name>
Cyanoguanidine

> <dsstox_substance_id>
DTXSID1020354

> <dsstox_compound_id>
DTXCID50354

> <qc_level>
DSSTox_High

> <Canonical_QSARr>
NC(=N)NC#N

> <InChI_Code_QSARr>
InChI=1S/C2H4N4/c3-1-6-2(4)5/h(H4,4,5,6)

> <InChI Key_QSARr>
QGBSISYHAICWAH-UHFFFAOYSA-N

> <Salt_Solvent>


> <Salt_Solvent_ID>
0

> <MPID>
98270

> <LogBCF>
0.49

> <Tr_1_Tst_0>
1

$$$$
100340
  Mrv171c012241911322D          

  7  7  0  0  0  0            999 V2000
    1.6297   -1.3480    0.0000 N   0  0  0  0  0  0  0  0  0  0  0  0
    1.6297   -0.5230    0.0000 C   0  0  0  0  0  0  0  0  0  0  0  0
    0.9153   -0.1105    0.0000 C   0  0  0  0  0  0  0  0  0  0  0  0
    0.9153    0.7145    0.0000 N   0  0  0  0  0  0  0  0  0  0  0  0
    0.2008   -0.5230    0.0000 C   0  0  0  0  0  0  0  0  0  0  0  0
    0.2008   -1.3480    0.0000 C   0  0  0  0  0  0  0  0  0  0  0  0
    0.9153   -1.7605    0.0000 C   0  0  0  0  0  0  0  0  0  0  0  0
  2  1  1  0  0  0  0
  3  2  2  0  0  0  0
  3  4  1  0  0  0  0
  5  3  1  0  0  0  0
  6  5  2  0  0  0  0
  7  6  1  0  0  0  0
  1  7  2  0  0  0  0
M  END
> <ChemID>
100340

> <CAS>
462-08-8

> <Original_SMILES>
Nc1c[n]ccc1

> <preferred_name>
3-Pyridinamine

> <dsstox_substance_id>
DTXSID9047461

> <dsstox_compound_id>
DTXCID7027461

> <qc_level>
DSSTox_Low

> <Canonical_QSARr>
NC1=CN=CC=C1

> <InChI_Code_QSARr>
InChI=1S/C5H6N2/c6-5-2-1-3-7-4-5/h1-4H,6H2

> <InChI Key_QSARr>
CUYKNJBYIJFRCU-UHFFFAOYSA-N

> <Salt_Solvent>


> <Salt_Solvent_ID>
0

> <MPID>
98271

> <LogBCF>
0.32

> <Tr_1_Tst_0>
1

$$$$
100342
  Mrv171c012241911322D          

 22 24  0  0  0  0            999 V2000
    1.8870   -2.8920    0.0000 C   0  0  0  0  0  0  0  0  0  0  0  0
    2.2995   -3.6065    0.0000 C   0  0  0  0  0  0  0  0  0  0  0  0
    2.7120   -2.8920    0.0000 C   0  0  0  0  0  0  0  0  0  0  0  0
    3.1245   -2.1775    0.0000 C   0  0  0  0  0  0  0  0  0  0  0  0
    3.9495   -2.1775    0.0000 C   0  0  0  0  0  0  0  0  0  0  0  0
    4.3620   -2.8920    0.0000 C   0  0  0  0  0  0  0  0  0  0  0  0
    3.9495   -3.6065    0.0000 C   0  0  0  0  0  0  0  0  0  0  0  0
    3.1245   -3.6065    0.0000 C   0  0  0  0  0  0  0  0  0  0  0  0
    5.1870   -2.8920    0.0000 C   0  0  0  0  0  0  0  0  0  0  0  0
    5.5995   -3.6065    0.0000 C   0  0  0  0  0  0  0  0  0  0  0  0
    5.5995   -2.1775    0.0000 C   0  0  0  0  0  0  0  0  0  0  0  0
    2.7120   -1.4631    0.0000 C   0  0  0  0  0  0  0  0  0  0  0  0
    1.8870   -1.4631    0.0000 C   0  0  0  0  0  0  0  0  0  0  0  0
    1.4745   -2.1775    0.0000 C   0  0  0  0  0  0  0  0  0  0  0  0
    0.6495   -2.1775    0.0000 C   0  0  0  0  0  0  0  0  0  0  0  0
    0.7928   -1.3651    0.0000 C   0  0  0  0  0  0  0  0  0  0  0  0
    0.1608   -0.8348    0.0000 O   0  0  0  0  0  0  0  0  0  0  0  0
    1.5680   -1.0829    0.0000 O   0  0  0  0  0  0  0  0  0  0  0  0
   -0.1257   -1.8954    0.0000 C   0  0  0  0  0  0  0  0  0  0  0  0
    0.2370   -2.8920    0.0000 C   0  0  0  0  0  0  0  0  0  0  0  0
    0.6495   -3.6065    0.0000 C   0  0  0  0  0  0  0  0  0  0  0  0
    1.4745   -3.6065    0.0000 C   0  0  0  0  0  0  0  0  0  0  0  0
  1  2  1  0  0  0  0
  3  1  1  0  0  0  0
  3  4  1  0  0  0  0
  4  5  2  0  0  0  0
  5  6  1  0  0  0  0
  6  7  1  0  0  0  0
  7  8  1  0  0  0  0
  8  3  1  0  0  0  0
  6  9  2  0  0  0  0
  9 10  1  0  0  0  0
  9 11  1  0  0  0  0
 12  4  1  0  0  0  0
 13 12  1  0  0  0  0
 14 13  1  0  0  0  0
 14  1  1  0  0  0  0
 15 14  1  0  0  0  0
 15 16  1  0  0  0  0
 16 17  1  0  0  0  0
 16 18  2  0  0  0  0
 15 19  1  0  0  0  0
 20 15  1  0  0  0  0
 21 20  1  0  0  0  0
 22 21  1  0  0  0  0
  1 22  1  0  0  0  0
M  END
> <ChemID>
100342

> <CAS>
471-77-2

> <Original_SMILES>
CC(C)=C1CC[C@H]2C(CC[C@H]3[C@@](C)(CCC[C@@]32C)C(O)=O)=C1

> <preferred_name>
Neoabietic acid

> <dsstox_substance_id>
DTXSID8022038

> <dsstox_compound_id>
DTXCID302038

> <qc_level>
DSSTox_Low

> <Canonical_QSARr>
CC(C)=C1CCC2C(CCC3C(C)(CCCC32C)C(O)=O)=C1

> <InChI_Code_QSARr>
InChI=1S/C20H30O2/c1-13(2)14-6-8-16-15(12-14)7-9-17-19(16,3)10-5-11-20(17,4)18(21)22/h12,16-17H,5-11H2,1-4H3,(H,21,22)

> <InChI Key_QSARr>
KGMSWPSAVZAMKR-UHFFFAOYSA-N

> <Salt_Solvent>


> <Salt_Solvent_ID>
0

> <MPID>
98272

> <LogBCF>
2.17

> <Tr_1_Tst_0>
0

$$$$
100343
  Mrv171c012241911322D          

 12 13  0  0  0  0            999 V2000
    1.4238   -1.2289    0.0000 C   0  0  0  0  0  0  0  0  0  0  0  0
    0.7093   -0.8164    0.0000 C   0  0  0  0  0  0  0  0  0  0  0  0
    0.7093    0.0086    0.0000 N   0  0  0  0  0  0  0  0  0  0  0  0
   -0.0051   -1.2289    0.0000 C   0  0  0  0  0  0  0  0  0  0  0  0
   -0.0051   -2.0539    0.0000 C   0  0  0  0  0  0  0  0  0  0  0  0
    0.7093   -2.4664    0.0000 C   0  0  0  0  0  0  0  0  0  0  0  0
    1.4238   -2.0539    0.0000 C   0  0  0  0  0  0  0  0  0  0  0  0
    2.1383   -2.4664    0.0000 C   0  0  0  0  0  0  0  0  0  0  0  0
    2.8527   -2.0539    0.0000 C   0  0  0  0  0  0  0  0  0  0  0  0
    2.8527   -1.2289    0.0000 C   0  0  0  0  0  0  0  0  0  0  0  0
    2.1383   -0.8164    0.0000 C   0  0  0  0  0  0  0  0  0  0  0  0
    2.1383    0.0086    0.0000 N   0  0  0  0  0  0  0  0  0  0  0  0
  2  1  1  0  0  0  0
  2  3  1  0  0  0  0
  4  2  2  0  0  0  0
  5  4  1  0  0  0  0
  6  5  2  0  0  0  0
  7  6  1  0  0  0  0
  7  1  2  0  0  0  0
  8  7  1  0  0  0  0
  9  8  2  0  0  0  0
 10  9  1  0  0  0  0
 11 10  2  0  0  0  0
  1 11  1  0  0  0  0
 11 12  1  0  0  0  0
M  END
> <ChemID>
100343

> <CAS>
479-27-6

> <Original_SMILES>
Nc1cccc2cccc(N)c12

> <preferred_name>
1,8-Naphthalenediamine

> <dsstox_substance_id>
DTXSID6044432

> <dsstox_compound_id>
DTXCID4024432

> <qc_level>
DSSTox_Low

> <Canonical_QSARr>
NC1=CC=CC2C=CC=C(N)C1=2

> <InChI_Code_QSARr>
InChI=1S/C10H10N2/c11-8-5-1-3-7-4-2-6-9(12)10(7)8/h1-6H,11-12H2

> <InChI Key_QSARr>
YFOOEYJGMMJJLS-UHFFFAOYSA-N

> <Salt_Solvent>


> <Salt_Solvent_ID>
0

> <MPID>
98273

> <LogBCF>
0.8

> <Tr_1_Tst_0>
1

$$$$
100344
  Mrv171c012241911322D          

 10 11  0  0  0  0            999 V2000
    1.4297   -0.4125    0.0000 C   0  0  0  0  0  0  0  0  0  0  0  0
    0.7153    0.0000    0.0000 C   0  0  0  0  0  0  0  0  0  0  0  0
    0.0008   -0.4125    0.0000 C   0  0  0  0  0  0  0  0  0  0  0  0
    0.0008   -1.2375    0.0000 C   0  0  0  0  0  0  0  0  0  0  0  0
    0.7153   -1.6500    0.0000 C   0  0  0  0  0  0  0  0  0  0  0  0
    1.4297   -1.2375    0.0000 C   0  0  0  0  0  0  0  0  0  0  0  0
    2.1442   -1.6500    0.0000 C   0  0  0  0  0  0  0  0  0  0  0  0
    2.8587   -1.2375    0.0000 C   0  0  0  0  0  0  0  0  0  0  0  0
    2.8587   -0.4125    0.0000 C   0  0  0  0  0  0  0  0  0  0  0  0
    2.1442    0.0000    0.0000 C   0  0  0  0  0  0  0  0  0  0  0  0
  2  1  1  0  0  0  0
  3  2  1  0  0  0  0
  4  3  1  0  0  0  0
  5  4  1  0  0  0  0
  6  5  1  0  0  0  0
  6  1  1  0  0  0  0
  7  6  1  0  0  0  0
  8  7  1  0  0  0  0
  9  8  1  0  0  0  0
 10  9  1  0  0  0  0
  1 10  1  0  0  0  0
M  END
> <ChemID>
100344

> <CAS>
91-17-8

> <Original_SMILES>
C1CCCC2CCCCC21

> <preferred_name>
Decalin

> <dsstox_substance_id>
DTXSID1024912

> <dsstox_compound_id>
DTXCID304912

> <qc_level>
DSSTox_Low

> <Canonical_QSARr>
C1CCCC2CCCCC21

> <InChI_Code_QSARr>
InChI=1S/C10H18/c1-2-6-10-8-4-3-7-9(10)5-1/h9-10H,1-8H2

> <InChI Key_QSARr>
NNBZCPXTIHJBJL-UHFFFAOYSA-N

> <Salt_Solvent>


> <Salt_Solvent_ID>
0

> <MPID>
98274|98275

> <LogBCF>
3.245

> <Tr_1_Tst_0>
1

$$$$
100346
  Mrv171c012241911322D          

 17 17  0  0  0  0            999 V2000
    2.3624   -3.1519    0.0000 N   0  3  0  0  0  0  0  0  0  0  0  0
    1.6480   -3.5644    0.0000 O   0  0  0  0  0  0  0  0  0  0  0  0
    3.0769   -3.5644    0.0000 O   0  5  0  0  0  0  0  0  0  0  0  0
    2.3624   -2.3269    0.0000 C   0  0  0  0  0  0  0  0  0  0  0  0
    3.0769   -1.9144    0.0000 C   0  0  0  0  0  0  0  0  0  0  0  0
    3.0769   -1.0894    0.0000 C   0  0  0  0  0  0  0  0  0  0  0  0
    2.3624   -0.6769    0.0000 C   0  0  0  0  0  0  0  0  0  0  0  0
    2.3624    0.1481    0.0000 O   0  0  0  0  0  0  0  0  0  0  0  0
    3.0769    0.5606    0.0000 P   0  0  0  0  0  0  0  0  0  0  0  0
    3.7914    0.9731    0.0000 O   0  0  0  0  0  0  0  0  0  0  0  0
    3.7914    1.7981    0.0000 C   0  0  0  0  0  0  0  0  0  0  0  0
    3.4894   -0.1538    0.0000 O   0  0  0  0  0  0  0  0  0  0  0  0
    4.3144   -0.1538    0.0000 C   0  0  0  0  0  0  0  0  0  0  0  0
    2.6644    1.2751    0.0000 S   0  0  0  0  0  0  0  0  0  0  0  0
    1.6480   -1.0894    0.0000 C   0  0  0  0  0  0  0  0  0  0  0  0
    1.6480   -1.9144    0.0000 C   0  0  0  0  0  0  0  0  0  0  0  0
    0.9335   -2.3269    0.0000 Cl  0  0  0  0  0  0  0  0  0  0  0  0
  1  2  2  0  0  0  0
  1  3  1  0  0  0  0
  1  4  1  0  0  0  0
  5  4  2  0  0  0  0
  6  5  1  0  0  0  0
  7  6  2  0  0  0  0
  7  8  1  0  0  0  0
  8  9  1  0  0  0  0
  9 10  1  0  0  0  0
 10 11  1  0  0  0  0
  9 12  1  0  0  0  0
 12 13  1  0  0  0  0
  9 14  2  0  0  0  0
 15  7  1  0  0  0  0
 16 15  2  0  0  0  0
  4 16  1  0  0  0  0
 16 17  1  0  0  0  0
M  CHG  2   1   1   3  -1
M  END
> <ChemID>
100346

> <CAS>
500-28-7

> <Original_SMILES>
COP(=S)(Oc1cc(Cl)c(cc1)[N+]([O-])=O)OC

> <preferred_name>
Chlorthion

> <dsstox_substance_id>
DTXSID9041784

> <dsstox_compound_id>
DTXCID7021784

> <qc_level>
DSSTox_Low

> <Canonical_QSARr>
COP(=S)(OC1C=C(Cl)C(=CC=1)[N+]([O-])=O)OC

> <InChI_Code_QSARr>
InChI=1S/C8H9ClNO5PS/c1-13-16(17,14-2)15-6-3-4-8(10(11)12)7(9)5-6/h3-5H,1-2H3

> <InChI Key_QSARr>
NZNRRXXETLSZRO-UHFFFAOYSA-N

> <Salt_Solvent>


> <Salt_Solvent_ID>
0

> <MPID>
98276

> <LogBCF>
1.55

> <Tr_1_Tst_0>
1

$$$$
100347
  Mrv171c012241911322D          

  8  8  0  0  0  0            999 V2000
    2.6850   -1.9683    0.0000 C   0  0  0  0  0  0  0  0  0  0  0  0
    1.9705   -1.5558    0.0000 C   0  0  0  0  0  0  0  0  0  0  0  0
    1.9705   -0.7308    0.0000 N   0  0  0  0  0  0  0  0  0  0  0  0
    1.2560   -0.3183    0.0000 C   0  0  0  0  0  0  0  0  0  0  0  0
    1.2560    0.5067    0.0000 C   0  0  0  0  0  0  0  0  0  0  0  0
    0.5416   -0.7308    0.0000 C   0  0  0  0  0  0  0  0  0  0  0  0
    0.5416   -1.5558    0.0000 C   0  0  0  0  0  0  0  0  0  0  0  0
    1.2560   -1.9683    0.0000 C   0  0  0  0  0  0  0  0  0  0  0  0
  1  2  1  0  0  0  0
  3  2  1  0  0  0  0
  4  3  1  0  0  0  0
  4  5  1  0  0  0  0
  6  4  1  0  0  0  0
  7  6  1  0  0  0  0
  8  7  1  0  0  0  0
  2  8  1  0  0  0  0
M  END
> <ChemID>
100347

> <CAS>
504-03-0

> <Original_SMILES>
C[C@@H]1CCC[C@H](C)N1

> <preferred_name>
cis-Nanophine

> <dsstox_substance_id>
DTXSID8048527

> <dsstox_compound_id>
DTXCID10197036

> <qc_level>
DSSTox_Low

> <Canonical_QSARr>
CC1CCCC(C)N1

> <InChI_Code_QSARr>
InChI=1S/C7H15N/c1-6-4-3-5-7(2)8-6/h6-8H,3-5H2,1-2H3

> <InChI Key_QSARr>
SDGKUVSVPIIUCF-UHFFFAOYSA-N

> <Salt_Solvent>


> <Salt_Solvent_ID>
0

> <MPID>
98277

> <LogBCF>
0.7

> <Tr_1_Tst_0>
0

$$$$
100348
  Mrv171c012241911322D          

  7  7  0  0  0  0            999 V2000
    1.0664   -0.1221    0.0000 C   0  0  0  0  0  0  0  0  0  0  0  0
    1.0664    0.7029    0.0000 N   0  0  0  0  0  0  0  0  0  0  0  0
    0.3520   -0.5346    0.0000 C   0  0  0  0  0  0  0  0  0  0  0  0
    0.3520   -1.3596    0.0000 C   0  0  0  0  0  0  0  0  0  0  0  0
    1.0664   -1.7721    0.0000 N   0  0  0  0  0  0  0  0  0  0  0  0
    1.7809   -1.3596    0.0000 C   0  0  0  0  0  0  0  0  0  0  0  0
    1.7809   -0.5346    0.0000 C   0  0  0  0  0  0  0  0  0  0  0  0
  1  2  1  0  0  0  0
  3  1  1  0  0  0  0
  4  3  2  0  0  0  0
  5  4  1  0  0  0  0
  6  5  2  0  0  0  0
  7  6  1  0  0  0  0
  1  7  2  0  0  0  0
M  END
> <ChemID>
100348

> <CAS>
504-24-5

> <Original_SMILES>
Nc1cc[n]cc1

> <preferred_name>
4-Aminopyridine

> <dsstox_substance_id>
DTXSID0023870

> <dsstox_compound_id>
DTXCID003870

> <qc_level>
DSSTox_Low

> <Canonical_QSARr>
NC1C=CN=CC=1

> <InChI_Code_QSARr>
InChI=1S/C5H6N2/c6-5-1-3-7-4-2-5/h1-4H,(H2,6,7)

> <InChI Key_QSARr>
NUKYPUAOHBNCPY-UHFFFAOYSA-N

> <Salt_Solvent>


> <Salt_Solvent_ID>
0

> <MPID>
98278

> <LogBCF>
0.66

> <Tr_1_Tst_0>
1

$$$$
100349
  Mrv171c012241911322D          

  7  7  0  0  0  0            999 V2000
    1.4153    0.7000    0.0000 N   0  0  0  0  0  0  0  0  0  0  0  0
    1.4153   -0.1250    0.0000 C   0  0  0  0  0  0  0  0  0  0  0  0
    0.7009   -0.5375    0.0000 N   0  0  0  0  0  0  0  0  0  0  0  0
    0.7009   -1.3625    0.0000 C   0  0  0  0  0  0  0  0  0  0  0  0
    1.4153   -1.7750    0.0000 C   0  0  0  0  0  0  0  0  0  0  0  0
    2.1298   -1.3625    0.0000 C   0  0  0  0  0  0  0  0  0  0  0  0
    2.1298   -0.5375    0.0000 C   0  0  0  0  0  0  0  0  0  0  0  0
  1  2  1  0  0  0  0
  3  2  1  0  0  0  0
  4  3  2  0  0  0  0
  5  4  1  0  0  0  0
  6  5  2  0  0  0  0
  7  6  1  0  0  0  0
  2  7  2  0  0  0  0
M  END
> <ChemID>
100349

> <CAS>
504-29-0

> <Original_SMILES>
Nc1cccc[n]1

> <preferred_name>
2-Aminopyridine

> <dsstox_substance_id>
DTXSID0024505

> <dsstox_compound_id>
DTXCID404505

> <qc_level>
DSSTox_Low

> <Canonical_QSARr>
NC1=CC=CC=N1

> <InChI_Code_QSARr>
InChI=1S/C5H6N2/c6-5-3-1-2-4-7-5/h1-4H,(H2,6,7)

> <InChI Key_QSARr>
ICSNLGPSRYBMBD-UHFFFAOYSA-N

> <Salt_Solvent>


> <Salt_Solvent_ID>
0

> <MPID>
98279

> <LogBCF>
1.06

> <Tr_1_Tst_0>
1

$$$$
100350
  Mrv171c012241911322D          

 21 22  0  0  0  0            999 V2000
    0.3563   -2.9393    0.0000 O   0  0  0  0  0  0  0  0  0  0  0  0
    1.1813   -2.9393    0.0000 C   0  0  0  0  0  0  0  0  0  0  0  0
    2.0063   -2.9393    0.0000 C   0  0  0  0  0  0  0  0  0  0  0  0
    2.4188   -3.6538    0.0000 O   0  0  0  0  0  0  0  0  0  0  0  0
    3.2438   -3.6538    0.0000 C   0  0  0  0  0  0  0  0  0  0  0  0
    3.6563   -4.3683    0.0000 C   0  0  0  0  0  0  0  0  0  0  0  0
    2.4188   -2.2249    0.0000 O   0  0  0  0  0  0  0  0  0  0  0  0
    1.1813   -2.1143    0.0000 C   0  0  0  0  0  0  0  0  0  0  0  0
    1.8958   -1.7018    0.0000 C   0  0  0  0  0  0  0  0  0  0  0  0
    1.8958   -0.8768    0.0000 C   0  0  0  0  0  0  0  0  0  0  0  0
    1.1813   -0.4643    0.0000 C   0  0  0  0  0  0  0  0  0  0  0  0
    1.1813    0.3607    0.0000 Cl  0  0  0  0  0  0  0  0  0  0  0  0
    0.4668   -0.8768    0.0000 C   0  0  0  0  0  0  0  0  0  0  0  0
    0.4668   -1.7018    0.0000 C   0  0  0  0  0  0  0  0  0  0  0  0
    1.1813   -3.7643    0.0000 C   0  0  0  0  0  0  0  0  0  0  0  0
    0.4668   -4.1768    0.0000 C   0  0  0  0  0  0  0  0  0  0  0  0
    0.4668   -5.0018    0.0000 C   0  0  0  0  0  0  0  0  0  0  0  0
    1.1813   -5.4143    0.0000 C   0  0  0  0  0  0  0  0  0  0  0  0
    1.1813   -6.2393    0.0000 Cl  0  0  0  0  0  0  0  0  0  0  0  0
    1.8958   -5.0018    0.0000 C   0  0  0  0  0  0  0  0  0  0  0  0
    1.8958   -4.1768    0.0000 C   0  0  0  0  0  0  0  0  0  0  0  0
  1  2  1  0  0  0  0
  2  3  1  0  0  0  0
  3  4  1  0  0  0  0
  4  5  1  0  0  0  0
  5  6  1  0  0  0  0
  3  7  2  0  0  0  0
  2  8  1  0  0  0  0
  9  8  1  0  0  0  0
 10  9  2  0  0  0  0
 11 10  1  0  0  0  0
 11 12  1  0  0  0  0
 13 11  2  0  0  0  0
 14 13  1  0  0  0  0
  8 14  2  0  0  0  0
  2 15  1  0  0  0  0
 16 15  1  0  0  0  0
 17 16  2  0  0  0  0
 18 17  1  0  0  0  0
 18 19  1  0  0  0  0
 20 18  2  0  0  0  0
 21 20  1  0  0  0  0
 15 21  2  0  0  0  0
M  END
> <ChemID>
100350

> <CAS>
510-15-6

> <Original_SMILES>
CCOC(=O)C(O)(c1ccc(Cl)cc1)c1ccc(Cl)cc1

> <preferred_name>
Chlorobenzilate

> <dsstox_substance_id>
DTXSID9020299

> <dsstox_compound_id>
DTXCID70299

> <qc_level>
DSSTox_Low

> <Canonical_QSARr>
CCOC(=O)C(O)(C1C=CC(Cl)=CC=1)C1C=CC(Cl)=CC=1

> <InChI_Code_QSARr>
InChI=1S/C16H14Cl2O3/c1-2-21-15(19)16(20,11-3-7-13(17)8-4-11)12-5-9-14(18)10-6-12/h3-10,20H,2H2,1H3

> <InChI Key_QSARr>
RAPBNVDSDCTNRC-UHFFFAOYSA-N

> <Salt_Solvent>


> <Salt_Solvent_ID>
0

> <MPID>
98280

> <LogBCF>
2.68

> <Tr_1_Tst_0>
1

$$$$
100351
  Mrv171c012241911322D          

  8  7  0  0  0  0            999 V2000
    1.8301   -0.5244    0.0000 O   0  0  0  0  0  0  0  0  0  0  0  0
    1.4176   -1.2389    0.0000 P   0  0  0  0  0  0  0  0  0  0  0  0
    0.7031   -0.8264    0.0000 O   0  0  0  0  0  0  0  0  0  0  0  0
   -0.0114   -1.2389    0.0000 C   0  0  0  0  0  0  0  0  0  0  0  0
    2.1320   -1.6514    0.0000 O   0  0  0  0  0  0  0  0  0  0  0  0
    2.8465   -1.2389    0.0000 C   0  0  0  0  0  0  0  0  0  0  0  0
    1.0051   -1.9534    0.0000 O   0  0  0  0  0  0  0  0  0  0  0  0
    0.1801   -1.9534    0.0000 C   0  0  0  0  0  0  0  0  0  0  0  0
  1  2  2  0  0  0  0
  2  3  1  0  0  0  0
  3  4  1  0  0  0  0
  2  5  1  0  0  0  0
  5  6  1  0  0  0  0
  2  7  1  0  0  0  0
  7  8  1  0  0  0  0
M  END
> <ChemID>
100351

> <CAS>
512-56-1

> <Original_SMILES>
COP(=O)(OC)OC

> <preferred_name>
Trimethyl phosphate

> <dsstox_substance_id>
DTXSID1021403

> <dsstox_compound_id>
DTXCID101403

> <qc_level>
DSSTox_Low

> <Canonical_QSARr>
COP(=O)(OC)OC

> <InChI_Code_QSARr>
InChI=1S/C3H9O4P/c1-5-8(4,6-2)7-3/h1-3H3

> <InChI Key_QSARr>
WVLBCYQITXONBZ-UHFFFAOYSA-N

> <Salt_Solvent>


> <Salt_Solvent_ID>
0

> <MPID>
98281

> <LogBCF>
0.15

> <Tr_1_Tst_0>
0

$$$$
100352
  Mrv171c012241911322D          

 22 24  0  0  0  0            999 V2000
    0.0268    0.3170    0.0000 C   0  0  0  0  0  0  0  0  0  0  0  0
   -0.3857    1.0314    0.0000 C   0  0  0  0  0  0  0  0  0  0  0  0
    0.4393    1.0314    0.0000 C   0  0  0  0  0  0  0  0  0  0  0  0
    1.2643    1.0314    0.0000 C   0  0  0  0  0  0  0  0  0  0  0  0
    1.6768    0.3170    0.0000 C   0  0  0  0  0  0  0  0  0  0  0  0
    1.2643   -0.3975    0.0000 C   0  0  0  0  0  0  0  0  0  0  0  0
    2.0395   -0.6797    0.0000 C   0  0  0  0  0  0  0  0  0  0  0  0
    1.1210   -1.2100    0.0000 C   0  0  0  0  0  0  0  0  0  0  0  0
    0.3458   -1.4921    0.0000 O   0  0  0  0  0  0  0  0  0  0  0  0
    1.7530   -1.7403    0.0000 O   0  0  0  0  0  0  0  0  0  0  0  0
    0.4393   -0.3975    0.0000 C   0  0  0  0  0  0  0  0  0  0  0  0
    0.0268   -1.1120    0.0000 C   0  0  0  0  0  0  0  0  0  0  0  0
   -0.7982   -1.1120    0.0000 C   0  0  0  0  0  0  0  0  0  0  0  0
   -1.2107   -0.3975    0.0000 C   0  0  0  0  0  0  0  0  0  0  0  0
   -2.0357   -0.3975    0.0000 C   0  0  0  0  0  0  0  0  0  0  0  0
   -2.4482    0.3170    0.0000 C   0  0  0  0  0  0  0  0  0  0  0  0
   -3.2732    0.3170    0.0000 C   0  0  0  0  0  0  0  0  0  0  0  0
   -3.6857   -0.3975    0.0000 C   0  0  0  0  0  0  0  0  0  0  0  0
   -3.6857    1.0314    0.0000 C   0  0  0  0  0  0  0  0  0  0  0  0
   -2.0357    1.0314    0.0000 C   0  0  0  0  0  0  0  0  0  0  0  0
   -1.2107    1.0314    0.0000 C   0  0  0  0  0  0  0  0  0  0  0  0
   -0.7982    0.3170    0.0000 C   0  0  0  0  0  0  0  0  0  0  0  0
  1  2  1  0  0  0  0
  3  1  1  0  0  0  0
  4  3  1  0  0  0  0
  5  4  1  0  0  0  0
  6  5  1  0  0  0  0
  6  7  1  0  0  0  0
  6  8  1  0  0  0  0
  8  9  1  0  0  0  0
  8 10  2  0  0  0  0
 11  6  1  0  0  0  0
 11  1  1  0  0  0  0
 12 11  1  0  0  0  0
 13 12  1  0  0  0  0
 14 13  2  0  0  0  0
 14 15  1  0  0  0  0
 15 16  2  0  0  0  0
 16 17  1  0  0  0  0
 17 18  1  0  0  0  0
 17 19  1  0  0  0  0
 16 20  1  0  0  0  0
 20 21  1  0  0  0  0
 21 22  1  0  0  0  0
  1 22  1  0  0  0  0
 22 14  1  0  0  0  0
M  END
> <ChemID>
100352

> <CAS>
514-10-3

> <Original_SMILES>
CC(C)C1CC[C@H]2C(C=1)=CC[C@H]1[C@@](C)(CCC[C@]21C)C(O)=O

> <preferred_name>
Abietic acid

> <dsstox_substance_id>
DTXSID7022047

> <dsstox_compound_id>
DTXCID202047

> <qc_level>
DSSTox_Low

> <Canonical_QSARr>
CC(C)C1CCC2C(C=1)=CCC1C(C)(CCCC21C)C(O)=O

> <InChI_Code_QSARr>
InChI=1S/C20H30O2/c1-13(2)14-6-8-16-15(12-14)7-9-17-19(16,3)10-5-11-20(17,4)18(21)22/h7,12-13,16-17H,5-6,8-11H2,1-4H3,(H,21,22)

> <InChI Key_QSARr>
RSWGJHLUYNHPMX-UHFFFAOYSA-N

> <Salt_Solvent>


> <Salt_Solvent_ID>
0

> <MPID>
98282

> <LogBCF>
1.97

> <Tr_1_Tst_0>
1

$$$$
100353
  Mrv171c012241911322D          

  9  9  0  0  0  0            999 V2000
    2.1436   -1.2419    0.0000 C   0  0  0  0  0  0  0  0  0  0  0  0
    2.8581   -0.8294    0.0000 C   0  0  0  0  0  0  0  0  0  0  0  0
    1.4292   -0.8294    0.0000 C   0  0  0  0  0  0  0  0  0  0  0  0
    1.4292   -0.0044    0.0000 C   0  0  0  0  0  0  0  0  0  0  0  0
    0.7147   -1.2419    0.0000 C   0  0  0  0  0  0  0  0  0  0  0  0
    0.0002   -0.8294    0.0000 C   0  0  0  0  0  0  0  0  0  0  0  0
    0.7147   -2.0669    0.0000 C   0  0  0  0  0  0  0  0  0  0  0  0
    1.4292   -2.4794    0.0000 C   0  0  0  0  0  0  0  0  0  0  0  0
    2.1436   -2.0669    0.0000 C   0  0  0  0  0  0  0  0  0  0  0  0
  1  2  1  0  0  0  0
  3  1  1  0  0  0  0
  3  4  1  0  0  0  0
  5  3  2  0  0  0  0
  5  6  1  0  0  0  0
  7  5  1  0  0  0  0
  8  7  2  0  0  0  0
  9  8  1  0  0  0  0
  1  9  2  0  0  0  0
M  END
> <ChemID>
100353

> <CAS>
526-73-8

> <Original_SMILES>
Cc1c(C)cccc1C

> <preferred_name>
1,2,3-Trimethylbenzene

> <dsstox_substance_id>
DTXSID8047769

> <dsstox_compound_id>
DTXCID7027750

> <qc_level>
DSSTox_Low

> <Canonical_QSARr>
CC1C=CC=C(C)C=1C

> <InChI_Code_QSARr>
InChI=1S/C9H12/c1-7-5-4-6-8(2)9(7)3/h4-6H,1-3H3

> <InChI Key_QSARr>
FYGHSUNMUKGBRK-UHFFFAOYSA-N

> <Salt_Solvent>


> <Salt_Solvent_ID>
0

> <MPID>
98283

> <LogBCF>
2.29

> <Tr_1_Tst_0>
1

$$$$
100354
  Mrv171c012241911322D          

 10  9  0  0  0  0            999 V2000
    0.7098   -0.8342    0.0000 C   0  0  0  0  0  0  0  0  0  0  0  0
    1.4243   -1.2467    0.0000 C   0  0  0  0  0  0  0  0  0  0  0  0
    1.4243   -2.0717    0.0000 Br  0  0  0  0  0  0  0  0  0  0  0  0
    2.1388   -0.8342    0.0000 C   0  0  0  0  0  0  0  0  0  0  0  0
    2.1388   -0.0092    0.0000 Br  0  0  0  0  0  0  0  0  0  0  0  0
    2.8532   -1.2467    0.0000 C   0  0  0  0  0  0  0  0  0  0  0  0
    3.5677   -0.8342    0.0000 O   0  0  0  0  0  0  0  0  0  0  0  0
    2.8532   -2.0717    0.0000 O   0  0  0  0  0  0  0  0  0  0  0  0
   -0.0046   -1.2467    0.0000 O   0  0  0  0  0  0  0  0  0  0  0  0
    0.7098   -0.0092    0.0000 O   0  0  0  0  0  0  0  0  0  0  0  0
  1  2  1  0  0  0  0
  2  3  1  0  0  0  0
  2  4  1  0  0  0  0
  4  5  1  0  0  0  0
  4  6  1  0  0  0  0
  6  7  1  0  0  0  0
  6  8  2  0  0  0  0
  1  9  1  0  0  0  0
  1 10  2  0  0  0  0
M  END
> <ChemID>
100354

> <CAS>
526-78-3

> <Original_SMILES>
OC(=O)C(Br)C(Br)C(O)=O

> <preferred_name>


> <dsstox_substance_id>
DTXSID00862120

> <dsstox_compound_id>
DTXCID10810930

> <qc_level>


> <Canonical_QSARr>
OC(=O)C(Br)C(Br)C(O)=O

> <InChI_Code_QSARr>
InChI=1S/C4H4Br2O4/c5-1(3(7)8)2(6)4(9)10/h1-2H,(H,7,8)(H,9,10)

> <InChI Key_QSARr>
FJWGRXKOBIVTFA-UHFFFAOYSA-N

> <Salt_Solvent>


> <Salt_Solvent_ID>
0

> <MPID>
98284

> <LogBCF>
0.81

> <Tr_1_Tst_0>
1

$$$$
100355
  Mrv171c012241911322D          

 12 12  0  0  0  0            999 V2000
    2.1378   -1.2352    0.0000 C   0  0  0  0  0  0  0  0  0  0  0  0
    2.8523   -0.8227    0.0000 N   0  0  0  0  0  0  0  0  0  0  0  0
    1.4233   -0.8227    0.0000 C   0  0  0  0  0  0  0  0  0  0  0  0
    1.4233    0.0023    0.0000 Cl  0  0  0  0  0  0  0  0  0  0  0  0
    0.7089   -1.2352    0.0000 C   0  0  0  0  0  0  0  0  0  0  0  0
   -0.0056   -0.8227    0.0000 Cl  0  0  0  0  0  0  0  0  0  0  0  0
    0.7089   -2.0602    0.0000 C   0  0  0  0  0  0  0  0  0  0  0  0
   -0.0056   -2.4727    0.0000 Cl  0  0  0  0  0  0  0  0  0  0  0  0
    1.4233   -2.4727    0.0000 C   0  0  0  0  0  0  0  0  0  0  0  0
    1.4233   -3.2977    0.0000 Cl  0  0  0  0  0  0  0  0  0  0  0  0
    2.1378   -2.0602    0.0000 C   0  0  0  0  0  0  0  0  0  0  0  0
    2.8523   -2.4727    0.0000 Cl  0  0  0  0  0  0  0  0  0  0  0  0
  1  2  1  0  0  0  0
  3  1  1  0  0  0  0
  3  4  1  0  0  0  0
  5  3  2  0  0  0  0
  5  6  1  0  0  0  0
  7  5  1  0  0  0  0
  7  8  1  0  0  0  0
  9  7  2  0  0  0  0
  9 10  1  0  0  0  0
 11  9  1  0  0  0  0
  1 11  2  0  0  0  0
 11 12  1  0  0  0  0
M  END
> <ChemID>
100355

> <CAS>
527-20-8

> <Original_SMILES>
Nc1c(Cl)c(Cl)c(Cl)c(Cl)c1Cl

> <preferred_name>
Pentachloroaniline

> <dsstox_substance_id>
DTXSID4037584

> <dsstox_compound_id>
DTXCID2017584

> <qc_level>
DSSTox_Low

> <Canonical_QSARr>
NC1C(Cl)=C(Cl)C(Cl)=C(Cl)C=1Cl

> <InChI_Code_QSARr>
InChI=1S/C6H2Cl5N/c7-1-2(8)4(10)6(12)5(11)3(1)9/h12H2

> <InChI Key_QSARr>
KHCZSJXTDDHLGJ-UHFFFAOYSA-N

> <Salt_Solvent>


> <Salt_Solvent_ID>
0

> <MPID>
98285

> <LogBCF>
2.71

> <Tr_1_Tst_0>
0

$$$$
100356
  Mrv171c012241911322D          

 10 10  0  0  0  0            999 V2000
    3.1010   -0.6863    0.0000 O   0  0  0  0  0  0  0  0  0  0  0  0
    2.3865   -1.0988    0.0000 C   0  0  0  0  0  0  0  0  0  0  0  0
    1.6721   -0.6863    0.0000 C   0  0  0  0  0  0  0  0  0  0  0  0
    1.6721    0.1387    0.0000 C   0  0  0  0  0  0  0  0  0  0  0  0
    0.9576   -1.0988    0.0000 C   0  0  0  0  0  0  0  0  0  0  0  0
    0.9576   -1.9238    0.0000 C   0  0  0  0  0  0  0  0  0  0  0  0
    0.2431   -2.3363    0.0000 C   0  0  0  0  0  0  0  0  0  0  0  0
    1.6721   -2.3363    0.0000 C   0  0  0  0  0  0  0  0  0  0  0  0
    2.3865   -1.9238    0.0000 C   0  0  0  0  0  0  0  0  0  0  0  0
    3.1010   -2.3363    0.0000 C   0  0  0  0  0  0  0  0  0  0  0  0
  1  2  1  0  0  0  0
  3  2  1  0  0  0  0
  3  4  1  0  0  0  0
  5  3  2  0  0  0  0
  6  5  1  0  0  0  0
  6  7  1  0  0  0  0
  8  6  2  0  0  0  0
  9  8  1  0  0  0  0
  2  9  2  0  0  0  0
  9 10  1  0  0  0  0
M  END
> <ChemID>
100356

> <CAS>
527-60-6

> <Original_SMILES>
Cc1cc(C)c(O)c(C)c1

> <preferred_name>
2,4,6-Trimethylphenol

> <dsstox_substance_id>
DTXSID7022049

> <dsstox_compound_id>
DTXCID002049

> <qc_level>
DSSTox_Low

> <Canonical_QSARr>
CC1C=C(C)C=C(C)C=1O

> <InChI_Code_QSARr>
InChI=1S/C9H12O/c1-6-4-7(2)9(10)8(3)5-6/h4-5,10H,1-3H3

> <InChI Key_QSARr>
BPRYUXCVCCNUFE-UHFFFAOYSA-N

> <Salt_Solvent>


> <Salt_Solvent_ID>
0

> <MPID>
98286

> <LogBCF>
0.93

> <Tr_1_Tst_0>
1

$$$$
100357
  Mrv171c012241911322D          

 14 14  0  0  0  0            999 V2000
    3.4348   -1.3674    0.0000 O   0  0  0  0  0  0  0  0  0  0  0  0
    2.7203   -1.7799    0.0000 C   0  0  0  0  0  0  0  0  0  0  0  0
    2.0059   -1.3674    0.0000 C   0  0  0  0  0  0  0  0  0  0  0  0
    2.0059   -0.5424    0.0000 N   0  3  0  0  0  0  0  0  0  0  0  0
    1.2914   -0.1299    0.0000 O   0  0  0  0  0  0  0  0  0  0  0  0
    2.7203   -0.1299    0.0000 O   0  5  0  0  0  0  0  0  0  0  0  0
    1.2914   -1.7799    0.0000 C   0  0  0  0  0  0  0  0  0  0  0  0
    1.2914   -2.6049    0.0000 C   0  0  0  0  0  0  0  0  0  0  0  0
    0.5769   -3.0174    0.0000 N   0  3  0  0  0  0  0  0  0  0  0  0
    0.5769   -3.8424    0.0000 O   0  0  0  0  0  0  0  0  0  0  0  0
   -0.1376   -2.6049    0.0000 O   0  5  0  0  0  0  0  0  0  0  0  0
    2.0059   -3.0174    0.0000 C   0  0  0  0  0  0  0  0  0  0  0  0
    2.7203   -2.6049    0.0000 C   0  0  0  0  0  0  0  0  0  0  0  0
    3.4348   -3.0174    0.0000 C   0  0  0  0  0  0  0  0  0  0  0  0
  1  2  1  0  0  0  0
  3  2  1  0  0  0  0
  3  4  1  0  0  0  0
  4  5  2  0  0  0  0
  4  6  1  0  0  0  0
  7  3  2  0  0  0  0
  8  7  1  0  0  0  0
  8  9  1  0  0  0  0
  9 10  2  0  0  0  0
  9 11  1  0  0  0  0
 12  8  2  0  0  0  0
 13 12  1  0  0  0  0
  2 13  2  0  0  0  0
 13 14  1  0  0  0  0
M  CHG  4   4   1   6  -1   9   1  11  -1
M  END
> <ChemID>
100357

> <CAS>
534-52-1

> <Original_SMILES>
Cc1cc(cc(c1O)[N+]([O-])=O)[N+]([O-])=O

> <preferred_name>
2-Methyl-4,6-dinitrophenol

> <dsstox_substance_id>
DTXSID1022053

> <dsstox_compound_id>
DTXCID902053

> <qc_level>
DSSTox_Low

> <Canonical_QSARr>
CC1C=C(C=C(C=1O)[N+]([O-])=O)[N+]([O-])=O

> <InChI_Code_QSARr>
InChI=1S/C7H6N2O5/c1-4-2-5(8(11)12)3-6(7(4)10)9(13)14/h2-3,10H,1H3

> <InChI Key_QSARr>
ZXVONLUNISGICL-UHFFFAOYSA-N

> <Salt_Solvent>


> <Salt_Solvent_ID>
0

> <MPID>
98287

> <LogBCF>
0.46

> <Tr_1_Tst_0>
1

$$$$
100358
  Mrv171c012241911322D          

 10 10  0  0  0  0            999 V2000
    0.6430    0.6188    0.0000 C   0  0  0  0  0  0  0  0  0  0  0  0
   -0.0715    0.2063    0.0000 C   0  0  0  0  0  0  0  0  0  0  0  0
   -0.7859    0.6188    0.0000 C   0  0  0  0  0  0  0  0  0  0  0  0
   -0.0715   -0.6187    0.0000 C   0  0  0  0  0  0  0  0  0  0  0  0
    1.3575    0.2062    0.0000 C   0  0  0  0  0  0  0  0  0  0  0  0
    2.0720    0.6187    0.0000 C   0  0  0  0  0  0  0  0  0  0  0  0
    2.0720    1.4437    0.0000 C   0  0  0  0  0  0  0  0  0  0  0  0
    1.3575    1.8562    0.0000 C   0  0  0  0  0  0  0  0  0  0  0  0
    1.3575    2.6812    0.0000 C   0  0  0  0  0  0  0  0  0  0  0  0
    0.6430    1.4438    0.0000 C   0  0  0  0  0  0  0  0  0  0  0  0
  1  2  1  0  0  0  0
  2  3  1  0  0  0  0
  2  4  1  0  0  0  0
  5  1  1  0  0  0  0
  6  5  2  0  0  0  0
  7  6  1  0  0  0  0
  8  7  2  0  0  0  0
  8  9  1  0  0  0  0
 10  8  1  0  0  0  0
  1 10  2  0  0  0  0
M  END
> <ChemID>
100358

> <CAS>
535-77-3

> <Original_SMILES>
Cc1cccc(c1)C(C)C

> <preferred_name>
m-Cymene

> <dsstox_substance_id>
DTXSID2060206

> <dsstox_compound_id>
DTXCID9041449

> <qc_level>
Public_High

> <Canonical_QSARr>
CC1C=C(C=CC=1)C(C)C

> <InChI_Code_QSARr>
InChI=1S/C10H14/c1-8(2)10-6-4-5-9(3)7-10/h4-8H,1-3H3

> <InChI Key_QSARr>
XCYJPXQACVEIOS-UHFFFAOYSA-N

> <Salt_Solvent>


> <Salt_Solvent_ID>
0

> <MPID>
98288

> <LogBCF>
2.73

> <Tr_1_Tst_0>
1

$$$$
100359
  Mrv171c012241911322D          

  8  8  0  0  0  0            999 V2000
    0.1795   -1.9594    0.0000 Cl  0  0  0  0  0  0  0  0  0  0  0  0
    0.8940   -1.5469    0.0000 C   0  0  0  0  0  0  0  0  0  0  0  0
    1.6084   -1.9594    0.0000 C   0  0  0  0  0  0  0  0  0  0  0  0
    2.3229   -1.5469    0.0000 C   0  0  0  0  0  0  0  0  0  0  0  0
    2.3229   -0.7219    0.0000 C   0  0  0  0  0  0  0  0  0  0  0  0
    1.6084   -0.3094    0.0000 C   0  0  0  0  0  0  0  0  0  0  0  0
    1.6084    0.5156    0.0000 Cl  0  0  0  0  0  0  0  0  0  0  0  0
    0.8940   -0.7219    0.0000 C   0  0  0  0  0  0  0  0  0  0  0  0
  1  2  1  0  0  0  0
  3  2  1  0  0  0  0
  4  3  2  0  0  0  0
  5  4  1  0  0  0  0
  6  5  2  0  0  0  0
  6  7  1  0  0  0  0
  8  6  1  0  0  0  0
  2  8  2  0  0  0  0
M  END
> <ChemID>
100359

> <CAS>
541-73-1

> <Original_SMILES>
Clc1cc(Cl)ccc1

> <preferred_name>
1,3-Dichlorobenzene

> <dsstox_substance_id>
DTXSID6022056

> <dsstox_compound_id>
DTXCID102056

> <qc_level>
DSSTox_Low

> <Canonical_QSARr>
ClC1=CC(Cl)=CC=C1

> <InChI_Code_QSARr>
InChI=1S/C6H4Cl2/c7-5-2-1-3-6(8)4-5/h1-4H

> <InChI Key_QSARr>
ZPQOPVIELGIULI-UHFFFAOYSA-N

> <Salt_Solvent>


> <Salt_Solvent_ID>
0

> <MPID>
98289

> <LogBCF>
2.33

> <Tr_1_Tst_0>
0

$$$$
100360
  Mrv171c012241911322D          

  7  7  0  0  0  0            999 V2000
    0.9202   -0.1214    0.0000 C   0  0  0  0  0  0  0  0  0  0  0  0
    0.9202    0.7036    0.0000 Cl  0  0  0  0  0  0  0  0  0  0  0  0
    0.2057   -0.5339    0.0000 C   0  0  0  0  0  0  0  0  0  0  0  0
    0.2057   -1.3589    0.0000 C   0  0  0  0  0  0  0  0  0  0  0  0
    0.9202   -1.7714    0.0000 C   0  0  0  0  0  0  0  0  0  0  0  0
    1.6346   -1.3589    0.0000 C   0  0  0  0  0  0  0  0  0  0  0  0
    1.6346   -0.5339    0.0000 C   0  0  0  0  0  0  0  0  0  0  0  0
  1  2  1  0  0  0  0
  3  1  1  0  0  0  0
  4  3  1  0  0  0  0
  5  4  1  0  0  0  0
  6  5  1  0  0  0  0
  7  6  1  0  0  0  0
  1  7  1  0  0  0  0
M  END
> <ChemID>
100360

> <CAS>
542-18-7

> <Original_SMILES>
ClC1CCCCC1

> <preferred_name>
Chlorocyclohexane

> <dsstox_substance_id>
DTXSID3052193

> <dsstox_compound_id>
DTXCID8030764

> <qc_level>
DSSTox_High

> <Canonical_QSARr>
ClC1CCCCC1

> <InChI_Code_QSARr>
InChI=1S/C6H11Cl/c7-6-4-2-1-3-5-6/h6H,1-5H2

> <InChI Key_QSARr>
UNFUYWDGSFDHCW-UHFFFAOYSA-N

> <Salt_Solvent>


> <Salt_Solvent_ID>
0

> <MPID>
98290

> <LogBCF>
2.34

> <Tr_1_Tst_0>
1

$$$$
100361
  Mrv171c012241911322D          

 11 10  0  0  0  0            999 V2000
    0.7301   -0.9035    0.0000 C   0  0  0  0  0  0  0  0  0  0  0  0
    0.0156   -0.4910    0.0000 C   0  0  0  0  0  0  0  0  0  0  0  0
    0.7301   -1.7285    0.0000 C   0  0  0  0  0  0  0  0  0  0  0  0
    1.4446   -0.4910    0.0000 C   0  0  0  0  0  0  0  0  0  0  0  0
    2.1590   -0.9035    0.0000 C   0  0  0  0  0  0  0  0  0  0  0  0
    2.8735   -0.4910    0.0000 O   0  0  0  0  0  0  0  0  0  0  0  0
    3.5880   -0.9035    0.0000 C   0  0  0  0  0  0  0  0  0  0  0  0
    4.3024   -0.4910    0.0000 C   0  0  0  0  0  0  0  0  0  0  0  0
    5.0169   -0.9035    0.0000 C   0  0  0  0  0  0  0  0  0  0  0  0
    5.7314   -0.4910    0.0000 C   0  0  0  0  0  0  0  0  0  0  0  0
    5.0169   -1.7285    0.0000 C   0  0  0  0  0  0  0  0  0  0  0  0
  1  2  1  0  0  0  0
  1  3  1  0  0  0  0
  1  4  1  0  0  0  0
  4  5  1  0  0  0  0
  5  6  1  0  0  0  0
  6  7  1  0  0  0  0
  7  8  1  0  0  0  0
  8  9  1  0  0  0  0
  9 10  1  0  0  0  0
  9 11  1  0  0  0  0
M  END
> <ChemID>
100361

> <CAS>
544-01-4

> <Original_SMILES>
CC(C)CCOCCC(C)C

> <preferred_name>
Isoamyl ether

> <dsstox_substance_id>
DTXSID8052198

> <dsstox_compound_id>
DTXCID3030769

> <qc_level>
DSSTox_Low

> <Canonical_QSARr>
CC(C)CCOCCC(C)C

> <InChI_Code_QSARr>
InChI=1S/C10H22O/c1-9(2)5-7-11-8-6-10(3)4/h9-10H,5-8H2,1-4H3

> <InChI Key_QSARr>
AQZGPSLYZOOYQP-UHFFFAOYSA-N

> <Salt_Solvent>


> <Salt_Solvent_ID>
0

> <MPID>
98291

> <LogBCF>
2.23

> <Tr_1_Tst_0>
1

$$$$
100362
  Mrv171c012241911322D          

 16 15  0  0  0  0            999 V2000
    0.0216   -0.4161    0.0000 C   0  0  0  0  0  0  0  0  0  0  0  0
    0.7360   -0.0036    0.0000 C   0  0  0  0  0  0  0  0  0  0  0  0
    1.4505   -0.4161    0.0000 C   0  0  0  0  0  0  0  0  0  0  0  0
    2.1650   -0.0036    0.0000 C   0  0  0  0  0  0  0  0  0  0  0  0
    2.8795   -0.4161    0.0000 C   0  0  0  0  0  0  0  0  0  0  0  0
    3.5939   -0.0036    0.0000 C   0  0  0  0  0  0  0  0  0  0  0  0
    4.3084   -0.4161    0.0000 C   0  0  0  0  0  0  0  0  0  0  0  0
    5.0229   -0.0036    0.0000 C   0  0  0  0  0  0  0  0  0  0  0  0
    5.7373   -0.4161    0.0000 C   0  0  0  0  0  0  0  0  0  0  0  0
    6.4518   -0.0036    0.0000 C   0  0  0  0  0  0  0  0  0  0  0  0
    7.1663   -0.4161    0.0000 C   0  0  0  0  0  0  0  0  0  0  0  0
    7.8808   -0.0036    0.0000 C   0  0  0  0  0  0  0  0  0  0  0  0
    8.5952   -0.4161    0.0000 C   0  0  0  0  0  0  0  0  0  0  0  0
    9.3097   -0.0036    0.0000 C   0  0  0  0  0  0  0  0  0  0  0  0
   10.0242   -0.4161    0.0000 C   0  0  0  0  0  0  0  0  0  0  0  0
   10.7386   -0.0036    0.0000 C   0  0  0  0  0  0  0  0  0  0  0  0
  1  2  1  0  0  0  0
  2  3  1  0  0  0  0
  3  4  1  0  0  0  0
  4  5  1  0  0  0  0
  5  6  1  0  0  0  0
  6  7  1  0  0  0  0
  7  8  1  0  0  0  0
  8  9  1  0  0  0  0
  9 10  1  0  0  0  0
 10 11  1  0  0  0  0
 11 12  1  0  0  0  0
 12 13  1  0  0  0  0
 13 14  1  0  0  0  0
 14 15  1  0  0  0  0
 15 16  1  0  0  0  0
M  END
> <ChemID>
100362

> <CAS>
544-76-3

> <Original_SMILES>
CCCCCCCCCCCCCCCC

> <preferred_name>
Hexadecane

> <dsstox_substance_id>
DTXSID0027195

> <dsstox_compound_id>
DTXCID607195

> <qc_level>
DSSTox_Low

> <Canonical_QSARr>
CCCCCCCCCCCCCCCC

> <InChI_Code_QSARr>
InChI=1S/C16H34/c1-3-5-7-9-11-13-15-16-14-12-10-8-6-4-2/h3-16H2,1-2H3

> <InChI Key_QSARr>
DCAYPVUWAIABOU-UHFFFAOYSA-N

> <Salt_Solvent>


> <Salt_Solvent_ID>
0

> <MPID>
98292

> <LogBCF>
3.7

> <Tr_1_Tst_0>
1

$$$$
100363
  Mrv171c012241911322D          

  9  9  0  0  0  0            999 V2000
    2.8587   -0.1833    0.0000 Cl  0  0  0  0  0  0  0  0  0  0  0  0
    2.1442   -0.5958    0.0000 C   0  0  0  0  0  0  0  0  0  0  0  0
    1.4298   -0.1833    0.0000 C   0  0  0  0  0  0  0  0  0  0  0  0
    1.4298    0.6417    0.0000 N   0  0  0  0  0  0  0  0  0  0  0  0
    0.7153   -0.5958    0.0000 C   0  0  0  0  0  0  0  0  0  0  0  0
    0.7153   -1.4208    0.0000 C   0  0  0  0  0  0  0  0  0  0  0  0
    1.4298   -1.8333    0.0000 C   0  0  0  0  0  0  0  0  0  0  0  0
    1.4298   -2.6583    0.0000 Cl  0  0  0  0  0  0  0  0  0  0  0  0
    2.1442   -1.4208    0.0000 C   0  0  0  0  0  0  0  0  0  0  0  0
  1  2  1  0  0  0  0
  3  2  1  0  0  0  0
  3  4  1  0  0  0  0
  5  3  2  0  0  0  0
  6  5  1  0  0  0  0
  7  6  2  0  0  0  0
  7  8  1  0  0  0  0
  9  7  1  0  0  0  0
  2  9  2  0  0  0  0
M  END
> <ChemID>
100363

> <CAS>
554-00-7

> <Original_SMILES>
Nc1ccc(Cl)cc1Cl

> <preferred_name>
2,4-Dichloroaniline

> <dsstox_substance_id>
DTXSID1024966

> <dsstox_compound_id>
DTXCID404966

> <qc_level>
DSSTox_Low

> <Canonical_QSARr>
NC1=CC=C(Cl)C=C1Cl

> <InChI_Code_QSARr>
InChI=1S/C6H5Cl2N/c7-4-1-2-6(9)5(8)3-4/h1-3H,9H2

> <InChI Key_QSARr>
KQCMTOWTPBNWDB-UHFFFAOYSA-N

> <Salt_Solvent>


> <Salt_Solvent_ID>
0

> <MPID>
98293

> <LogBCF>
1.36

> <Tr_1_Tst_0>
0

$$$$
100364
  Mrv171c012241911322D          

 10 10  0  0  0  0            999 V2000
    2.8524   -2.6048    0.0000 O   0  0  0  0  0  0  0  0  0  0  0  0
    2.1380   -2.1923    0.0000 C   0  0  0  0  0  0  0  0  0  0  0  0
    2.1380   -1.3673    0.0000 C   0  0  0  0  0  0  0  0  0  0  0  0
    1.4235   -0.9548    0.0000 C   0  0  0  0  0  0  0  0  0  0  0  0
    1.4235   -0.1298    0.0000 N   0  3  0  0  0  0  0  0  0  0  0  0
    0.7090    0.2827    0.0000 O   0  0  0  0  0  0  0  0  0  0  0  0
    2.1380    0.2827    0.0000 O   0  5  0  0  0  0  0  0  0  0  0  0
    0.7090   -1.3673    0.0000 C   0  0  0  0  0  0  0  0  0  0  0  0
    0.7090   -2.1923    0.0000 C   0  0  0  0  0  0  0  0  0  0  0  0
    1.4235   -2.6048    0.0000 C   0  0  0  0  0  0  0  0  0  0  0  0
  1  2  1  0  0  0  0
  3  2  1  0  0  0  0
  4  3  2  0  0  0  0
  4  5  1  0  0  0  0
  5  6  2  0  0  0  0
  5  7  1  0  0  0  0
  8  4  1  0  0  0  0
  9  8  2  0  0  0  0
 10  9  1  0  0  0  0
  2 10  2  0  0  0  0
M  CHG  2   5   1   7  -1
M  END
> <ChemID>
100364

> <CAS>
554-84-7

> <Original_SMILES>
[O-][N+](=O)c1cccc(O)c1

> <preferred_name>
3-Nitrophenol

> <dsstox_substance_id>
DTXSID2025765

> <dsstox_compound_id>
DTXCID705765

> <qc_level>
DSSTox_Low

> <Canonical_QSARr>
[O-][N+](=O)C1C=CC=C(O)C=1

> <InChI_Code_QSARr>
InChI=1S/C6H5NO3/c8-6-3-1-2-5(4-6)7(9)10/h1-4,8H

> <InChI Key_QSARr>
RTZZCYNQPHTPPL-UHFFFAOYSA-N

> <Salt_Solvent>


> <Salt_Solvent_ID>
0

> <MPID>
98294

> <LogBCF>
1.4

> <Tr_1_Tst_0>
1

$$$$
100365
  Mrv171c012241911322D          

 11 11  0  0  0  0            999 V2000
    0.7794    0.2250    0.0000 C   0  0  0  0  0  0  0  0  0  0  0  0
    0.0649   -0.1875    0.0000 N   0  3  0  0  0  0  0  0  0  0  0  0
    0.0649   -1.0125    0.0000 O   0  5  0  0  0  0  0  0  0  0  0  0
   -0.6495    0.2250    0.0000 O   0  0  0  0  0  0  0  0  0  0  0  0
    1.4939   -0.1875    0.0000 C   0  0  0  0  0  0  0  0  0  0  0  0
    2.2084    0.2250    0.0000 C   0  0  0  0  0  0  0  0  0  0  0  0
    2.2084    1.0500    0.0000 C   0  0  0  0  0  0  0  0  0  0  0  0
    1.4939    1.4625    0.0000 C   0  0  0  0  0  0  0  0  0  0  0  0
    1.4939    2.2875    0.0000 O   0  0  0  0  0  0  0  0  0  0  0  0
    0.7794    2.7000    0.0000 C   0  0  0  0  0  0  0  0  0  0  0  0
    0.7794    1.0500    0.0000 C   0  0  0  0  0  0  0  0  0  0  0  0
  1  2  1  0  0  0  0
  2  3  1  0  0  0  0
  2  4  2  0  0  0  0
  5  1  1  0  0  0  0
  6  5  2  0  0  0  0
  7  6  1  0  0  0  0
  8  7  2  0  0  0  0
  8  9  1  0  0  0  0
  9 10  1  0  0  0  0
 11  8  1  0  0  0  0
  1 11  2  0  0  0  0
M  CHG  2   2   1   3  -1
M  END
> <ChemID>
100365

> <CAS>
555-03-3

> <Original_SMILES>
COc1cc(ccc1)[N+]([O-])=O

> <preferred_name>
Benzene, 1-methoxy-3-nitro-

> <dsstox_substance_id>
DTXSID3060295

> <dsstox_compound_id>
DTXCID3041900

> <qc_level>
Public_High

> <Canonical_QSARr>
COC1C=C(C=CC=1)[N+]([O-])=O

> <InChI_Code_QSARr>
InChI=1S/C7H7NO3/c1-11-7-4-2-3-6(5-7)8(9)10/h2-5H,1H3

> <InChI Key_QSARr>
WGYFINWERLNPHR-UHFFFAOYSA-N

> <Salt_Solvent>


> <Salt_Solvent_ID>
0

> <MPID>
98295

> <LogBCF>
0.78

> <Tr_1_Tst_0>
1

$$$$
100366
  Mrv171c012241911322D          

  9  9  0  0  0  0            999 V2000
    2.3959   -0.7881    0.0000 Cl  0  0  0  0  0  0  0  0  0  0  0  0
    1.6815   -1.2006    0.0000 C   0  0  0  0  0  0  0  0  0  0  0  0
    0.9670   -0.7881    0.0000 C   0  0  0  0  0  0  0  0  0  0  0  0
    0.9670    0.0369    0.0000 O   0  0  0  0  0  0  0  0  0  0  0  0
    0.2525   -1.2006    0.0000 C   0  0  0  0  0  0  0  0  0  0  0  0
    0.2525   -2.0256    0.0000 C   0  0  0  0  0  0  0  0  0  0  0  0
    0.9670   -2.4381    0.0000 C   0  0  0  0  0  0  0  0  0  0  0  0
    1.6815   -2.0256    0.0000 C   0  0  0  0  0  0  0  0  0  0  0  0
    2.3959   -2.4381    0.0000 Cl  0  0  0  0  0  0  0  0  0  0  0  0
  1  2  1  0  0  0  0
  3  2  1  0  0  0  0
  3  4  1  0  0  0  0
  5  3  2  0  0  0  0
  6  5  1  0  0  0  0
  7  6  2  0  0  0  0
  8  7  1  0  0  0  0
  2  8  2  0  0  0  0
  8  9  1  0  0  0  0
M  END
> <ChemID>
100366

> <CAS>
576-24-9

> <Original_SMILES>
Oc1cccc(Cl)c1Cl

> <preferred_name>
2,3-Dichlorophenol

> <dsstox_substance_id>
DTXSID7025001

> <dsstox_compound_id>
DTXCID905001

> <qc_level>
DSSTox_Low

> <Canonical_QSARr>
OC1=CC=CC(Cl)=C1Cl

> <InChI_Code_QSARr>
InChI=1S/C6H4Cl2O/c7-4-2-1-3-5(9)6(4)8/h1-3,9H

> <InChI Key_QSARr>
UMPSXRYVXUPCOS-UHFFFAOYSA-N

> <Salt_Solvent>


> <Salt_Solvent_ID>
0

> <MPID>
98296

> <LogBCF>
1.13

> <Tr_1_Tst_0>
1

$$$$
100367
  Mrv171c012241911322D          

 28 27  0  0  0  0            999 V2000
   -1.5437   -1.1096    0.0000 O   0  0  0  0  0  0  0  0  0  0  0  0
   -2.3687   -1.1096    0.0000 S   0  0  0  0  0  0  0  0  0  0  0  0
   -2.3687   -0.2846    0.0000 C   0  0  0  0  0  0  0  0  0  0  0  0
   -1.6542    0.1279    0.0000 C   0  0  0  0  0  0  0  0  0  0  0  0
   -0.9398   -0.2846    0.0000 C   0  0  0  0  0  0  0  0  0  0  0  0
   -0.9398   -1.1096    0.0000 O   0  0  0  0  0  0  0  0  0  0  0  0
   -0.2253    0.1279    0.0000 O   0  0  0  0  0  0  0  0  0  0  0  0
    0.4892   -0.2846    0.0000 C   0  0  0  0  0  0  0  0  0  0  0  0
    1.2037    0.1279    0.0000 C   0  0  0  0  0  0  0  0  0  0  0  0
    1.2037    0.9529    0.0000 C   0  0  0  0  0  0  0  0  0  0  0  0
    1.9181    1.3654    0.0000 C   0  0  0  0  0  0  0  0  0  0  0  0
    1.9181   -0.2846    0.0000 C   0  0  0  0  0  0  0  0  0  0  0  0
    2.6326    0.1279    0.0000 C   0  0  0  0  0  0  0  0  0  0  0  0
    3.3471   -0.2846    0.0000 C   0  0  0  0  0  0  0  0  0  0  0  0
    4.0615    0.1279    0.0000 C   0  0  0  0  0  0  0  0  0  0  0  0
   -3.0832    0.1279    0.0000 C   0  0  0  0  0  0  0  0  0  0  0  0
   -3.7976   -0.2846    0.0000 O   0  0  0  0  0  0  0  0  0  0  0  0
   -4.5121    0.1279    0.0000 C   0  0  0  0  0  0  0  0  0  0  0  0
   -5.2266   -0.2846    0.0000 C   0  0  0  0  0  0  0  0  0  0  0  0
   -5.2266   -1.1096    0.0000 C   0  0  0  0  0  0  0  0  0  0  0  0
   -5.9411   -1.5221    0.0000 C   0  0  0  0  0  0  0  0  0  0  0  0
   -5.9411    0.1279    0.0000 C   0  0  0  0  0  0  0  0  0  0  0  0
   -6.6555   -0.2846    0.0000 C   0  0  0  0  0  0  0  0  0  0  0  0
   -7.3700    0.1279    0.0000 C   0  0  0  0  0  0  0  0  0  0  0  0
   -8.0845   -0.2846    0.0000 C   0  0  0  0  0  0  0  0  0  0  0  0
   -3.0832    0.9529    0.0000 O   0  0  0  0  0  0  0  0  0  0  0  0
   -3.1937   -1.1096    0.0000 O   0  0  0  0  0  0  0  0  0  0  0  0
   -2.3687   -1.9346    0.0000 O   0  0  0  0  0  0  0  0  0  0  0  0
  1  2  1  0  0  0  0
  2  3  1  0  0  0  0
  3  4  1  0  0  0  0
  4  5  1  0  0  0  0
  5  6  2  0  0  0  0
  5  7  1  0  0  0  0
  7  8  1  0  0  0  0
  8  9  1  0  0  0  0
  9 10  1  0  0  0  0
 10 11  1  0  0  0  0
  9 12  1  0  0  0  0
 12 13  1  0  0  0  0
 13 14  1  0  0  0  0
 14 15  1  0  0  0  0
  3 16  1  0  0  0  0
 16 17  1  0  0  0  0
 17 18  1  0  0  0  0
 18 19  1  0  0  0  0
 19 20  1  0  0  0  0
 20 21  1  0  0  0  0
 19 22  1  0  0  0  0
 22 23  1  0  0  0  0
 23 24  1  0  0  0  0
 24 25  1  0  0  0  0
 16 26  2  0  0  0  0
  2 27  2  0  0  0  0
  2 28  2  0  0  0  0
M  END
> <ChemID>
100367

> <CAS>
577-11-7

> <Original_SMILES>
[Na+].CCC(COC(=O)CC(C(=O)OCC(CCCC)CC)S([O-])(=O)=O)CCCC

> <preferred_name>
Docusate sodium

> <dsstox_substance_id>
DTXSID8022959

> <dsstox_compound_id>
DTXCID102959

> <qc_level>
DSSTox_Low

> <Canonical_QSARr>
CCC(COC(=O)CC(C(=O)OCC(CCCC)CC)S(O)(=O)=O)CCCC

> <InChI_Code_QSARr>
InChI=1S/C20H38O7S/c1-5-9-11-16(7-3)14-26-19(21)13-18(28(23,24)25)20(22)27-15-17(8-4)12-10-6-2/h16-18H,5-15H2,1-4H3,(H,23,24,25)

> <InChI Key_QSARr>
HNSDLXPSAYFUHK-UHFFFAOYSA-N

> <Salt_Solvent>
[Na+]

> <Salt_Solvent_ID>
110

> <MPID>
98297

> <LogBCF>
0.97

> <Tr_1_Tst_0>
1

$$$$
100368
  Mrv171c012241911322D          

 12 12  0  0  0  0            999 V2000
    1.9360   -1.6158    0.0000 C   0  0  0  0  0  0  0  0  0  0  0  0
    2.6505   -1.2033    0.0000 C   0  0  0  0  0  0  0  0  0  0  0  0
    3.3650   -1.6158    0.0000 C   0  0  0  0  0  0  0  0  0  0  0  0
    2.6505   -0.3783    0.0000 C   0  0  0  0  0  0  0  0  0  0  0  0
    1.2216   -1.2033    0.0000 C   0  0  0  0  0  0  0  0  0  0  0  0
    1.2216   -0.3783    0.0000 C   0  0  0  0  0  0  0  0  0  0  0  0
    0.5071    0.0342    0.0000 C   0  0  0  0  0  0  0  0  0  0  0  0
    1.9360    0.0342    0.0000 C   0  0  0  0  0  0  0  0  0  0  0  0
    0.5071   -1.6158    0.0000 C   0  0  0  0  0  0  0  0  0  0  0  0
    0.5071   -2.4408    0.0000 C   0  0  0  0  0  0  0  0  0  0  0  0
    1.2216   -2.8533    0.0000 C   0  0  0  0  0  0  0  0  0  0  0  0
    1.9360   -2.4408    0.0000 C   0  0  0  0  0  0  0  0  0  0  0  0
  1  2  1  0  0  0  0
  2  3  1  0  0  0  0
  2  4  1  0  0  0  0
  5  1  1  0  0  0  0
  5  6  1  0  0  0  0
  6  7  1  0  0  0  0
  6  8  1  0  0  0  0
  9  5  2  0  0  0  0
 10  9  1  0  0  0  0
 11 10  2  0  0  0  0
 12 11  1  0  0  0  0
  1 12  2  0  0  0  0
M  END
> <ChemID>
100368

> <CAS>
577-55-9

> <Original_SMILES>
CC(C)c1ccccc1C(C)C

> <preferred_name>


> <dsstox_substance_id>
DTXSID30860336

> <dsstox_compound_id>
DTXCID007858

> <qc_level>


> <Canonical_QSARr>
CC(C)C1=CC=CC=C1C(C)C

> <InChI_Code_QSARr>
InChI=1S/C12H18/c1-9(2)11-7-5-6-8-12(11)10(3)4/h5-10H,1-4H3

> <InChI Key_QSARr>
OKIRBHVFJGXOIS-UHFFFAOYSA-N

> <Salt_Solvent>


> <Salt_Solvent_ID>
0

> <MPID>
98298

> <LogBCF>
2.14

> <Tr_1_Tst_0>
0

$$$$
100369
  Mrv171c012241911322D          

 11 11  0  0  0  0            999 V2000
    0.3248    1.2375    0.0000 C   0  0  0  0  0  0  0  0  0  0  0  0
   -0.3897    0.8250    0.0000 C   0  0  0  0  0  0  0  0  0  0  0  0
   -0.3897   -0.0000    0.0000 C   0  0  0  0  0  0  0  0  0  0  0  0
    0.3248   -0.4125    0.0000 C   0  0  0  0  0  0  0  0  0  0  0  0
    1.0392    0.0000    0.0000 C   0  0  0  0  0  0  0  0  0  0  0  0
    1.0392    0.8250    0.0000 C   0  0  0  0  0  0  0  0  0  0  0  0
    0.3248    2.0625    0.0000 N   0  0  0  0  0  0  0  0  0  0  0  0
   -0.3897    2.4750    0.0000 C   0  0  0  0  0  0  0  0  0  0  0  0
    1.0392    2.4750    0.0000 C   0  0  0  0  0  0  0  0  0  0  0  0
    1.0392    3.3000    0.0000 O   0  0  0  0  0  0  0  0  0  0  0  0
    1.7537    2.0625    0.0000 C   0  0  0  0  0  0  0  0  0  0  0  0
  2  1  1  0  0  0  0
  3  2  2  0  0  0  0
  4  3  1  0  0  0  0
  5  4  2  0  0  0  0
  6  5  1  0  0  0  0
  1  6  2  0  0  0  0
  1  7  1  0  0  0  0
  7  8  1  0  0  0  0
  7  9  1  0  0  0  0
  9 10  2  0  0  0  0
  9 11  1  0  0  0  0
M  END
> <ChemID>
100369

> <CAS>
579-10-2

> <Original_SMILES>
CC(=O)N(C)c1ccccc1

> <preferred_name>
Acetamide, N-methyl-N-phenyl-

> <dsstox_substance_id>
DTXSID8060373

> <dsstox_compound_id>
DTXCID7042279

> <qc_level>
Public_High

> <Canonical_QSARr>
CC(=O)N(C)C1C=CC=CC=1

> <InChI_Code_QSARr>
InChI=1S/C9H11NO/c1-8(11)10(2)9-6-4-3-5-7-9/h3-7H,1-2H3

> <InChI Key_QSARr>
LMTGCJANOQOGPI-UHFFFAOYSA-N

> <Salt_Solvent>


> <Salt_Solvent_ID>
0

> <MPID>
98299

> <LogBCF>
0.18

> <Tr_1_Tst_0>
1

$$$$
100370
  Mrv171c012241911322D          

 10 11  0  0  0  0            999 V2000
   -0.0016   -0.8236    0.0000 S   0  0  0  0  0  0  0  0  0  0  0  0
    0.8234   -0.8236    0.0000 C   0  0  0  0  0  0  0  0  0  0  0  0
    1.3084   -0.1562    0.0000 N   0  0  0  0  0  0  0  0  0  0  0  0
    2.0930   -0.4111    0.0000 C   0  0  0  0  0  0  0  0  0  0  0  0
    2.8075    0.0014    0.0000 C   0  0  0  0  0  0  0  0  0  0  0  0
    3.5219   -0.4111    0.0000 C   0  0  0  0  0  0  0  0  0  0  0  0
    3.5219   -1.2361    0.0000 C   0  0  0  0  0  0  0  0  0  0  0  0
    2.8075   -1.6486    0.0000 C   0  0  0  0  0  0  0  0  0  0  0  0
    2.0930   -1.2361    0.0000 C   0  0  0  0  0  0  0  0  0  0  0  0
    1.3084   -1.4911    0.0000 N   0  0  0  0  0  0  0  0  0  0  0  0
  1  2  2  0  0  0  0
  3  2  1  0  0  0  0
  4  3  1  0  0  0  0
  4  5  2  0  0  0  0
  5  6  1  0  0  0  0
  6  7  2  0  0  0  0
  7  8  1  0  0  0  0
  8  9  2  0  0  0  0
  9  4  1  0  0  0  0
 10  9  1  0  0  0  0
  2 10  1  0  0  0  0
M  END
> <ChemID>
100370

> <CAS>
583-39-1

> <Original_SMILES>
S=C1Nc2ccccc2N1

> <preferred_name>
2-Mercaptobenzimidazole

> <dsstox_substance_id>
DTXSID9025536

> <dsstox_compound_id>
DTXCID805536

> <qc_level>
DSSTox_Low

> <Canonical_QSARr>
S=C1NC2=CC=CC=C2N1

> <InChI_Code_QSARr>
InChI=1S/C7H6N2S/c10-7-8-5-3-1-2-4-6(5)9-7/h1-4H,(H2,8,9,10)

> <InChI Key_QSARr>
YHMYGUUIMTVXNW-UHFFFAOYSA-N

> <Salt_Solvent>


> <Salt_Solvent_ID>
0

> <MPID>
98300

> <LogBCF>
0.41

> <Tr_1_Tst_0>
1

$$$$
100371
  Mrv171c012241911322D          

  9  9  0  0  0  0            999 V2000
    2.8587   -0.1833    0.0000 O   0  0  0  0  0  0  0  0  0  0  0  0
    2.1442   -0.5958    0.0000 C   0  0  0  0  0  0  0  0  0  0  0  0
    1.4298   -0.1833    0.0000 C   0  0  0  0  0  0  0  0  0  0  0  0
    1.4298    0.6417    0.0000 Cl  0  0  0  0  0  0  0  0  0  0  0  0
    0.7153   -0.5958    0.0000 C   0  0  0  0  0  0  0  0  0  0  0  0
    0.7153   -1.4208    0.0000 C   0  0  0  0  0  0  0  0  0  0  0  0
    1.4298   -1.8333    0.0000 C   0  0  0  0  0  0  0  0  0  0  0  0
    1.4298   -2.6583    0.0000 Cl  0  0  0  0  0  0  0  0  0  0  0  0
    2.1442   -1.4208    0.0000 C   0  0  0  0  0  0  0  0  0  0  0  0
  1  2  1  0  0  0  0
  3  2  1  0  0  0  0
  3  4  1  0  0  0  0
  5  3  2  0  0  0  0
  6  5  1  0  0  0  0
  7  6  2  0  0  0  0
  7  8  1  0  0  0  0
  9  7  1  0  0  0  0
  2  9  2  0  0  0  0
M  END
> <ChemID>
100371

> <CAS>
583-78-8

> <Original_SMILES>
Oc1cc(Cl)ccc1Cl

> <preferred_name>
2,5-Dichlorophenol

> <dsstox_substance_id>
DTXSID7025003

> <dsstox_compound_id>
DTXCID705003

> <qc_level>
DSSTox_Low

> <Canonical_QSARr>
OC1=CC(Cl)=CC=C1Cl

> <InChI_Code_QSARr>
InChI=1S/C6H4Cl2O/c7-4-1-2-5(8)6(9)3-4/h1-3,9H

> <InChI Key_QSARr>
RANCECPPZPIPNO-UHFFFAOYSA-N

> <Salt_Solvent>


> <Salt_Solvent_ID>
0

> <MPID>
98301

> <LogBCF>
1.01

> <Tr_1_Tst_0>
1

$$$$
100372
  Mrv171c012241911322D          

  8  8  0  0  0  0            999 V2000
    1.4289    0.8250    0.0000 C   0  0  0  0  0  0  0  0  0  0  0  0
    0.7145    1.2375    0.0000 C   0  0  0  0  0  0  0  0  0  0  0  0
    0.7145    2.0625    0.0000 Br  0  0  0  0  0  0  0  0  0  0  0  0
   -0.0000    0.8250    0.0000 C   0  0  0  0  0  0  0  0  0  0  0  0
   -0.0000    0.0000    0.0000 C   0  0  0  0  0  0  0  0  0  0  0  0
    0.7145   -0.4125    0.0000 C   0  0  0  0  0  0  0  0  0  0  0  0
    1.4289   -0.0000    0.0000 C   0  0  0  0  0  0  0  0  0  0  0  0
    2.1434   -0.4125    0.0000 O   0  0  0  0  0  0  0  0  0  0  0  0
  2  1  1  0  0  0  0
  2  3  1  0  0  0  0
  4  2  2  0  0  0  0
  5  4  1  0  0  0  0
  6  5  2  0  0  0  0
  7  6  1  0  0  0  0
  1  7  2  0  0  0  0
  7  8  1  0  0  0  0
M  END
> <ChemID>
100372

> <CAS>
591-20-8

> <Original_SMILES>
Oc1cc(Br)ccc1

> <preferred_name>
Phenol, 3-bromo-

> <dsstox_substance_id>
DTXSID9060449

> <dsstox_compound_id>
DTXCID4042541

> <qc_level>
Public_High

> <Canonical_QSARr>
OC1=CC(Br)=CC=C1

> <InChI_Code_QSARr>
InChI=1S/C6H5BrO/c7-5-2-1-3-6(8)4-5/h1-4,8H

> <InChI Key_QSARr>
MNOJRWOWILAHAV-UHFFFAOYSA-N

> <Salt_Solvent>


> <Salt_Solvent_ID>
0

> <MPID>
98302

> <LogBCF>
1.18

> <Tr_1_Tst_0>
0

$$$$
100373
  Mrv171c012241911322D          

  8  8  0  0  0  0            999 V2000
    2.6801   -1.9594    0.0000 O   0  0  0  0  0  0  0  0  0  0  0  0
    1.9657   -1.5469    0.0000 C   0  0  0  0  0  0  0  0  0  0  0  0
    1.9657   -0.7219    0.0000 C   0  0  0  0  0  0  0  0  0  0  0  0
    1.2512   -0.3094    0.0000 C   0  0  0  0  0  0  0  0  0  0  0  0
    1.2512    0.5156    0.0000 N   0  0  0  0  0  0  0  0  0  0  0  0
    0.5367   -0.7219    0.0000 C   0  0  0  0  0  0  0  0  0  0  0  0
    0.5367   -1.5469    0.0000 C   0  0  0  0  0  0  0  0  0  0  0  0
    1.2512   -1.9594    0.0000 C   0  0  0  0  0  0  0  0  0  0  0  0
  1  2  1  0  0  0  0
  3  2  1  0  0  0  0
  4  3  2  0  0  0  0
  4  5  1  0  0  0  0
  6  4  1  0  0  0  0
  7  6  2  0  0  0  0
  8  7  1  0  0  0  0
  2  8  2  0  0  0  0
M  END
> <ChemID>
100373

> <CAS>
591-27-5

> <Original_SMILES>
Nc1cc(O)ccc1

> <preferred_name>
3-Aminophenol

> <dsstox_substance_id>
DTXSID3024497

> <dsstox_compound_id>
DTXCID704497

> <qc_level>
DSSTox_Low

> <Canonical_QSARr>
NC1=CC(O)=CC=C1

> <InChI_Code_QSARr>
InChI=1S/C6H7NO/c7-5-2-1-3-6(8)4-5/h1-4,8H,7H2

> <InChI Key_QSARr>
CWLKGDAVCFYWJK-UHFFFAOYSA-N

> <Salt_Solvent>


> <Salt_Solvent_ID>
0

> <MPID>
98303

> <LogBCF>
1.34

> <Tr_1_Tst_0>
1

$$$$
100374
  Mrv171c012241911322D          

  9  9  0  0  0  0            999 V2000
    2.3656   -1.8422    0.0000 C   0  0  0  0  0  0  0  0  0  0  0  0
    3.0801   -2.2547    0.0000 O   0  0  0  0  0  0  0  0  0  0  0  0
    2.3656   -1.0172    0.0000 C   0  0  0  0  0  0  0  0  0  0  0  0
    1.6512   -0.6047    0.0000 C   0  0  0  0  0  0  0  0  0  0  0  0
    1.6512    0.2203    0.0000 Cl  0  0  0  0  0  0  0  0  0  0  0  0
    0.9367   -1.0172    0.0000 C   0  0  0  0  0  0  0  0  0  0  0  0
    0.9367   -1.8422    0.0000 C   0  0  0  0  0  0  0  0  0  0  0  0
    0.2222   -2.2547    0.0000 Cl  0  0  0  0  0  0  0  0  0  0  0  0
    1.6512   -2.2547    0.0000 C   0  0  0  0  0  0  0  0  0  0  0  0
  1  2  1  0  0  0  0
  3  1  2  0  0  0  0
  4  3  1  0  0  0  0
  4  5  1  0  0  0  0
  6  4  2  0  0  0  0
  7  6  1  0  0  0  0
  7  8  1  0  0  0  0
  9  7  2  0  0  0  0
  1  9  1  0  0  0  0
M  END
> <ChemID>
100374

> <CAS>
591-35-5

> <Original_SMILES>
Oc1cc(Cl)cc(Cl)c1

> <preferred_name>
3,5-Dichlorophenol

> <dsstox_substance_id>
DTXSID2025006

> <dsstox_compound_id>
DTXCID905006

> <qc_level>
DSSTox_Low

> <Canonical_QSARr>
OC1C=C(Cl)C=C(Cl)C=1

> <InChI_Code_QSARr>
InChI=1S/C6H4Cl2O/c7-4-1-5(8)3-6(9)2-4/h1-3,9H

> <InChI Key_QSARr>
VPOMSPZBQMDLTM-UHFFFAOYSA-N

> <Salt_Solvent>


> <Salt_Solvent_ID>
0

> <MPID>
98304

> <LogBCF>
1.91

> <Tr_1_Tst_0>
1

$$$$
100375
  Mrv171c012241911322D          

 15 15  0  0  0  0            999 V2000
    0.6192   -1.2375    0.0000 O   0  0  0  0  0  0  0  0  0  0  0  0
    0.6192   -0.4125    0.0000 C   0  0  0  0  0  0  0  0  0  0  0  0
    1.3337    0.0000    0.0000 C   0  0  0  0  0  0  0  0  0  0  0  0
    2.0481   -0.4125    0.0000 C   0  0  0  0  0  0  0  0  0  0  0  0
    2.7626   -0.0000    0.0000 C   0  0  0  0  0  0  0  0  0  0  0  0
    2.7626    0.8250    0.0000 C   0  0  0  0  0  0  0  0  0  0  0  0
    2.0481    1.2375    0.0000 C   0  0  0  0  0  0  0  0  0  0  0  0
    2.0481    2.0625    0.0000 N   0  3  0  0  0  0  0  0  0  0  0  0
    1.3337    2.4750    0.0000 O   0  0  0  0  0  0  0  0  0  0  0  0
    2.7626    2.4750    0.0000 O   0  5  0  0  0  0  0  0  0  0  0  0
    1.3337    0.8250    0.0000 C   0  0  0  0  0  0  0  0  0  0  0  0
    0.6192    1.2375    0.0000 C   0  0  0  0  0  0  0  0  0  0  0  0
   -0.0953    0.8250    0.0000 O   0  0  0  0  0  0  0  0  0  0  0  0
    0.6192    2.0625    0.0000 O   0  0  0  0  0  0  0  0  0  0  0  0
   -0.0953    0.0000    0.0000 O   0  0  0  0  0  0  0  0  0  0  0  0
  1  2  2  0  0  0  0
  2  3  1  0  0  0  0
  4  3  1  0  0  0  0
  5  4  2  0  0  0  0
  6  5  1  0  0  0  0
  7  6  2  0  0  0  0
  7  8  1  0  0  0  0
  8  9  2  0  0  0  0
  8 10  1  0  0  0  0
 11  7  1  0  0  0  0
  3 11  2  0  0  0  0
 11 12  1  0  0  0  0
 12 13  1  0  0  0  0
 12 14  2  0  0  0  0
  2 15  1  0  0  0  0
M  CHG  2   8   1  10  -1
M  END
> <ChemID>
100375

> <CAS>
603-11-2

> <Original_SMILES>
[O-][N+](=O)c1cccc(c1C(O)=O)C(O)=O

> <preferred_name>
3-Nitrophthalic acid

> <dsstox_substance_id>
DTXSID9060528

> <dsstox_compound_id>
DTXCID1042786

> <qc_level>
Public_High

> <Canonical_QSARr>
[O-][N+](=O)C1=CC=CC(=C1C(O)=O)C(O)=O

> <InChI_Code_QSARr>
InChI=1S/C8H5NO6/c10-7(11)4-2-1-3-5(9(14)15)6(4)8(12)13/h1-3H,(H,10,11)(H,12,13)

> <InChI Key_QSARr>
KFIRODWJCYBBHY-UHFFFAOYSA-N

> <Salt_Solvent>


> <Salt_Solvent_ID>
0

> <MPID>
98305

> <LogBCF>
0.72

> <Tr_1_Tst_0>
1

$$$$
100376
  Mrv171c012241911322D          

 13 13  0  0  0  0            999 V2000
    3.0758   -0.8542    0.0000 C   0  0  0  0  0  0  0  0  0  0  0  0
    2.3614   -1.2667    0.0000 C   0  0  0  0  0  0  0  0  0  0  0  0
    1.6469   -0.8542    0.0000 C   0  0  0  0  0  0  0  0  0  0  0  0
    1.6469   -0.0292    0.0000 N   0  3  0  0  0  0  0  0  0  0  0  0
    0.9324    0.3833    0.0000 O   0  5  0  0  0  0  0  0  0  0  0  0
    2.3614    0.3833    0.0000 O   0  0  0  0  0  0  0  0  0  0  0  0
    0.9324   -1.2667    0.0000 C   0  0  0  0  0  0  0  0  0  0  0  0
    0.9324   -2.0917    0.0000 C   0  0  0  0  0  0  0  0  0  0  0  0
    1.6469   -2.5042    0.0000 C   0  0  0  0  0  0  0  0  0  0  0  0
    2.3614   -2.0917    0.0000 C   0  0  0  0  0  0  0  0  0  0  0  0
    3.0758   -2.5042    0.0000 N   0  3  0  0  0  0  0  0  0  0  0  0
    3.7903   -2.0917    0.0000 O   0  5  0  0  0  0  0  0  0  0  0  0
    3.0758   -3.3292    0.0000 O   0  0  0  0  0  0  0  0  0  0  0  0
  1  2  1  0  0  0  0
  3  2  1  0  0  0  0
  3  4  1  0  0  0  0
  4  5  1  0  0  0  0
  4  6  2  0  0  0  0
  7  3  2  0  0  0  0
  8  7  1  0  0  0  0
  9  8  2  0  0  0  0
 10  9  1  0  0  0  0
  2 10  2  0  0  0  0
 10 11  1  0  0  0  0
 11 12  1  0  0  0  0
 11 13  2  0  0  0  0
M  CHG  4   4   1   5  -1  11   1  12  -1
M  END
> <ChemID>
100376

> <CAS>
606-20-2

> <Original_SMILES>
Cc1c(cccc1[N+]([O-])=O)[N+]([O-])=O

> <preferred_name>
2,6-Dinitrotoluene

> <dsstox_substance_id>
DTXSID5020528

> <dsstox_compound_id>
DTXCID30528

> <qc_level>
DSSTox_Low

> <Canonical_QSARr>
CC1C(=CC=CC=1[N+]([O-])=O)[N+]([O-])=O

> <InChI_Code_QSARr>
InChI=1S/C7H6N2O4/c1-5-6(8(10)11)3-2-4-7(5)9(12)13/h2-4H,1H3

> <InChI Key_QSARr>
XTRDKALNCIHHNI-UHFFFAOYSA-N

> <Salt_Solvent>


> <Salt_Solvent_ID>
0

> <MPID>
98306

> <LogBCF>
1.34

> <Tr_1_Tst_0>
0

$$$$
100377
  Mrv171c012241911322D          

 18 19  0  0  0  0            999 V2000
    2.5403   -0.5500    0.0000 C   0  0  0  0  0  0  0  0  0  0  0  0
    1.8259   -0.9625    0.0000 C   0  0  0  0  0  0  0  0  0  0  0  0
    1.1114   -0.5500    0.0000 O   0  0  0  0  0  0  0  0  0  0  0  0
    1.8259   -1.7875    0.0000 C   0  0  0  0  0  0  0  0  0  0  0  0
    1.1114   -2.2000    0.0000 C   0  0  0  0  0  0  0  0  0  0  0  0
    1.1114   -3.0250    0.0000 C   0  0  0  0  0  0  0  0  0  0  0  0
    1.8259   -3.4375    0.0000 C   0  0  0  0  0  0  0  0  0  0  0  0
    2.5403   -3.0250    0.0000 C   0  0  0  0  0  0  0  0  0  0  0  0
    2.5403   -2.2000    0.0000 C   0  0  0  0  0  0  0  0  0  0  0  0
    3.2548   -0.9625    0.0000 C   0  0  0  0  0  0  0  0  0  0  0  0
    3.9693   -0.5500    0.0000 C   0  0  0  0  0  0  0  0  0  0  0  0
    3.9693    0.2750    0.0000 C   0  0  0  0  0  0  0  0  0  0  0  0
    3.2548    0.6875    0.0000 C   0  0  0  0  0  0  0  0  0  0  0  0
    2.5403    0.2750    0.0000 C   0  0  0  0  0  0  0  0  0  0  0  0
    1.8259    0.6875    0.0000 C   0  0  0  0  0  0  0  0  0  0  0  0
    1.1114    0.2750    0.0000 O   0  0  0  0  0  0  0  0  0  0  0  0
    1.8259    1.5125    0.0000 O   0  0  0  0  0  0  0  0  0  0  0  0
    1.1114    1.9250    0.0000 C   0  0  0  0  0  0  0  0  0  0  0  0
  1  2  1  0  0  0  0
  2  3  2  0  0  0  0
  2  4  1  0  0  0  0
  5  4  1  0  0  0  0
  6  5  2  0  0  0  0
  7  6  1  0  0  0  0
  8  7  2  0  0  0  0
  9  8  1  0  0  0  0
  4  9  2  0  0  0  0
 10  1  1  0  0  0  0
 11 10  2  0  0  0  0
 12 11  1  0  0  0  0
 13 12  2  0  0  0  0
 14 13  1  0  0  0  0
  1 14  2  0  0  0  0
 14 15  1  0  0  0  0
 15 16  2  0  0  0  0
 15 17  1  0  0  0  0
 17 18  1  0  0  0  0
M  END
> <ChemID>
100377

> <CAS>
606-28-0

> <Original_SMILES>
COC(=O)c1ccccc1C(=O)c1ccccc1

> <preferred_name>
Methyl o-benzoylbenzoate

> <dsstox_substance_id>
DTXSID2060549

> <dsstox_compound_id>
DTXCID8042840

> <qc_level>
Public_High

> <Canonical_QSARr>
COC(=O)C1C=CC=CC=1C(=O)C1C=CC=CC=1

> <InChI_Code_QSARr>
InChI=1S/C15H12O3/c1-18-15(17)13-10-6-5-9-12(13)14(16)11-7-3-2-4-8-11/h2-10H,1H3

> <InChI Key_QSARr>
NQSMEZJWJJVYOI-UHFFFAOYSA-N

> <Salt_Solvent>


> <Salt_Solvent_ID>
0

> <MPID>
98307

> <LogBCF>
1.15

> <Tr_1_Tst_0>
1

$$$$
100379
  Mrv171c012241911322D          

 11 11  0  0  0  0            999 V2000
    2.2661   -1.3099    0.0000 C   0  0  0  0  0  0  0  0  0  0  0  0
    2.9805   -1.7224    0.0000 Cl  0  0  0  0  0  0  0  0  0  0  0  0
    2.2661   -0.4849    0.0000 C   0  0  0  0  0  0  0  0  0  0  0  0
    1.5516   -0.0724    0.0000 C   0  0  0  0  0  0  0  0  0  0  0  0
    1.5516    0.7526    0.0000 Cl  0  0  0  0  0  0  0  0  0  0  0  0
    0.8371   -0.4849    0.0000 C   0  0  0  0  0  0  0  0  0  0  0  0
    0.1226   -0.0724    0.0000 Cl  0  0  0  0  0  0  0  0  0  0  0  0
    0.8371   -1.3099    0.0000 C   0  0  0  0  0  0  0  0  0  0  0  0
    0.1226   -1.7224    0.0000 Cl  0  0  0  0  0  0  0  0  0  0  0  0
    1.5516   -1.7224    0.0000 C   0  0  0  0  0  0  0  0  0  0  0  0
    1.5516   -2.5474    0.0000 Cl  0  0  0  0  0  0  0  0  0  0  0  0
  1  2  1  0  0  0  0
  3  1  2  0  0  0  0
  4  3  1  0  0  0  0
  4  5  1  0  0  0  0
  6  4  2  0  0  0  0
  6  7  1  0  0  0  0
  8  6  1  0  0  0  0
  8  9  1  0  0  0  0
 10  8  2  0  0  0  0
  1 10  1  0  0  0  0
 10 11  1  0  0  0  0
M  END
> <ChemID>
100379

> <CAS>
608-93-5

> <Original_SMILES>
Clc1c(Cl)c(Cl)cc(Cl)c1Cl

> <preferred_name>
Pentachlorobenzene

> <dsstox_substance_id>
DTXSID7024247

> <dsstox_compound_id>
DTXCID804247

> <qc_level>
DSSTox_Low

> <Canonical_QSARr>
ClC1=CC(Cl)=C(Cl)C(Cl)=C1Cl

> <InChI_Code_QSARr>
InChI=1S/C6HCl5/c7-2-1-3(8)5(10)6(11)4(2)9/h1H

> <InChI Key_QSARr>
CEOCDNVZRAIOQZ-UHFFFAOYSA-N

> <Salt_Solvent>


> <Salt_Solvent_ID>
0

> <MPID>
98309

> <LogBCF>
3.75

> <Tr_1_Tst_0>
1

$$$$
100380
  Mrv171c012241911322D          

 12 12  0  0  0  0            999 V2000
    5.1295   -0.7219    0.0000 Cl  0  0  0  0  0  0  0  0  0  0  0  0
    4.4150   -0.3094    0.0000 C   0  0  0  0  0  0  0  0  0  0  0  0
    4.4150    0.5156    0.0000 C   0  0  0  0  0  0  0  0  0  0  0  0
    3.7006    0.9281    0.0000 C   0  0  0  0  0  0  0  0  0  0  0  0
    3.7006    1.7531    0.0000 Cl  0  0  0  0  0  0  0  0  0  0  0  0
    2.9861    0.5156    0.0000 C   0  0  0  0  0  0  0  0  0  0  0  0
    2.9861   -0.3094    0.0000 C   0  0  0  0  0  0  0  0  0  0  0  0
    2.2716   -0.7219    0.0000 N   0  3  0  0  0  0  0  0  0  0  0  0
    2.2716   -1.5469    0.0000 O   0  0  0  0  0  0  0  0  0  0  0  0
    1.5571   -0.3094    0.0000 O   0  5  0  0  0  0  0  0  0  0  0  0
    3.7006   -0.7219    0.0000 C   0  0  0  0  0  0  0  0  0  0  0  0
    3.7006   -1.5469    0.0000 O   0  0  0  0  0  0  0  0  0  0  0  0
  1  2  1  0  0  0  0
  3  2  1  0  0  0  0
  4  3  2  0  0  0  0
  4  5  1  0  0  0  0
  6  4  1  0  0  0  0
  7  6  2  0  0  0  0
  7  8  1  0  0  0  0
  8  9  2  0  0  0  0
  8 10  1  0  0  0  0
 11  7  1  0  0  0  0
  2 11  2  0  0  0  0
 11 12  1  0  0  0  0
M  CHG  2   8   1  10  -1
M  END
> <ChemID>
100380

> <CAS>
609-89-2

> <Original_SMILES>
[O-][N+](=O)c1cc(Cl)cc(Cl)c1O

> <preferred_name>
Phenol, 2,4-dichloro-6-nitro-

> <dsstox_substance_id>
DTXSID00209738

> <dsstox_compound_id>
DTXCID50132229

> <qc_level>
Public_Medium

> <Canonical_QSARr>
[O-][N+](=O)C1=CC(Cl)=CC(Cl)=C1O

> <InChI_Code_QSARr>
InChI=1S/C6H3Cl2NO3/c7-3-1-4(8)6(10)5(2-3)9(11)12/h1-2,10H

> <InChI Key_QSARr>
LYPMXMBQPXPNIQ-UHFFFAOYSA-N

> <Salt_Solvent>


> <Salt_Solvent_ID>
0

> <MPID>
98310

> <LogBCF>
1.32

> <Tr_1_Tst_0>
1

$$$$
100381
  Mrv171c012241911322D          

 13 13  0  0  0  0            999 V2000
    2.1927   -1.7150    0.0000 C   0  0  0  0  0  0  0  0  0  0  0  0
    2.9071   -1.3025    0.0000 N   0  3  0  0  0  0  0  0  0  0  0  0
    3.6216   -1.7150    0.0000 O   0  0  0  0  0  0  0  0  0  0  0  0
    2.9071   -0.4775    0.0000 O   0  5  0  0  0  0  0  0  0  0  0  0
    1.4782   -1.3025    0.0000 C   0  0  0  0  0  0  0  0  0  0  0  0
    1.4782   -0.4775    0.0000 N   0  3  0  0  0  0  0  0  0  0  0  0
    0.7637   -0.0650    0.0000 O   0  0  0  0  0  0  0  0  0  0  0  0
    2.1927   -0.0650    0.0000 O   0  5  0  0  0  0  0  0  0  0  0  0
    0.7637   -1.7150    0.0000 C   0  0  0  0  0  0  0  0  0  0  0  0
    0.7637   -2.5400    0.0000 C   0  0  0  0  0  0  0  0  0  0  0  0
    0.0492   -2.9525    0.0000 C   0  0  0  0  0  0  0  0  0  0  0  0
    1.4782   -2.9525    0.0000 C   0  0  0  0  0  0  0  0  0  0  0  0
    2.1927   -2.5400    0.0000 C   0  0  0  0  0  0  0  0  0  0  0  0
  1  2  1  0  0  0  0
  2  3  2  0  0  0  0
  2  4  1  0  0  0  0
  5  1  1  0  0  0  0
  5  6  1  0  0  0  0
  6  7  2  0  0  0  0
  6  8  1  0  0  0  0
  9  5  2  0  0  0  0
 10  9  1  0  0  0  0
 10 11  1  0  0  0  0
 12 10  2  0  0  0  0
 13 12  1  0  0  0  0
  1 13  2  0  0  0  0
M  CHG  4   2   1   4  -1   6   1   8  -1
M  END
> <ChemID>
100381

> <CAS>
610-39-9

> <Original_SMILES>
Cc1cc(c(cc1)[N+]([O-])=O)[N+]([O-])=O

> <preferred_name>
3,4-Dinitrotoluene

> <dsstox_substance_id>
DTXSID8027240

> <dsstox_compound_id>
DTXCID307240

> <qc_level>
DSSTox_Low

> <Canonical_QSARr>
CC1C=C(C(=CC=1)[N+]([O-])=O)[N+]([O-])=O

> <InChI_Code_QSARr>
InChI=1S/C7H6N2O4/c1-5-2-3-6(8(10)11)7(4-5)9(12)13/h2-4H,1H3

> <InChI Key_QSARr>
INYDMNPNDHRJQJ-UHFFFAOYSA-N

> <Salt_Solvent>


> <Salt_Solvent_ID>
0

> <MPID>
98311

> <LogBCF>
0.48

> <Tr_1_Tst_0>
0

$$$$
100382
  Mrv171c012241911322D          

 11 11  0  0  0  0            999 V2000
    3.2006   -0.8085    0.0000 N   0  3  0  0  0  0  0  0  0  0  0  0
    2.4861   -1.2210    0.0000 C   0  0  0  0  0  0  0  0  0  0  0  0
    1.7716   -0.8085    0.0000 C   0  0  0  0  0  0  0  0  0  0  0  0
    1.7716    0.0165    0.0000 Cl  0  0  0  0  0  0  0  0  0  0  0  0
    1.0572   -1.2210    0.0000 C   0  0  0  0  0  0  0  0  0  0  0  0
    1.0572   -2.0460    0.0000 C   0  0  0  0  0  0  0  0  0  0  0  0
    0.3427   -2.4585    0.0000 Cl  0  0  0  0  0  0  0  0  0  0  0  0
    1.7716   -2.4585    0.0000 C   0  0  0  0  0  0  0  0  0  0  0  0
    2.4861   -2.0460    0.0000 C   0  0  0  0  0  0  0  0  0  0  0  0
    3.2006    0.0165    0.0000 O   0  5  0  0  0  0  0  0  0  0  0  0
    3.9150   -1.2210    0.0000 O   0  0  0  0  0  0  0  0  0  0  0  0
  1  2  1  0  0  0  0
  3  2  1  0  0  0  0
  3  4  1  0  0  0  0
  5  3  2  0  0  0  0
  6  5  1  0  0  0  0
  6  7  1  0  0  0  0
  8  6  2  0  0  0  0
  9  8  1  0  0  0  0
  2  9  2  0  0  0  0
  1 10  1  0  0  0  0
  1 11  2  0  0  0  0
M  CHG  2   1   1  10  -1
M  END
> <ChemID>
100382

> <CAS>
611-06-3

> <Original_SMILES>
[O-][N+](=O)c1ccc(Cl)cc1Cl

> <preferred_name>
2,4-Dichloronitrobenzene

> <dsstox_substance_id>
DTXSID3024998

> <dsstox_compound_id>
DTXCID104998

> <qc_level>
DSSTox_Low

> <Canonical_QSARr>
[O-][N+](=O)C1=CC=C(Cl)C=C1Cl

> <InChI_Code_QSARr>
InChI=1S/C6H3Cl2NO2/c7-4-1-2-6(9(10)11)5(8)3-4/h1-3H

> <InChI Key_QSARr>
QUIMTLZDMCNYGY-UHFFFAOYSA-N

> <Salt_Solvent>


> <Salt_Solvent_ID>
0

> <MPID>
98312

> <LogBCF>
2.07

> <Tr_1_Tst_0>
1

$$$$
100383
  Mrv171c012241911322D          

  9  9  0  0  0  0            999 V2000
   -0.3175    1.2833    0.0000 N   0  0  0  0  0  0  0  0  0  0  0  0
   -0.3175    2.1083    0.0000 C   0  0  0  0  0  0  0  0  0  0  0  0
    0.3969    0.8708    0.0000 C   0  0  0  0  0  0  0  0  0  0  0  0
    0.3969    0.0458    0.0000 C   0  0  0  0  0  0  0  0  0  0  0  0
    1.1114   -0.3667    0.0000 C   0  0  0  0  0  0  0  0  0  0  0  0
    1.8259    0.0458    0.0000 C   0  0  0  0  0  0  0  0  0  0  0  0
    1.8259    0.8708    0.0000 C   0  0  0  0  0  0  0  0  0  0  0  0
    1.1114    1.2833    0.0000 C   0  0  0  0  0  0  0  0  0  0  0  0
    1.1114    2.1083    0.0000 C   0  0  0  0  0  0  0  0  0  0  0  0
  1  2  1  0  0  0  0
  1  3  1  0  0  0  0
  4  3  1  0  0  0  0
  5  4  2  0  0  0  0
  6  5  1  0  0  0  0
  7  6  2  0  0  0  0
  8  7  1  0  0  0  0
  3  8  2  0  0  0  0
  8  9  1  0  0  0  0
M  END
> <ChemID>
100383

> <CAS>
611-21-2

> <Original_SMILES>
Cc1ccccc1NC

> <preferred_name>
Benzenamine, N,2-dimethyl-

> <dsstox_substance_id>
DTXSID4060600

> <dsstox_compound_id>
DTXCID9042964

> <qc_level>
Public_High

> <Canonical_QSARr>
CC1C=CC=CC=1NC

> <InChI_Code_QSARr>
InChI=1S/C8H11N/c1-7-5-3-4-6-8(7)9-2/h3-6,9H,1-2H3

> <InChI Key_QSARr>
GUAWMXYQZKVRCW-UHFFFAOYSA-N

> <Salt_Solvent>


> <Salt_Solvent_ID>
0

> <MPID>
98313

> <LogBCF>
0.95

> <Tr_1_Tst_0>
1

$$$$
100384
  Mrv171c012241911322D          

 11 11  0  0  0  0            999 V2000
    2.0135    0.7875    0.0000 C   0  0  0  0  0  0  0  0  0  0  0  0
    1.2990    1.2000    0.0000 C   0  0  0  0  0  0  0  0  0  0  0  0
    0.5846    0.7875    0.0000 C   0  0  0  0  0  0  0  0  0  0  0  0
   -0.1299    1.2000    0.0000 C   0  0  0  0  0  0  0  0  0  0  0  0
   -0.1299    2.0250    0.0000 N   0  3  0  0  0  0  0  0  0  0  0  0
   -0.8444    2.4375    0.0000 O   0  0  0  0  0  0  0  0  0  0  0  0
    0.5846    2.4375    0.0000 O   0  5  0  0  0  0  0  0  0  0  0  0
   -0.8444    0.7875    0.0000 C   0  0  0  0  0  0  0  0  0  0  0  0
   -0.8444   -0.0375    0.0000 C   0  0  0  0  0  0  0  0  0  0  0  0
   -0.1299   -0.4500    0.0000 C   0  0  0  0  0  0  0  0  0  0  0  0
    0.5846   -0.0375    0.0000 C   0  0  0  0  0  0  0  0  0  0  0  0
  1  2  1  0  0  0  0
  2  3  1  0  0  0  0
  4  3  1  0  0  0  0
  4  5  1  0  0  0  0
  5  6  2  0  0  0  0
  5  7  1  0  0  0  0
  8  4  2  0  0  0  0
  9  8  1  0  0  0  0
 10  9  2  0  0  0  0
 11 10  1  0  0  0  0
  3 11  2  0  0  0  0
M  CHG  2   5   1   7  -1
M  END
> <ChemID>
100384

> <CAS>
612-22-6

> <Original_SMILES>
CCc1ccccc1[N+]([O-])=O

> <preferred_name>
Benzene, 1-ethyl-2-nitro-

> <dsstox_substance_id>
DTXSID4073209

> <dsstox_compound_id>
DTXCID7042980

> <qc_level>
Public_High

> <Canonical_QSARr>
CCC1=CC=CC=C1[N+]([O-])=O

> <InChI_Code_QSARr>
InChI=1S/C8H9NO2/c1-2-7-5-3-4-6-8(7)9(10)11/h3-6H,2H2,1H3

> <InChI Key_QSARr>
PXWYZLWEKCMTEZ-UHFFFAOYSA-N

> <Salt_Solvent>


> <Salt_Solvent_ID>
0

> <MPID>
98314

> <LogBCF>
1.11

> <Tr_1_Tst_0>
1

$$$$
100385
  Mrv171c012241911322D          

  9  9  0  0  0  0            999 V2000
    2.8624   -2.4742    0.0000 Br  0  0  0  0  0  0  0  0  0  0  0  0
    2.1479   -2.0617    0.0000 C   0  0  0  0  0  0  0  0  0  0  0  0
    2.1479   -1.2367    0.0000 C   0  0  0  0  0  0  0  0  0  0  0  0
    1.4334   -0.8242    0.0000 C   0  0  0  0  0  0  0  0  0  0  0  0
    1.4334    0.0008    0.0000 Br  0  0  0  0  0  0  0  0  0  0  0  0
    0.7190   -1.2367    0.0000 C   0  0  0  0  0  0  0  0  0  0  0  0
    0.0045   -0.8242    0.0000 Br  0  0  0  0  0  0  0  0  0  0  0  0
    0.7190   -2.0617    0.0000 C   0  0  0  0  0  0  0  0  0  0  0  0
    1.4334   -2.4742    0.0000 C   0  0  0  0  0  0  0  0  0  0  0  0
  1  2  1  0  0  0  0
  3  2  2  0  0  0  0
  4  3  1  0  0  0  0
  4  5  1  0  0  0  0
  6  4  2  0  0  0  0
  6  7  1  0  0  0  0
  8  6  1  0  0  0  0
  9  8  2  0  0  0  0
  2  9  1  0  0  0  0
M  END
> <ChemID>
100385

> <CAS>
615-54-3

> <Original_SMILES>
Brc1cc(Br)c(Br)cc1

> <preferred_name>
1,2,4-Tribromobenzene

> <dsstox_substance_id>
DTXSID5024346

> <dsstox_compound_id>
DTXCID604346

> <qc_level>
DSSTox_Low

> <Canonical_QSARr>
BrC1=CC(Br)=C(Br)C=C1

> <InChI_Code_QSARr>
InChI=1S/C6H3Br3/c7-4-1-2-5(8)6(9)3-4/h1-3H

> <InChI Key_QSARr>
FWAJPSIPOULHHH-UHFFFAOYSA-N

> <Salt_Solvent>


> <Salt_Solvent_ID>
0

> <MPID>
98315

> <LogBCF>
3.63

> <Tr_1_Tst_0>
0

$$$$
100386
  Mrv171c012241911322D          

  9  9  0  0  0  0            999 V2000
    3.0175   -1.9249    0.0000 C   0  0  0  0  0  0  0  0  0  0  0  0
    2.3030   -1.5124    0.0000 C   0  0  0  0  0  0  0  0  0  0  0  0
    2.3030   -0.6874    0.0000 C   0  0  0  0  0  0  0  0  0  0  0  0
    1.5885   -0.2749    0.0000 C   0  0  0  0  0  0  0  0  0  0  0  0
    1.5885    0.5501    0.0000 O   0  0  0  0  0  0  0  0  0  0  0  0
    0.8741   -0.6874    0.0000 C   0  0  0  0  0  0  0  0  0  0  0  0
    0.1596   -0.2749    0.0000 Cl  0  0  0  0  0  0  0  0  0  0  0  0
    0.8741   -1.5124    0.0000 C   0  0  0  0  0  0  0  0  0  0  0  0
    1.5885   -1.9249    0.0000 C   0  0  0  0  0  0  0  0  0  0  0  0
  1  2  1  0  0  0  0
  3  2  1  0  0  0  0
  4  3  2  0  0  0  0
  4  5  1  0  0  0  0
  6  4  1  0  0  0  0
  6  7  1  0  0  0  0
  8  6  2  0  0  0  0
  9  8  1  0  0  0  0
  2  9  2  0  0  0  0
M  END
> <ChemID>
100386

> <CAS>
615-74-7

> <Original_SMILES>
Cc1ccc(Cl)c(O)c1

> <preferred_name>
2-Chloro-5-methylphenol

> <dsstox_substance_id>
DTXSID1046558

> <dsstox_compound_id>
DTXCID9026558

> <qc_level>
DSSTox_Low

> <Canonical_QSARr>
CC1=CC=C(Cl)C(O)=C1

> <InChI_Code_QSARr>
InChI=1S/C7H7ClO/c1-5-2-3-6(8)7(9)4-5/h2-4,9H,1H3

> <InChI Key_QSARr>
SMFHPCZZAAMJJO-UHFFFAOYSA-N

> <Salt_Solvent>


> <Salt_Solvent_ID>
0

> <MPID>
98316

> <LogBCF>
0.67

> <Tr_1_Tst_0>
1

$$$$
100387
  Mrv171c012241911322D          

  6  6  0  0  0  0            999 V2000
    0.5678    1.1143    0.0000 C   0  0  0  0  0  0  0  0  0  0  0  0
    0.5678    1.9393    0.0000 C   0  0  0  0  0  0  0  0  0  0  0  0
   -0.0997    0.6294    0.0000 C   0  0  0  0  0  0  0  0  0  0  0  0
    0.1553   -0.1553    0.0000 S   0  0  0  0  0  0  0  0  0  0  0  0
    0.9803   -0.1553    0.0000 C   0  0  0  0  0  0  0  0  0  0  0  0
    1.2352    0.6294    0.0000 C   0  0  0  0  0  0  0  0  0  0  0  0
  1  2  1  0  0  0  0
  3  1  2  0  0  0  0
  4  3  1  0  0  0  0
  5  4  1  0  0  0  0
  6  5  2  0  0  0  0
  1  6  1  0  0  0  0
M  END
> <ChemID>
100387

> <CAS>
616-44-4

> <Original_SMILES>
Cc1c[s]cc1

> <preferred_name>
Thiophene, 3-methyl-

> <dsstox_substance_id>
DTXSID8060666

> <dsstox_compound_id>
DTXCID7043083

> <qc_level>
Public_High

> <Canonical_QSARr>
CC1=CSC=C1

> <InChI_Code_QSARr>
InChI=1S/C5H6S/c1-5-2-3-6-4-5/h2-4H,1H3

> <InChI Key_QSARr>
QENGPZGAWFQWCZ-UHFFFAOYSA-N

> <Salt_Solvent>


> <Salt_Solvent_ID>
0

> <MPID>
98317

> <LogBCF>
0.72

> <Tr_1_Tst_0>
1

$$$$
100388
  Mrv171c012241911322D          

 11 11  0  0  0  0            999 V2000
    1.1042    0.5625    0.0000 C   0  0  0  0  0  0  0  0  0  0  0  0
    1.8186    0.1500    0.0000 N   0  3  0  0  0  0  0  0  0  0  0  0
    1.8186   -0.6750    0.0000 O   0  5  0  0  0  0  0  0  0  0  0  0
    2.5331    0.5625    0.0000 O   0  0  0  0  0  0  0  0  0  0  0  0
    1.1042    1.3875    0.0000 C   0  0  0  0  0  0  0  0  0  0  0  0
    0.3897    1.8000    0.0000 C   0  0  0  0  0  0  0  0  0  0  0  0
    0.3897    2.6250    0.0000 Cl  0  0  0  0  0  0  0  0  0  0  0  0
   -0.3248    1.3875    0.0000 C   0  0  0  0  0  0  0  0  0  0  0  0
   -0.3248    0.5625    0.0000 C   0  0  0  0  0  0  0  0  0  0  0  0
   -1.0392    0.1500    0.0000 Cl  0  0  0  0  0  0  0  0  0  0  0  0
    0.3897    0.1500    0.0000 C   0  0  0  0  0  0  0  0  0  0  0  0
  1  2  1  0  0  0  0
  2  3  1  0  0  0  0
  2  4  2  0  0  0  0
  5  1  1  0  0  0  0
  6  5  2  0  0  0  0
  6  7  1  0  0  0  0
  8  6  1  0  0  0  0
  9  8  2  0  0  0  0
  9 10  1  0  0  0  0
 11  9  1  0  0  0  0
  1 11  2  0  0  0  0
M  CHG  2   2   1   3  -1
M  END
> <ChemID>
100388

> <CAS>
618-62-2

> <Original_SMILES>
[O-][N+](=O)c1cc(Cl)cc(Cl)c1

> <preferred_name>
Benzene, 1,3-dichloro-5-nitro-

> <dsstox_substance_id>
DTXSID1060683

> <dsstox_compound_id>
DTXCID5043134

> <qc_level>
Public_High

> <Canonical_QSARr>
[O-][N+](=O)C1C=C(Cl)C=C(Cl)C=1

> <InChI_Code_QSARr>
InChI=1S/C6H3Cl2NO2/c7-4-1-5(8)3-6(2-4)9(10)11/h1-3H

> <InChI Key_QSARr>
RNABGKOKSBUFHW-UHFFFAOYSA-N

> <Salt_Solvent>


> <Salt_Solvent_ID>
0

> <MPID>
98318

> <LogBCF>
2.23

> <Tr_1_Tst_0>
1

$$$$
100389
  Mrv171c012241911322D          

 10 10  0  0  0  0            999 V2000
    1.0003    0.5775    0.0000 C   0  0  0  0  0  0  0  0  0  0  0  0
    1.0003   -0.2475    0.0000 N   0  0  0  0  0  0  0  0  0  0  0  0
    0.2858   -0.6600    0.0000 C   0  0  0  0  0  0  0  0  0  0  0  0
    0.2858   -1.4850    0.0000 C   0  0  0  0  0  0  0  0  0  0  0  0
    1.7147    0.9900    0.0000 C   0  0  0  0  0  0  0  0  0  0  0  0
    1.7147    1.8150    0.0000 C   0  0  0  0  0  0  0  0  0  0  0  0
    1.0003    2.2275    0.0000 C   0  0  0  0  0  0  0  0  0  0  0  0
    1.0003    3.0525    0.0000 C   0  0  0  0  0  0  0  0  0  0  0  0
    0.2858    1.8150    0.0000 C   0  0  0  0  0  0  0  0  0  0  0  0
    0.2858    0.9900    0.0000 C   0  0  0  0  0  0  0  0  0  0  0  0
  1  2  1  0  0  0  0
  2  3  1  0  0  0  0
  3  4  1  0  0  0  0
  5  1  1  0  0  0  0
  6  5  2  0  0  0  0
  7  6  1  0  0  0  0
  7  8  1  0  0  0  0
  9  7  2  0  0  0  0
 10  9  1  0  0  0  0
  1 10  2  0  0  0  0
M  END
> <ChemID>
100389

> <CAS>
622-57-1

> <Original_SMILES>
Cc1ccc(cc1)NCC

> <preferred_name>
Benzenamine, N-ethyl-4-methyl-

> <dsstox_substance_id>
DTXSID7060754

> <dsstox_compound_id>
DTXCID5043269

> <qc_level>
Public_High

> <Canonical_QSARr>
CC1C=CC(=CC=1)NCC

> <InChI_Code_QSARr>
InChI=1S/C9H13N/c1-3-10-9-6-4-8(2)5-7-9/h4-7,10H,3H2,1-2H3

> <InChI Key_QSARr>
AASABFUMCBTXRL-UHFFFAOYSA-N

> <Salt_Solvent>


> <Salt_Solvent_ID>
0

> <MPID>
98319

> <LogBCF>
0.61

> <Tr_1_Tst_0>
0

$$$$
100390
  Mrv171c012241911322D          

  9  9  0  0  0  0            999 V2000
    1.1946   -2.4682    0.0000 C   0  0  0  0  0  0  0  0  0  0  0  0
    1.9091   -2.0557    0.0000 C   0  0  0  0  0  0  0  0  0  0  0  0
    1.9091   -1.2307    0.0000 C   0  0  0  0  0  0  0  0  0  0  0  0
    2.6236   -0.8182    0.0000 C   0  0  0  0  0  0  0  0  0  0  0  0
    2.6236    0.0068    0.0000 C   0  0  0  0  0  0  0  0  0  0  0  0
    1.9091    0.4193    0.0000 C   0  0  0  0  0  0  0  0  0  0  0  0
    1.9091    1.2443    0.0000 C   0  0  0  0  0  0  0  0  0  0  0  0
    1.1946    0.0068    0.0000 C   0  0  0  0  0  0  0  0  0  0  0  0
    1.1946   -0.8182    0.0000 C   0  0  0  0  0  0  0  0  0  0  0  0
  1  2  2  0  0  0  0
  2  3  1  0  0  0  0
  4  3  1  0  0  0  0
  5  4  2  0  0  0  0
  6  5  1  0  0  0  0
  6  7  1  0  0  0  0
  8  6  2  0  0  0  0
  9  8  1  0  0  0  0
  3  9  2  0  0  0  0
M  END
> <ChemID>
100390

> <CAS>
622-97-9

> <Original_SMILES>
Cc1ccc(C=C)cc1

> <preferred_name>
4-Methylstyrene

> <dsstox_substance_id>
DTXSID3020889

> <dsstox_compound_id>
DTXCID10889

> <qc_level>
DSSTox_Low

> <Canonical_QSARr>
CC1=CC=C(C=C1)C=C

> <InChI_Code_QSARr>
InChI=1S/C9H10/c1-3-9-6-4-8(2)5-7-9/h3-7H,1H2,2H3

> <InChI Key_QSARr>
JLBJTVDPSNHSKJ-UHFFFAOYSA-N

> <Salt_Solvent>


> <Salt_Solvent_ID>
0

> <MPID>
98320

> <LogBCF>
1.5

> <Tr_1_Tst_0>
1

$$$$
100391
  Mrv171c012241911322D          

 10 10  0  0  0  0            999 V2000
    0.7145   -0.4125    0.0000 C   0  0  0  0  0  0  0  0  0  0  0  0
    0.7145   -1.2375    0.0000 C   0  0  0  0  0  0  0  0  0  0  0  0
    0.7145   -2.0625    0.0000 N   0  0  0  0  0  0  0  0  0  0  0  0
    1.4289    0.0000    0.0000 C   0  0  0  0  0  0  0  0  0  0  0  0
    1.4289    0.8250    0.0000 C   0  0  0  0  0  0  0  0  0  0  0  0
    0.7145    1.2375    0.0000 C   0  0  0  0  0  0  0  0  0  0  0  0
    0.7145    2.0625    0.0000 C   0  0  0  0  0  0  0  0  0  0  0  0
    0.7145    2.8875    0.0000 N   0  0  0  0  0  0  0  0  0  0  0  0
    0.0000    0.8250    0.0000 C   0  0  0  0  0  0  0  0  0  0  0  0
    0.0000    0.0000    0.0000 C   0  0  0  0  0  0  0  0  0  0  0  0
  1  2  1  0  0  0  0
  2  3  3  0  0  0  0
  4  1  1  0  0  0  0
  5  4  2  0  0  0  0
  6  5  1  0  0  0  0
  6  7  1  0  0  0  0
  7  8  3  0  0  0  0
  9  6  2  0  0  0  0
 10  9  1  0  0  0  0
  1 10  2  0  0  0  0
M  END
> <ChemID>
100391

> <CAS>
623-26-7

> <Original_SMILES>
N#Cc1ccc(cc1)C#N

> <preferred_name>
1,4-Benzenedicarbonitrile

> <dsstox_substance_id>
DTXSID1060768

> <dsstox_compound_id>
DTXCID7043299

> <qc_level>
Public_High

> <Canonical_QSARr>
N#CC1C=CC(=CC=1)C#N

> <InChI_Code_QSARr>
InChI=1S/C8H4N2/c9-5-7-1-2-8(6-10)4-3-7/h1-4H

> <InChI Key_QSARr>
BHXFKXOIODIUJO-UHFFFAOYSA-N

> <Salt_Solvent>


> <Salt_Solvent_ID>
0

> <MPID>
98321

> <LogBCF>
0.3

> <Tr_1_Tst_0>
1

$$$$
100392
  Mrv171c012241911322D          

 10 10  0  0  0  0            999 V2000
    2.4959   -1.4477    0.0000 C   0  0  0  0  0  0  0  0  0  0  0  0
    3.2104   -1.8602    0.0000 C   0  0  0  0  0  0  0  0  0  0  0  0
    3.9248   -2.2727    0.0000 N   0  0  0  0  0  0  0  0  0  0  0  0
    2.4959   -0.6227    0.0000 C   0  0  0  0  0  0  0  0  0  0  0  0
    1.7814   -0.2102    0.0000 C   0  0  0  0  0  0  0  0  0  0  0  0
    1.7814    0.6148    0.0000 C   0  0  0  0  0  0  0  0  0  0  0  0
    1.7814    1.4398    0.0000 N   0  0  0  0  0  0  0  0  0  0  0  0
    1.0670   -0.6227    0.0000 C   0  0  0  0  0  0  0  0  0  0  0  0
    1.0670   -1.4477    0.0000 C   0  0  0  0  0  0  0  0  0  0  0  0
    1.7814   -1.8602    0.0000 C   0  0  0  0  0  0  0  0  0  0  0  0
  1  2  1  0  0  0  0
  2  3  3  0  0  0  0
  4  1  1  0  0  0  0
  5  4  2  0  0  0  0
  5  6  1  0  0  0  0
  6  7  3  0  0  0  0
  8  5  1  0  0  0  0
  9  8  2  0  0  0  0
 10  9  1  0  0  0  0
  1 10  2  0  0  0  0
M  END
> <ChemID>
100392

> <CAS>
626-17-5

> <Original_SMILES>
N#Cc1cc(ccc1)C#N

> <preferred_name>
1,3-Benzenedicarbonitrile

> <dsstox_substance_id>
DTXSID7027259

> <dsstox_compound_id>
DTXCID207259

> <qc_level>
DSSTox_Low

> <Canonical_QSARr>
N#CC1C=C(C=CC=1)C#N

> <InChI_Code_QSARr>
InChI=1S/C8H4N2/c9-5-7-2-1-3-8(4-7)6-10/h1-4H

> <InChI Key_QSARr>
LAQPNDIUHRHNCV-UHFFFAOYSA-N

> <Salt_Solvent>


> <Salt_Solvent_ID>
0

> <MPID>
98322

> <LogBCF>
0.75

> <Tr_1_Tst_0>
1

$$$$
100393
  Mrv171c012241911322D          

  9  9  0  0  0  0            999 V2000
    2.1418   -1.2363    0.0000 C   0  0  0  0  0  0  0  0  0  0  0  0
    1.4274   -0.8238    0.0000 C   0  0  0  0  0  0  0  0  0  0  0  0
    1.4274    0.0012    0.0000 Br  0  0  0  0  0  0  0  0  0  0  0  0
    0.7129   -1.2363    0.0000 C   0  0  0  0  0  0  0  0  0  0  0  0
    0.7129   -2.0613    0.0000 C   0  0  0  0  0  0  0  0  0  0  0  0
   -0.0016   -2.4738    0.0000 Br  0  0  0  0  0  0  0  0  0  0  0  0
    1.4274   -2.4738    0.0000 C   0  0  0  0  0  0  0  0  0  0  0  0
    2.1418   -2.0613    0.0000 C   0  0  0  0  0  0  0  0  0  0  0  0
    2.8563   -2.4738    0.0000 Br  0  0  0  0  0  0  0  0  0  0  0  0
  2  1  2  0  0  0  0
  2  3  1  0  0  0  0
  4  2  1  0  0  0  0
  5  4  2  0  0  0  0
  5  6  1  0  0  0  0
  7  5  1  0  0  0  0
  8  7  2  0  0  0  0
  1  8  1  0  0  0  0
  8  9  1  0  0  0  0
M  END
> <ChemID>
100393

> <CAS>
626-39-1

> <Original_SMILES>
Brc1cc(Br)cc(Br)c1

> <preferred_name>
1,3,5-Tribromobenzene

> <dsstox_substance_id>
DTXSID3052307

> <dsstox_compound_id>
DTXCID0030879

> <qc_level>
DSSTox_Low

> <Canonical_QSARr>
BrC1C=C(Br)C=C(Br)C=1

> <InChI_Code_QSARr>
InChI=1S/C6H3Br3/c7-4-1-5(8)3-6(9)2-4/h1-3H

> <InChI Key_QSARr>
YWDUZLFWHVQCHY-UHFFFAOYSA-N

> <Salt_Solvent>


> <Salt_Solvent_ID>
0

> <MPID>
98323

> <LogBCF>
3.7

> <Tr_1_Tst_0>
0

$$$$
100394
  Mrv171c012241911322D          

  7  7  0  0  0  0            999 V2000
    0.7145    1.2375    0.0000 N   0  0  0  0  0  0  0  0  0  0  0  0
    0.7145    2.0625    0.0000 C   0  0  0  0  0  0  0  0  0  0  0  0
   -0.0000    0.8250    0.0000 C   0  0  0  0  0  0  0  0  0  0  0  0
   -0.0000   -0.0000    0.0000 C   0  0  0  0  0  0  0  0  0  0  0  0
    0.7145   -0.4125    0.0000 C   0  0  0  0  0  0  0  0  0  0  0  0
    1.4289    0.0000    0.0000 C   0  0  0  0  0  0  0  0  0  0  0  0
    1.4289    0.8250    0.0000 C   0  0  0  0  0  0  0  0  0  0  0  0
  1  2  1  0  0  0  0
  3  1  1  0  0  0  0
  4  3  1  0  0  0  0
  5  4  1  0  0  0  0
  6  5  1  0  0  0  0
  7  6  1  0  0  0  0
  1  7  1  0  0  0  0
M  END
> <ChemID>
100394

> <CAS>
626-67-5

> <Original_SMILES>
CN1CCCCC1

> <preferred_name>
Piperidine, 1-methyl-

> <dsstox_substance_id>
DTXSID8060822

> <dsstox_compound_id>
DTXCID0043420

> <qc_level>
Public_High

> <Canonical_QSARr>
CN1CCCCC1

> <InChI_Code_QSARr>
InChI=1S/C6H13N/c1-7-5-3-2-4-6-7/h2-6H2,1H3

> <InChI Key_QSARr>
PAMIQIKDUOTOBW-UHFFFAOYSA-N

> <Salt_Solvent>


> <Salt_Solvent_ID>
0

> <MPID>
98324

> <LogBCF>
0.65

> <Tr_1_Tst_0>
1

$$$$
100395
  Mrv171c012241911322D          

 14 13  0  0  0  0            999 V2000
   -0.7144    0.1179    0.0000 O   0  0  0  0  0  0  0  0  0  0  0  0
    0.0001   -0.2946    0.0000 C   0  0  0  0  0  0  0  0  0  0  0  0
    0.7145    0.1179    0.0000 C   0  0  0  0  0  0  0  0  0  0  0  0
    1.4290   -0.2946    0.0000 C   0  0  0  0  0  0  0  0  0  0  0  0
    2.1435    0.1179    0.0000 C   0  0  0  0  0  0  0  0  0  0  0  0
    2.8580   -0.2946    0.0000 C   0  0  0  0  0  0  0  0  0  0  0  0
    3.5724    0.1179    0.0000 C   0  0  0  0  0  0  0  0  0  0  0  0
    4.2869   -0.2946    0.0000 C   0  0  0  0  0  0  0  0  0  0  0  0
    5.0014    0.1179    0.0000 C   0  0  0  0  0  0  0  0  0  0  0  0
    5.7158   -0.2946    0.0000 C   0  0  0  0  0  0  0  0  0  0  0  0
    6.4303    0.1179    0.0000 C   0  0  0  0  0  0  0  0  0  0  0  0
    7.1448   -0.2946    0.0000 C   0  0  0  0  0  0  0  0  0  0  0  0
    7.8593    0.1179    0.0000 C   0  0  0  0  0  0  0  0  0  0  0  0
    0.0001   -1.1196    0.0000 O   0  0  0  0  0  0  0  0  0  0  0  0
  1  2  1  0  0  0  0
  2  3  1  0  0  0  0
  3  4  1  0  0  0  0
  4  5  1  0  0  0  0
  5  6  1  0  0  0  0
  6  7  1  0  0  0  0
  7  8  1  0  0  0  0
  8  9  1  0  0  0  0
  9 10  1  0  0  0  0
 10 11  1  0  0  0  0
 11 12  1  0  0  0  0
 12 13  1  0  0  0  0
  2 14  2  0  0  0  0
M  END
> <ChemID>
100395

> <CAS>
629-25-4

> <Original_SMILES>
[Na+].CCCCCCCCCCCC([O-])=O

> <preferred_name>
Sodium dodecanoate

> <dsstox_substance_id>
DTXSID9044453

> <dsstox_compound_id>
DTXCID7024453

> <qc_level>
DSSTox_Low

> <Canonical_QSARr>
CCCCCCCCCCCC(O)=O

> <InChI_Code_QSARr>
InChI=1S/C12H24O2/c1-2-3-4-5-6-7-8-9-10-11-12(13)14/h2-11H2,1H3,(H,13,14)

> <InChI Key_QSARr>
POULHZVOKOAJMA-UHFFFAOYSA-N

> <Salt_Solvent>
[Na+]

> <Salt_Solvent_ID>
110

> <MPID>
98325

> <LogBCF>
2.4

> <Tr_1_Tst_0>
1

$$$$
100396
  Mrv171c012241911322D          

 10 10  0  0  0  0            999 V2000
    2.9360   -0.5675    0.0000 Cl  0  0  0  0  0  0  0  0  0  0  0  0
    2.2215   -0.9800    0.0000 C   0  0  0  0  0  0  0  0  0  0  0  0
    1.5071   -0.5675    0.0000 C   0  0  0  0  0  0  0  0  0  0  0  0
    1.5071    0.2575    0.0000 Cl  0  0  0  0  0  0  0  0  0  0  0  0
    0.7926   -0.9800    0.0000 C   0  0  0  0  0  0  0  0  0  0  0  0
    0.0781   -0.5675    0.0000 Cl  0  0  0  0  0  0  0  0  0  0  0  0
    0.7926   -1.8050    0.0000 C   0  0  0  0  0  0  0  0  0  0  0  0
    1.5071   -2.2175    0.0000 C   0  0  0  0  0  0  0  0  0  0  0  0
    2.2215   -1.8050    0.0000 C   0  0  0  0  0  0  0  0  0  0  0  0
    2.9360   -2.2175    0.0000 Cl  0  0  0  0  0  0  0  0  0  0  0  0
  1  2  1  0  0  0  0
  3  2  1  0  0  0  0
  3  4  1  0  0  0  0
  5  3  2  0  0  0  0
  5  6  1  0  0  0  0
  7  5  1  0  0  0  0
  8  7  2  0  0  0  0
  9  8  1  0  0  0  0
  2  9  2  0  0  0  0
  9 10  1  0  0  0  0
M  END
> <ChemID>
100396

> <CAS>
634-66-2

> <Original_SMILES>
Clc1ccc(Cl)c(Cl)c1Cl

> <preferred_name>
1,2,3,4-Tetrachlorobenzene

> <dsstox_substance_id>
DTXSID6026088

> <dsstox_compound_id>
DTXCID206088

> <qc_level>
DSSTox_Low

> <Canonical_QSARr>
ClC1C=CC(Cl)=C(Cl)C=1Cl

> <InChI_Code_QSARr>
InChI=1S/C6H2Cl4/c7-3-1-2-4(8)6(10)5(3)9/h1-2H

> <InChI Key_QSARr>
GBDZXPJXOMHESU-UHFFFAOYSA-N

> <Salt_Solvent>


> <Salt_Solvent_ID>
0

> <MPID>
98326

> <LogBCF>
3.38

> <Tr_1_Tst_0>
1

$$$$
100397
  Mrv171c012241911322D          

 10 10  0  0  0  0            999 V2000
    1.9357   -2.7950    0.0000 N   0  0  0  0  0  0  0  0  0  0  0  0
    1.9357   -1.9700    0.0000 C   0  0  0  0  0  0  0  0  0  0  0  0
    2.6502   -1.5575    0.0000 C   0  0  0  0  0  0  0  0  0  0  0  0
    2.6502   -0.7325    0.0000 C   0  0  0  0  0  0  0  0  0  0  0  0
    1.9357   -0.3200    0.0000 C   0  0  0  0  0  0  0  0  0  0  0  0
    1.9357    0.5050    0.0000 Cl  0  0  0  0  0  0  0  0  0  0  0  0
    1.2213   -0.7325    0.0000 C   0  0  0  0  0  0  0  0  0  0  0  0
    0.5068   -0.3200    0.0000 Cl  0  0  0  0  0  0  0  0  0  0  0  0
    1.2213   -1.5575    0.0000 C   0  0  0  0  0  0  0  0  0  0  0  0
    0.5068   -1.9700    0.0000 Cl  0  0  0  0  0  0  0  0  0  0  0  0
  1  2  1  0  0  0  0
  3  2  1  0  0  0  0
  4  3  2  0  0  0  0
  5  4  1  0  0  0  0
  5  6  1  0  0  0  0
  7  5  2  0  0  0  0
  7  8  1  0  0  0  0
  9  7  1  0  0  0  0
  2  9  2  0  0  0  0
  9 10  1  0  0  0  0
M  END
> <ChemID>
100397

> <CAS>
634-67-3

> <Original_SMILES>
Nc1ccc(Cl)c(Cl)c1Cl

> <preferred_name>
2,3,4-Trichloroaniline

> <dsstox_substance_id>
DTXSID2022098

> <dsstox_compound_id>
DTXCID102098

> <qc_level>
DSSTox_Low

> <Canonical_QSARr>
NC1C=CC(Cl)=C(Cl)C=1Cl

> <InChI_Code_QSARr>
InChI=1S/C6H4Cl3N/c7-3-1-2-4(10)6(9)5(3)8/h1-2H,10H2

> <InChI Key_QSARr>
RRJUYQOFOMFVQS-UHFFFAOYSA-N

> <Salt_Solvent>


> <Salt_Solvent_ID>
0

> <MPID>
98327

> <LogBCF>
2.0

> <Tr_1_Tst_0>
1

$$$$
100398
  Mrv171c012241911322D          

 11 11  0  0  0  0            999 V2000
    4.3779    0.4721    0.0000 Cl  0  0  0  0  0  0  0  0  0  0  0  0
    3.6634    0.0596    0.0000 C   0  0  0  0  0  0  0  0  0  0  0  0
    2.9490    0.4721    0.0000 C   0  0  0  0  0  0  0  0  0  0  0  0
    2.9490    1.2971    0.0000 Cl  0  0  0  0  0  0  0  0  0  0  0  0
    2.2345    0.0596    0.0000 C   0  0  0  0  0  0  0  0  0  0  0  0
    1.5200    0.4721    0.0000 Cl  0  0  0  0  0  0  0  0  0  0  0  0
    2.2345   -0.7654    0.0000 C   0  0  0  0  0  0  0  0  0  0  0  0
    1.5200   -1.1779    0.0000 Cl  0  0  0  0  0  0  0  0  0  0  0  0
    2.9490   -1.1779    0.0000 C   0  0  0  0  0  0  0  0  0  0  0  0
    3.6634   -0.7654    0.0000 C   0  0  0  0  0  0  0  0  0  0  0  0
    4.3779   -1.1779    0.0000 N   0  0  0  0  0  0  0  0  0  0  0  0
  1  2  1  0  0  0  0
  3  2  2  0  0  0  0
  3  4  1  0  0  0  0
  5  3  1  0  0  0  0
  5  6  1  0  0  0  0
  7  5  2  0  0  0  0
  7  8  1  0  0  0  0
  9  7  1  0  0  0  0
 10  9  2  0  0  0  0
  2 10  1  0  0  0  0
 10 11  1  0  0  0  0
M  END
> <ChemID>
100398

> <CAS>
634-83-3

> <Original_SMILES>
Nc1cc(Cl)c(Cl)c(Cl)c1Cl

> <preferred_name>
2,3,4,5-Tetrachloroaniline

> <dsstox_substance_id>
DTXSID70212810

> <dsstox_compound_id>
DTXCID00135301

> <qc_level>
Public_Medium

> <Canonical_QSARr>
NC1=CC(Cl)=C(Cl)C(Cl)=C1Cl

> <InChI_Code_QSARr>
InChI=1S/C6H3Cl4N/c7-2-1-3(11)5(9)6(10)4(2)8/h1H,11H2

> <InChI Key_QSARr>
GBKZRUCVLTWAML-UHFFFAOYSA-N

> <Salt_Solvent>


> <Salt_Solvent_ID>
0

> <MPID>
98328

> <LogBCF>
2.21

> <Tr_1_Tst_0>
0

$$$$
100399
  Mrv171c012241911322D          

 10 10  0  0  0  0            999 V2000
    3.0980   -0.6840    0.0000 Cl  0  0  0  0  0  0  0  0  0  0  0  0
    2.3835   -1.0965    0.0000 C   0  0  0  0  0  0  0  0  0  0  0  0
    1.6691   -0.6840    0.0000 C   0  0  0  0  0  0  0  0  0  0  0  0
    1.6691    0.1410    0.0000 Cl  0  0  0  0  0  0  0  0  0  0  0  0
    0.9546   -1.0965    0.0000 C   0  0  0  0  0  0  0  0  0  0  0  0
    0.9546   -1.9215    0.0000 C   0  0  0  0  0  0  0  0  0  0  0  0
    0.2401   -2.3340    0.0000 Cl  0  0  0  0  0  0  0  0  0  0  0  0
    1.6691   -2.3340    0.0000 C   0  0  0  0  0  0  0  0  0  0  0  0
    2.3835   -1.9215    0.0000 C   0  0  0  0  0  0  0  0  0  0  0  0
    3.0980   -2.3340    0.0000 Cl  0  0  0  0  0  0  0  0  0  0  0  0
  1  2  1  0  0  0  0
  3  2  1  0  0  0  0
  3  4  1  0  0  0  0
  5  3  2  0  0  0  0
  6  5  1  0  0  0  0
  6  7  1  0  0  0  0
  8  6  2  0  0  0  0
  9  8  1  0  0  0  0
  2  9  2  0  0  0  0
  9 10  1  0  0  0  0
M  END
> <ChemID>
100399

> <CAS>
634-90-2

> <Original_SMILES>
Clc1cc(Cl)c(Cl)c(Cl)c1

> <preferred_name>
1,2,3,5-Tetrachlorobenzene

> <dsstox_substance_id>
DTXSID1026089

> <dsstox_compound_id>
DTXCID606089

> <qc_level>
DSSTox_Low

> <Canonical_QSARr>
ClC1C=C(Cl)C=C(Cl)C=1Cl

> <InChI_Code_QSARr>
InChI=1S/C6H2Cl4/c7-3-1-4(8)6(10)5(9)2-3/h1-2H

> <InChI Key_QSARr>
QZYNWJQFTJXIRN-UHFFFAOYSA-N

> <Salt_Solvent>


> <Salt_Solvent_ID>
0

> <MPID>
98329

> <LogBCF>
3.59

> <Tr_1_Tst_0>
1

$$$$
100400
  Mrv171c012241911322D          

 10 10  0  0  0  0            999 V2000
    4.5078    0.3671    0.0000 Cl  0  0  0  0  0  0  0  0  0  0  0  0
    3.7933   -0.0454    0.0000 C   0  0  0  0  0  0  0  0  0  0  0  0
    3.0789    0.3671    0.0000 C   0  0  0  0  0  0  0  0  0  0  0  0
    3.0789    1.1921    0.0000 Cl  0  0  0  0  0  0  0  0  0  0  0  0
    2.3644   -0.0454    0.0000 C   0  0  0  0  0  0  0  0  0  0  0  0
    1.6499    0.3671    0.0000 Cl  0  0  0  0  0  0  0  0  0  0  0  0
    2.3644   -0.8704    0.0000 C   0  0  0  0  0  0  0  0  0  0  0  0
    3.0789   -1.2829    0.0000 C   0  0  0  0  0  0  0  0  0  0  0  0
    3.0789   -2.1079    0.0000 N   0  0  0  0  0  0  0  0  0  0  0  0
    3.7933   -0.8704    0.0000 C   0  0  0  0  0  0  0  0  0  0  0  0
  1  2  1  0  0  0  0
  3  2  1  0  0  0  0
  3  4  1  0  0  0  0
  5  3  2  0  0  0  0
  5  6  1  0  0  0  0
  7  5  1  0  0  0  0
  8  7  2  0  0  0  0
  8  9  1  0  0  0  0
 10  8  1  0  0  0  0
  2 10  2  0  0  0  0
M  END
> <ChemID>
100400

> <CAS>
634-91-3

> <Original_SMILES>
Nc1cc(Cl)c(Cl)c(Cl)c1

> <preferred_name>
3,4,5-Trichloroaniline

> <dsstox_substance_id>
DTXSID30212811

> <dsstox_compound_id>
DTXCID60135302

> <qc_level>
Public_Medium

> <Canonical_QSARr>
NC1=CC(Cl)=C(Cl)C(Cl)=C1

> <InChI_Code_QSARr>
InChI=1S/C6H4Cl3N/c7-4-1-3(10)2-5(8)6(4)9/h1-2H,10H2

> <InChI Key_QSARr>
XOGYQVITULCUGU-UHFFFAOYSA-N

> <Salt_Solvent>


> <Salt_Solvent_ID>
0

> <MPID>
98330

> <LogBCF>
2.36

> <Tr_1_Tst_0>
1

$$$$
100401
  Mrv171c012241911322D          

 10 10  0  0  0  0            999 V2000
    3.0980   -0.6840    0.0000 N   0  0  0  0  0  0  0  0  0  0  0  0
    2.3835   -1.0965    0.0000 C   0  0  0  0  0  0  0  0  0  0  0  0
    1.6691   -0.6840    0.0000 C   0  0  0  0  0  0  0  0  0  0  0  0
    1.6691    0.1410    0.0000 Cl  0  0  0  0  0  0  0  0  0  0  0  0
    0.9546   -1.0965    0.0000 C   0  0  0  0  0  0  0  0  0  0  0  0
    0.9546   -1.9215    0.0000 C   0  0  0  0  0  0  0  0  0  0  0  0
    0.2401   -2.3340    0.0000 Cl  0  0  0  0  0  0  0  0  0  0  0  0
    1.6691   -2.3340    0.0000 C   0  0  0  0  0  0  0  0  0  0  0  0
    2.3835   -1.9215    0.0000 C   0  0  0  0  0  0  0  0  0  0  0  0
    3.0980   -2.3340    0.0000 Cl  0  0  0  0  0  0  0  0  0  0  0  0
  1  2  1  0  0  0  0
  3  2  1  0  0  0  0
  3  4  1  0  0  0  0
  5  3  2  0  0  0  0
  6  5  1  0  0  0  0
  6  7  1  0  0  0  0
  8  6  2  0  0  0  0
  9  8  1  0  0  0  0
  2  9  2  0  0  0  0
  9 10  1  0  0  0  0
M  END
> <ChemID>
100401

> <CAS>
634-93-5

> <Original_SMILES>
Nc1c(Cl)cc(Cl)cc1Cl

> <preferred_name>
2,4,6-Trichloroaniline

> <dsstox_substance_id>
DTXSID6021379

> <dsstox_compound_id>
DTXCID401379

> <qc_level>
DSSTox_Low

> <Canonical_QSARr>
NC1C(Cl)=CC(Cl)=CC=1Cl

> <InChI_Code_QSARr>
InChI=1S/C6H4Cl3N/c7-3-1-4(8)6(10)5(9)2-3/h1-2H,10H2

> <InChI Key_QSARr>
NATVSFWWYVJTAZ-UHFFFAOYSA-N

> <Salt_Solvent>


> <Salt_Solvent_ID>
0

> <MPID>
98331

> <LogBCF>
2.0

> <Tr_1_Tst_0>
1

$$$$
100402
  Mrv171c012241911322D          

 10 10  0  0  0  0            999 V2000
    1.4289   -0.0000    0.0000 C   0  0  0  0  0  0  0  0  0  0  0  0
    2.1434   -0.4125    0.0000 Br  0  0  0  0  0  0  0  0  0  0  0  0
    1.4289    0.8250    0.0000 C   0  0  0  0  0  0  0  0  0  0  0  0
    0.7145    1.2375    0.0000 C   0  0  0  0  0  0  0  0  0  0  0  0
    0.7145    2.0625    0.0000 Br  0  0  0  0  0  0  0  0  0  0  0  0
   -0.0000    0.8250    0.0000 C   0  0  0  0  0  0  0  0  0  0  0  0
   -0.7145    1.2375    0.0000 Br  0  0  0  0  0  0  0  0  0  0  0  0
   -0.0000    0.0000    0.0000 C   0  0  0  0  0  0  0  0  0  0  0  0
    0.7145   -0.4125    0.0000 C   0  0  0  0  0  0  0  0  0  0  0  0
    0.7145   -1.2375    0.0000 Br  0  0  0  0  0  0  0  0  0  0  0  0
  1  2  1  0  0  0  0
  3  1  1  0  0  0  0
  4  3  2  0  0  0  0
  4  5  1  0  0  0  0
  6  4  1  0  0  0  0
  6  7  1  0  0  0  0
  8  6  2  0  0  0  0
  9  8  1  0  0  0  0
  1  9  2  0  0  0  0
  9 10  1  0  0  0  0
M  END
> <ChemID>
100402

> <CAS>
636-28-2

> <Original_SMILES>
Brc1cc(Br)c(Br)cc1Br

> <preferred_name>
1,2,4,5-Tetrabromobenzene

> <dsstox_substance_id>
DTXSID7060910

> <dsstox_compound_id>
DTXCID1044015

> <qc_level>
Public_High

> <Canonical_QSARr>
BrC1C=C(Br)C(Br)=CC=1Br

> <InChI_Code_QSARr>
InChI=1S/C6H2Br4/c7-3-1-4(8)6(10)2-5(3)9/h1-2H

> <InChI Key_QSARr>
QCKHVNQHBOGZER-UHFFFAOYSA-N

> <Salt_Solvent>


> <Salt_Solvent_ID>
0

> <MPID>
98332

> <LogBCF>
3.59

> <Tr_1_Tst_0>
0

$$$$
100403
  Mrv171c012241911322D          

 10 10  0  0  0  0            999 V2000
    2.1410   -1.2347    0.0000 C   0  0  0  0  0  0  0  0  0  0  0  0
    2.8554   -0.8222    0.0000 N   0  0  0  0  0  0  0  0  0  0  0  0
    1.4265   -0.8222    0.0000 C   0  0  0  0  0  0  0  0  0  0  0  0
    1.4265    0.0028    0.0000 Cl  0  0  0  0  0  0  0  0  0  0  0  0
    0.7120   -1.2347    0.0000 C   0  0  0  0  0  0  0  0  0  0  0  0
    0.7120   -2.0597    0.0000 C   0  0  0  0  0  0  0  0  0  0  0  0
   -0.0025   -2.4722    0.0000 Cl  0  0  0  0  0  0  0  0  0  0  0  0
    1.4265   -2.4722    0.0000 C   0  0  0  0  0  0  0  0  0  0  0  0
    1.4265   -3.2972    0.0000 Cl  0  0  0  0  0  0  0  0  0  0  0  0
    2.1410   -2.0597    0.0000 C   0  0  0  0  0  0  0  0  0  0  0  0
  1  2  1  0  0  0  0
  3  1  1  0  0  0  0
  3  4  1  0  0  0  0
  5  3  2  0  0  0  0
  6  5  1  0  0  0  0
  6  7  1  0  0  0  0
  8  6  2  0  0  0  0
  8  9  1  0  0  0  0
 10  8  1  0  0  0  0
  1 10  2  0  0  0  0
M  END
> <ChemID>
100403

> <CAS>
636-30-6

> <Original_SMILES>
Nc1cc(Cl)c(Cl)cc1Cl

> <preferred_name>
2,4,5-Trichloroaniline

> <dsstox_substance_id>
DTXSID5044152

> <dsstox_compound_id>
DTXCID3024152

> <qc_level>
DSSTox_Low

> <Canonical_QSARr>
NC1=CC(Cl)=C(Cl)C=C1Cl

> <InChI_Code_QSARr>
InChI=1S/C6H4Cl3N/c7-3-1-5(9)6(10)2-4(3)8/h1-2H,10H2

> <InChI Key_QSARr>
GUMCAKKKNKYFEB-UHFFFAOYSA-N

> <Salt_Solvent>


> <Salt_Solvent_ID>
0

> <MPID>
98333

> <LogBCF>
2.33

> <Tr_1_Tst_0>
1

$$$$
100404
  Mrv171c012241911322D          

 11 10  0  0  0  0            999 V2000
    1.1648   -1.4307    0.0000 P   0  0  0  0  0  0  0  0  0  0  0  0
    1.5773   -2.1452    0.0000 O   0  0  0  0  0  0  0  0  0  0  0  0
    1.8793   -1.0182    0.0000 N   0  0  0  0  0  0  0  0  0  0  0  0
    1.8793   -0.1932    0.0000 C   0  0  0  0  0  0  0  0  0  0  0  0
    2.5938   -1.4307    0.0000 C   0  0  0  0  0  0  0  0  0  0  0  0
    0.4504   -1.8432    0.0000 N   0  0  0  0  0  0  0  0  0  0  0  0
    0.4504   -2.6682    0.0000 C   0  0  0  0  0  0  0  0  0  0  0  0
   -0.2641   -1.4307    0.0000 C   0  0  0  0  0  0  0  0  0  0  0  0
    0.7523   -0.7163    0.0000 N   0  0  0  0  0  0  0  0  0  0  0  0
    1.1648   -0.0018    0.0000 C   0  0  0  0  0  0  0  0  0  0  0  0
   -0.0727   -0.7163    0.0000 C   0  0  0  0  0  0  0  0  0  0  0  0
  1  2  2  0  0  0  0
  1  3  1  0  0  0  0
  3  4  1  0  0  0  0
  3  5  1  0  0  0  0
  1  6  1  0  0  0  0
  6  7  1  0  0  0  0
  6  8  1  0  0  0  0
  1  9  1  0  0  0  0
  9 10  1  0  0  0  0
  9 11  1  0  0  0  0
M  END
> <ChemID>
100404

> <CAS>
680-31-9

> <Original_SMILES>
CN(C)P(=O)(N(C)C)N(C)C

> <preferred_name>
Hexamethylphosphoramide

> <dsstox_substance_id>
DTXSID6020694

> <dsstox_compound_id>
DTXCID60694

> <qc_level>
DSSTox_High

> <Canonical_QSARr>
CN(C)P(=O)(N(C)C)N(C)C

> <InChI_Code_QSARr>
InChI=1S/C6H18N3OP/c1-7(2)11(10,8(3)4)9(5)6/h1-6H3

> <InChI Key_QSARr>
GNOIPBMMFNIUFM-UHFFFAOYSA-N

> <Salt_Solvent>


> <Salt_Solvent_ID>
0

> <MPID>
98334

> <LogBCF>
-0.3

> <Tr_1_Tst_0>
1

$$$$
100405
  Mrv171c012241911322D          

  9  9  0  0  0  0            999 V2000
    1.5877   -0.0000    0.0000 N   0  0  0  0  0  0  0  0  0  0  0  0
    1.5877   -0.8250    0.0000 C   0  0  0  0  0  0  0  0  0  0  0  0
    0.8732    0.4125    0.0000 C   0  0  0  0  0  0  0  0  0  0  0  0
    0.8732    1.2375    0.0000 C   0  0  0  0  0  0  0  0  0  0  0  0
    0.1588    1.6500    0.0000 C   0  0  0  0  0  0  0  0  0  0  0  0
    0.1588    2.4750    0.0000 C   0  0  0  0  0  0  0  0  0  0  0  0
   -0.5557    1.2375    0.0000 C   0  0  0  0  0  0  0  0  0  0  0  0
   -0.5557    0.4125    0.0000 C   0  0  0  0  0  0  0  0  0  0  0  0
    0.1588   -0.0000    0.0000 C   0  0  0  0  0  0  0  0  0  0  0  0
  1  2  1  0  0  0  0
  1  3  1  0  0  0  0
  4  3  1  0  0  0  0
  5  4  2  0  0  0  0
  5  6  1  0  0  0  0
  7  5  1  0  0  0  0
  8  7  2  0  0  0  0
  9  8  1  0  0  0  0
  3  9  2  0  0  0  0
M  END
> <ChemID>
100405

> <CAS>
696-44-6

> <Original_SMILES>
Cc1cccc(c1)NC

> <preferred_name>
Benzenamine, N,3-dimethyl-

> <dsstox_substance_id>
DTXSID2061014

> <dsstox_compound_id>
DTXCID8046531

> <qc_level>
Public_High

> <Canonical_QSARr>
CC1C=CC=C(C=1)NC

> <InChI_Code_QSARr>
InChI=1S/C8H11N/c1-7-4-3-5-8(6-7)9-2/h3-6,9H,1-2H3

> <InChI Key_QSARr>
FBGJJTQNZVNEQU-UHFFFAOYSA-N

> <Salt_Solvent>


> <Salt_Solvent_ID>
0

> <MPID>
98335

> <LogBCF>
0.86

> <Tr_1_Tst_0>
1

$$$$
100406
  Mrv171c012241911322D          

 13 13  0  0  0  0            999 V2000
    3.0246   -1.3646    0.0000 C   0  0  0  0  0  0  0  0  0  0  0  0
    2.3101   -0.9521    0.0000 C   0  0  0  0  0  0  0  0  0  0  0  0
    2.3101   -0.1271    0.0000 N   0  0  0  0  0  0  0  0  0  0  0  0
    1.5957    0.2854    0.0000 C   0  0  0  0  0  0  0  0  0  0  0  0
    1.5957    1.1104    0.0000 C   0  0  0  0  0  0  0  0  0  0  0  0
    0.8812    1.5229    0.0000 C   0  0  0  0  0  0  0  0  0  0  0  0
    0.8812   -0.1271    0.0000 O   0  0  0  0  0  0  0  0  0  0  0  0
    1.5957   -1.3646    0.0000 C   0  0  0  0  0  0  0  0  0  0  0  0
    1.5957   -2.1896    0.0000 C   0  0  0  0  0  0  0  0  0  0  0  0
    2.3101   -2.6021    0.0000 C   0  0  0  0  0  0  0  0  0  0  0  0
    2.3101   -3.4271    0.0000 Cl  0  0  0  0  0  0  0  0  0  0  0  0
    3.0246   -2.1896    0.0000 C   0  0  0  0  0  0  0  0  0  0  0  0
    3.7391   -2.6021    0.0000 Cl  0  0  0  0  0  0  0  0  0  0  0  0
  2  1  1  0  0  0  0
  2  3  1  0  0  0  0
  3  4  1  0  0  0  0
  4  5  1  0  0  0  0
  5  6  1  0  0  0  0
  4  7  2  0  0  0  0
  8  2  2  0  0  0  0
  9  8  1  0  0  0  0
 10  9  2  0  0  0  0
 10 11  1  0  0  0  0
 12 10  1  0  0  0  0
  1 12  2  0  0  0  0
 12 13  1  0  0  0  0
M  END
> <ChemID>
100406

> <CAS>
709-98-8

> <Original_SMILES>
CCC(=O)Nc1cc(Cl)c(Cl)cc1

> <preferred_name>
Propanil

> <dsstox_substance_id>
DTXSID8022111

> <dsstox_compound_id>
DTXCID102111

> <qc_level>
DSSTox_Low

> <Canonical_QSARr>
CCC(=O)NC1C=C(Cl)C(Cl)=CC=1

> <InChI_Code_QSARr>
InChI=1S/C9H9Cl2NO/c1-2-9(13)12-6-3-4-7(10)8(11)5-6/h3-5H,2H2,1H3,(H,12,13)

> <InChI Key_QSARr>
LFULEKSKNZEWOE-UHFFFAOYSA-N

> <Salt_Solvent>


> <Salt_Solvent_ID>
0

> <MPID>
98336

> <LogBCF>
1.84

> <Tr_1_Tst_0>
0

$$$$
100407
  Mrv171c012241911322D          

 19 20  0  0  0  0            999 V2000
    3.3031   -0.9383    0.0000 N   0  0  0  0  0  0  0  0  0  0  0  0
    2.4781   -0.9383    0.0000 C   0  0  0  0  0  0  0  0  0  0  0  0
    2.0656   -1.6528    0.0000 S   0  0  0  0  0  0  0  0  0  0  0  0
    1.2406   -1.6528    0.0000 P   0  0  0  0  0  0  0  0  0  0  0  0
    0.4156   -1.6528    0.0000 O   0  0  0  0  0  0  0  0  0  0  0  0
    0.0031   -2.3673    0.0000 C   0  0  0  0  0  0  0  0  0  0  0  0
    1.2406   -2.4778    0.0000 O   0  0  0  0  0  0  0  0  0  0  0  0
    0.5261   -2.8903    0.0000 C   0  0  0  0  0  0  0  0  0  0  0  0
    1.2406   -0.8278    0.0000 S   0  0  0  0  0  0  0  0  0  0  0  0
    3.7880   -0.2709    0.0000 C   0  0  0  0  0  0  0  0  0  0  0  0
    3.5331    0.5137    0.0000 O   0  0  0  0  0  0  0  0  0  0  0  0
    4.5726   -0.5258    0.0000 C   0  0  0  0  0  0  0  0  0  0  0  0
    5.2871   -0.1133    0.0000 C   0  0  0  0  0  0  0  0  0  0  0  0
    6.0016   -0.5258    0.0000 C   0  0  0  0  0  0  0  0  0  0  0  0
    6.0016   -1.3508    0.0000 C   0  0  0  0  0  0  0  0  0  0  0  0
    5.2871   -1.7633    0.0000 C   0  0  0  0  0  0  0  0  0  0  0  0
    4.5726   -1.3508    0.0000 C   0  0  0  0  0  0  0  0  0  0  0  0
    3.7880   -1.6058    0.0000 C   0  0  0  0  0  0  0  0  0  0  0  0
    3.5331   -2.3904    0.0000 O   0  0  0  0  0  0  0  0  0  0  0  0
  1  2  1  0  0  0  0
  2  3  1  0  0  0  0
  3  4  1  0  0  0  0
  4  5  1  0  0  0  0
  5  6  1  0  0  0  0
  4  7  1  0  0  0  0
  7  8  1  0  0  0  0
  4  9  2  0  0  0  0
 10  1  1  0  0  0  0
 10 11  2  0  0  0  0
 12 10  1  0  0  0  0
 12 13  1  0  0  0  0
 13 14  2  0  0  0  0
 14 15  1  0  0  0  0
 15 16  2  0  0  0  0
 16 17  1  0  0  0  0
 17 12  2  0  0  0  0
 18 17  1  0  0  0  0
  1 18  1  0  0  0  0
 18 19  2  0  0  0  0
M  END
> <ChemID>
100407

> <CAS>
732-11-6

> <Original_SMILES>
COP(=S)(OC)SCN1C(=O)c2ccccc2C1=O

> <preferred_name>
Phosmet

> <dsstox_substance_id>
DTXSID5024261

> <dsstox_compound_id>
DTXCID004261

> <qc_level>
DSSTox_Low

> <Canonical_QSARr>
COP(=S)(OC)SCN1C(=O)C2C=CC=CC=2C1=O

> <InChI_Code_QSARr>
InChI=1S/C11H12NO4PS2/c1-15-17(18,16-2)19-7-12-10(13)8-5-3-4-6-9(8)11(12)14/h3-6H,7H2,1-2H3

> <InChI Key_QSARr>
LMNZTLDVJIUSHT-UHFFFAOYSA-N

> <Salt_Solvent>


> <Salt_Solvent_ID>
0

> <MPID>
98337

> <LogBCF>
0.26

> <Tr_1_Tst_0>
1

$$$$
100408
  Mrv171c012241911322D          

 19 19  0  0  0  0            999 V2000
    3.7829   -1.4350    0.0000 O   0  0  0  0  0  0  0  0  0  0  0  0
    3.0684   -1.8475    0.0000 C   0  0  0  0  0  0  0  0  0  0  0  0
    2.3539   -1.4350    0.0000 C   0  0  0  0  0  0  0  0  0  0  0  0
    2.3539   -0.6100    0.0000 C   0  0  0  0  0  0  0  0  0  0  0  0
    2.3539    0.2150    0.0000 C   0  0  0  0  0  0  0  0  0  0  0  0
    1.5289   -0.6100    0.0000 C   0  0  0  0  0  0  0  0  0  0  0  0
    3.1789   -0.6100    0.0000 C   0  0  0  0  0  0  0  0  0  0  0  0
    1.6394   -1.8475    0.0000 C   0  0  0  0  0  0  0  0  0  0  0  0
    1.6394   -2.6725    0.0000 C   0  0  0  0  0  0  0  0  0  0  0  0
    0.9250   -3.0850    0.0000 C   0  0  0  0  0  0  0  0  0  0  0  0
    0.2105   -3.4975    0.0000 C   0  0  0  0  0  0  0  0  0  0  0  0
    0.5125   -2.3705    0.0000 C   0  0  0  0  0  0  0  0  0  0  0  0
    1.3375   -3.7994    0.0000 C   0  0  0  0  0  0  0  0  0  0  0  0
    2.3539   -3.0850    0.0000 C   0  0  0  0  0  0  0  0  0  0  0  0
    3.0684   -2.6725    0.0000 C   0  0  0  0  0  0  0  0  0  0  0  0
    3.7829   -3.0850    0.0000 C   0  0  0  0  0  0  0  0  0  0  0  0
    4.4973   -3.4975    0.0000 C   0  0  0  0  0  0  0  0  0  0  0  0
    4.1954   -2.3705    0.0000 C   0  0  0  0  0  0  0  0  0  0  0  0
    3.3704   -3.7994    0.0000 C   0  0  0  0  0  0  0  0  0  0  0  0
  1  2  1  0  0  0  0
  3  2  1  0  0  0  0
  3  4  1  0  0  0  0
  4  5  1  0  0  0  0
  4  6  1  0  0  0  0
  4  7  1  0  0  0  0
  8  3  2  0  0  0  0
  9  8  1  0  0  0  0
  9 10  1  0  0  0  0
 10 11  1  0  0  0  0
 10 12  1  0  0  0  0
 10 13  1  0  0  0  0
 14  9  2  0  0  0  0
 15 14  1  0  0  0  0
  2 15  2  0  0  0  0
 15 16  1  0  0  0  0
 16 17  1  0  0  0  0
 16 18  1  0  0  0  0
 16 19  1  0  0  0  0
M  END
> <ChemID>
100408

> <CAS>
732-26-3

> <Original_SMILES>
CC(C)(C)c1cc(c(O)c(c1)C(C)(C)C)C(C)(C)C

> <preferred_name>
2,4,6-Tris(tert-butyl)phenol

> <dsstox_substance_id>
DTXSID2021311

> <dsstox_compound_id>
DTXCID401311

> <qc_level>
DSSTox_Low

> <Canonical_QSARr>
CC(C)(C)C1=CC(=C(O)C(=C1)C(C)(C)C)C(C)(C)C

> <InChI_Code_QSARr>
InChI=1S/C18H30O/c1-16(2,3)12-10-13(17(4,5)6)15(19)14(11-12)18(7,8)9/h10-11,19H,1-9H3

> <InChI Key_QSARr>
PFEFOYRSMXVNEL-UHFFFAOYSA-N

> <Salt_Solvent>


> <Salt_Solvent_ID>
0

> <MPID>
98338

> <LogBCF>
4.14

> <Tr_1_Tst_0>
1

$$$$
100409
  Mrv171c012241911322D          

  6  5  0  0  0  0            999 V2000
    1.2375   -2.1439    0.0000 C   0  0  0  0  0  0  0  0  0  0  0  0
    1.6500   -1.4295    0.0000 C   0  0  0  0  0  0  0  0  0  0  0  0
    1.2375   -0.7150    0.0000 C   0  0  0  0  0  0  0  0  0  0  0  0
    1.6500   -0.0005    0.0000 C   0  0  0  0  0  0  0  0  0  0  0  0
    1.2375    0.7139    0.0000 Cl  0  0  0  0  0  0  0  0  0  0  0  0
    0.4125   -0.7150    0.0000 Cl  0  0  0  0  0  0  0  0  0  0  0  0
  1  2  2  0  0  0  0
  2  3  1  0  0  0  0
  3  4  1  0  0  0  0
  4  5  1  0  0  0  0
  3  6  1  0  0  0  0
M  END
> <ChemID>
100409

> <CAS>
760-23-6

> <Original_SMILES>
C=CC(Cl)CCl

> <preferred_name>
3,4-Dichloro-1-butene

> <dsstox_substance_id>
DTXSID8022113

> <dsstox_compound_id>
DTXCID902113

> <qc_level>
DSSTox_Low

> <Canonical_QSARr>
C=CC(Cl)CCl

> <InChI_Code_QSARr>
InChI=1S/C4H6Cl2/c1-2-4(6)3-5/h2,4H,1,3H2

> <InChI Key_QSARr>
XVEASTGLHPVZNA-UHFFFAOYSA-N

> <Salt_Solvent>


> <Salt_Solvent_ID>
0

> <MPID>
98339

> <LogBCF>
1.11

> <Tr_1_Tst_0>
1

$$$$
100410
  Mrv171c012241911322D          

  8  7  0  0  0  0            999 V2000
    3.2317   -2.1033    0.0000 C   0  0  0  0  0  0  0  0  0  0  0  0
    2.8192   -1.3889    0.0000 C   0  0  0  0  0  0  0  0  0  0  0  0
    1.9942   -1.3889    0.0000 C   0  0  0  0  0  0  0  0  0  0  0  0
    1.5817   -0.6744    0.0000 C   0  0  0  0  0  0  0  0  0  0  0  0
    0.7567   -0.6744    0.0000 C   0  0  0  0  0  0  0  0  0  0  0  0
    0.3442   -1.3889    0.0000 C   0  0  0  0  0  0  0  0  0  0  0  0
    0.3442    0.0401    0.0000 C   0  0  0  0  0  0  0  0  0  0  0  0
    3.2317   -0.6744    0.0000 C   0  0  0  0  0  0  0  0  0  0  0  0
  1  2  1  0  0  0  0
  2  3  2  0  0  0  0
  3  4  1  0  0  0  0
  4  5  2  0  0  0  0
  5  6  1  0  0  0  0
  5  7  1  0  0  0  0
  2  8  1  0  0  0  0
M  END
> <ChemID>
100410

> <CAS>
764-13-6

> <Original_SMILES>
CC(C)=CC=C(C)C

> <preferred_name>
2,5-Dimethyl-2,4-hexadiene

> <dsstox_substance_id>
DTXSID3022116

> <dsstox_compound_id>
DTXCID102116

> <qc_level>
DSSTox_Low

> <Canonical_QSARr>
CC(C)=CC=C(C)C

> <InChI_Code_QSARr>
InChI=1S/C8H14/c1-7(2)5-6-8(3)4/h5-6H,1-4H3

> <InChI Key_QSARr>
DZPCYXCBXGQBRN-UHFFFAOYSA-N

> <Salt_Solvent>


> <Salt_Solvent_ID>
0

> <MPID>
98340

> <LogBCF>
2.32

> <Tr_1_Tst_0>
0

$$$$
100411
  Mrv171c012241911322D          

  9  9  0  0  0  0            999 V2000
    1.6723   -1.3320    0.0000 C   0  0  0  0  0  0  0  0  0  0  0  0
    1.6723   -2.1570    0.0000 C   0  0  0  0  0  0  0  0  0  0  0  0
    1.6723   -2.9820    0.0000 N   0  0  0  0  0  0  0  0  0  0  0  0
    2.3868   -0.9195    0.0000 C   0  0  0  0  0  0  0  0  0  0  0  0
    2.3868   -0.0945    0.0000 C   0  0  0  0  0  0  0  0  0  0  0  0
    1.6723    0.3180    0.0000 C   0  0  0  0  0  0  0  0  0  0  0  0
    1.6723    1.1430    0.0000 O   0  0  0  0  0  0  0  0  0  0  0  0
    0.9579   -0.0945    0.0000 C   0  0  0  0  0  0  0  0  0  0  0  0
    0.9579   -0.9195    0.0000 C   0  0  0  0  0  0  0  0  0  0  0  0
  1  2  1  0  0  0  0
  2  3  3  0  0  0  0
  4  1  2  0  0  0  0
  5  4  1  0  0  0  0
  6  5  2  0  0  0  0
  6  7  1  0  0  0  0
  8  6  1  0  0  0  0
  9  8  2  0  0  0  0
  1  9  1  0  0  0  0
M  END
> <ChemID>
100411

> <CAS>
767-00-0

> <Original_SMILES>
N#Cc1ccc(O)cc1

> <preferred_name>
4-Hydroxybenzonitrile

> <dsstox_substance_id>
DTXSID9052509

> <dsstox_compound_id>
DTXCID7031082

> <qc_level>
DSSTox_Low

> <Canonical_QSARr>
N#CC1C=CC(O)=CC=1

> <InChI_Code_QSARr>
InChI=1S/C7H5NO/c8-5-6-1-3-7(9)4-2-6/h1-4,9H

> <InChI Key_QSARr>
CVNOWLNNPYYEOH-UHFFFAOYSA-N

> <Salt_Solvent>


> <Salt_Solvent_ID>
0

> <MPID>
98341

> <LogBCF>
0.91

> <Tr_1_Tst_0>
1

$$$$
100412
  Mrv171c012241911322D          

 16 17  0  0  0  0            999 V2000
    1.0717    1.4437    0.0000 C   0  0  0  0  0  0  0  0  0  0  0  0
    1.0717    0.6187    0.0000 C   0  0  0  0  0  0  0  0  0  0  0  0
    1.7862    0.2062    0.0000 C   0  0  0  0  0  0  0  0  0  0  0  0
    2.5006    0.6187    0.0000 C   0  0  0  0  0  0  0  0  0  0  0  0
    2.5006    1.4437    0.0000 C   0  0  0  0  0  0  0  0  0  0  0  0
    1.7862    1.8562    0.0000 C   0  0  0  0  0  0  0  0  0  0  0  0
    1.7862    2.6812    0.0000 Cl  0  0  0  0  0  0  0  0  0  0  0  0
    0.3572    1.8562    0.0000 N   0  0  0  0  0  0  0  0  0  0  0  0
    0.3572    2.6812    0.0000 N   0  0  0  0  0  0  0  0  0  0  0  0
   -0.3572    3.0937    0.0000 C   0  0  0  0  0  0  0  0  0  0  0  0
   -0.3572    3.9187    0.0000 C   0  0  0  0  0  0  0  0  0  0  0  0
   -1.0717    4.3312    0.0000 C   0  0  0  0  0  0  0  0  0  0  0  0
   -1.7862    3.9187    0.0000 C   0  0  0  0  0  0  0  0  0  0  0  0
   -1.7862    3.0937    0.0000 C   0  0  0  0  0  0  0  0  0  0  0  0
   -1.0717    2.6812    0.0000 C   0  0  0  0  0  0  0  0  0  0  0  0
   -1.0717    1.8562    0.0000 Cl  0  0  0  0  0  0  0  0  0  0  0  0
  2  1  1  0  0  0  0
  3  2  2  0  0  0  0
  4  3  1  0  0  0  0
  5  4  2  0  0  0  0
  6  5  1  0  0  0  0
  1  6  2  0  0  0  0
  6  7  1  0  0  0  0
  1  8  1  0  0  0  0
  8  9  1  0  0  0  0
  9 10  1  0  0  0  0
 11 10  1  0  0  0  0
 12 11  2  0  0  0  0
 13 12  1  0  0  0  0
 14 13  2  0  0  0  0
 15 14  1  0  0  0  0
 10 15  2  0  0  0  0
 15 16  1  0  0  0  0
M  END
> <ChemID>
100412

> <CAS>
782-74-1

> <Original_SMILES>
Clc1ccccc1NNc1ccccc1Cl

> <preferred_name>
1,2-Bis(2-chlorophenyl)hydrazine

> <dsstox_substance_id>
DTXSID3061138

> <dsstox_compound_id>
DTXCID2048119

> <qc_level>
Public_High

> <Canonical_QSARr>
ClC1C=CC=CC=1NNC1C=CC=CC=1Cl

> <InChI_Code_QSARr>
InChI=1S/C12H10Cl2N2/c13-9-5-1-3-7-11(9)15-16-12-8-4-2-6-10(12)14/h1-8,15-16H

> <InChI Key_QSARr>
IWKMQNKKYZERHI-UHFFFAOYSA-N

> <Salt_Solvent>


> <Salt_Solvent_ID>
0

> <MPID>
98342

> <LogBCF>
3.66

> <Tr_1_Tst_0>
1

$$$$
100413
  Mrv171c012241911322D          

 18 18  0  0  0  0            999 V2000
    5.4645   -0.9617    0.0000 O   0  0  0  0  0  0  0  0  0  0  0  0
    4.7500   -1.3742    0.0000 C   0  0  0  0  0  0  0  0  0  0  0  0
    4.0356   -0.9617    0.0000 C   0  0  0  0  0  0  0  0  0  0  0  0
    3.3211   -1.3742    0.0000 N   0  0  0  0  0  0  0  0  0  0  0  0
    2.6066   -0.9617    0.0000 C   0  0  0  0  0  0  0  0  0  0  0  0
    2.6066   -0.1367    0.0000 O   0  0  0  0  0  0  0  0  0  0  0  0
    1.8921   -1.3742    0.0000 N   0  0  0  0  0  0  0  0  0  0  0  0
    1.1777   -0.9617    0.0000 C   0  0  0  0  0  0  0  0  0  0  0  0
    1.1777   -0.1367    0.0000 C   0  0  0  0  0  0  0  0  0  0  0  0
    0.4632    0.2758    0.0000 O   0  0  0  0  0  0  0  0  0  0  0  0
    1.8921   -2.1992    0.0000 C   0  0  0  0  0  0  0  0  0  0  0  0
    1.1777   -2.6117    0.0000 O   0  0  0  0  0  0  0  0  0  0  0  0
    2.6066   -2.6117    0.0000 N   0  0  0  0  0  0  0  0  0  0  0  0
    2.6066   -3.4367    0.0000 C   0  0  0  0  0  0  0  0  0  0  0  0
    3.3211   -3.8492    0.0000 C   0  0  0  0  0  0  0  0  0  0  0  0
    3.3211   -4.6742    0.0000 O   0  0  0  0  0  0  0  0  0  0  0  0
    3.3211   -2.1992    0.0000 C   0  0  0  0  0  0  0  0  0  0  0  0
    4.0356   -2.6117    0.0000 O   0  0  0  0  0  0  0  0  0  0  0  0
  1  2  1  0  0  0  0
  2  3  1  0  0  0  0
  3  4  1  0  0  0  0
  5  4  1  0  0  0  0
  5  6  2  0  0  0  0
  7  5  1  0  0  0  0
  7  8  1  0  0  0  0
  8  9  1  0  0  0  0
  9 10  1  0  0  0  0
 11  7  1  0  0  0  0
 11 12  2  0  0  0  0
 13 11  1  0  0  0  0
 13 14  1  0  0  0  0
 14 15  1  0  0  0  0
 15 16  1  0  0  0  0
 17 13  1  0  0  0  0
  4 17  1  0  0  0  0
 17 18  2  0  0  0  0
M  END
> <ChemID>
100413

> <CAS>
839-90-7

> <Original_SMILES>
OCCN1C(=O)N(CCO)C(=O)N(CCO)C1=O

> <preferred_name>
Tris(2-hydroxyethyl) isocyanurate

> <dsstox_substance_id>
DTXSID4026266

> <dsstox_compound_id>
DTXCID206266

> <qc_level>
DSSTox_Low

> <Canonical_QSARr>
OCCN1C(=O)N(CCO)C(=O)N(CCO)C1=O

> <InChI_Code_QSARr>
InChI=1S/C9H15N3O6/c13-4-1-10-7(16)11(2-5-14)9(18)12(3-6-15)8(10)17/h13-15H,1-6H2

> <InChI Key_QSARr>
BPXVHIRIPLPOPT-UHFFFAOYSA-N

> <Salt_Solvent>


> <Salt_Solvent_ID>
0

> <MPID>
98343

> <LogBCF>
0.2

> <Tr_1_Tst_0>
1

$$$$
100415
  Mrv171c012241911322D          

  9  9  0  0  0  0            999 V2000
    1.8087   -1.6995    0.0000 Cl  0  0  0  0  0  0  0  0  0  0  0  0
    2.5232   -1.2870    0.0000 C   0  0  0  0  0  0  0  0  0  0  0  0
    3.2376   -1.6995    0.0000 C   0  0  0  0  0  0  0  0  0  0  0  0
    3.9521   -1.2870    0.0000 C   0  0  0  0  0  0  0  0  0  0  0  0
    3.9521   -0.4620    0.0000 C   0  0  0  0  0  0  0  0  0  0  0  0
    3.2376   -0.0495    0.0000 C   0  0  0  0  0  0  0  0  0  0  0  0
    3.2376    0.7755    0.0000 C   0  0  0  0  0  0  0  0  0  0  0  0
    2.5232    1.1880    0.0000 O   0  0  0  0  0  0  0  0  0  0  0  0
    2.5232   -0.4620    0.0000 C   0  0  0  0  0  0  0  0  0  0  0  0
  1  2  1  0  0  0  0
  3  2  2  0  0  0  0
  4  3  1  0  0  0  0
  5  4  2  0  0  0  0
  6  5  1  0  0  0  0
  6  7  1  0  0  0  0
  7  8  1  0  0  0  0
  9  6  2  0  0  0  0
  2  9  1  0  0  0  0
M  END
> <ChemID>
100415

> <CAS>
873-63-2

> <Original_SMILES>
OCc1cccc(Cl)c1

> <preferred_name>
3-Chlorobenzyl alcohol

> <dsstox_substance_id>
DTXSID70236273

> <dsstox_compound_id>
DTXCID70158764

> <qc_level>
Public_Medium

> <Canonical_QSARr>
OCC1C=CC=C(Cl)C=1

> <InChI_Code_QSARr>
InChI=1S/C7H7ClO/c8-7-3-1-2-6(4-7)5-9/h1-4,9H,5H2

> <InChI Key_QSARr>
ZSRDNPVYGSFUMD-UHFFFAOYSA-N

> <Salt_Solvent>


> <Salt_Solvent_ID>
0

> <MPID>
98344

> <LogBCF>
1.29

> <Tr_1_Tst_0>
0

$$$$
100416
  Mrv171c012241911322D          

 12 12  0  0  0  0            999 V2000
    4.5078    0.8250    0.0000 Cl  0  0  0  0  0  0  0  0  0  0  0  0
    3.7934    0.4125    0.0000 C   0  0  0  0  0  0  0  0  0  0  0  0
    3.0789    0.8250    0.0000 C   0  0  0  0  0  0  0  0  0  0  0  0
    3.0789    1.6500    0.0000 Cl  0  0  0  0  0  0  0  0  0  0  0  0
    2.3644    0.4125    0.0000 C   0  0  0  0  0  0  0  0  0  0  0  0
    1.6500    0.8250    0.0000 C   0  0  0  0  0  0  0  0  0  0  0  0
    2.3644   -0.4125    0.0000 C   0  0  0  0  0  0  0  0  0  0  0  0
    1.6500   -0.8250    0.0000 Cl  0  0  0  0  0  0  0  0  0  0  0  0
    3.0789   -0.8250    0.0000 C   0  0  0  0  0  0  0  0  0  0  0  0
    3.0789   -1.6500    0.0000 Cl  0  0  0  0  0  0  0  0  0  0  0  0
    3.7934   -0.4125    0.0000 C   0  0  0  0  0  0  0  0  0  0  0  0
    4.5078   -0.8250    0.0000 C   0  0  0  0  0  0  0  0  0  0  0  0
  1  2  1  0  0  0  0
  3  2  1  0  0  0  0
  3  4  1  0  0  0  0
  5  3  2  0  0  0  0
  5  6  1  0  0  0  0
  7  5  1  0  0  0  0
  7  8  1  0  0  0  0
  9  7  2  0  0  0  0
  9 10  1  0  0  0  0
 11  9  1  0  0  0  0
  2 11  2  0  0  0  0
 11 12  1  0  0  0  0
M  END
> <ChemID>
100416

> <CAS>
877-10-1

> <Original_SMILES>
Cc1c(Cl)c(Cl)c(C)c(Cl)c1Cl

> <preferred_name>
2,3,5,6-Tetrachloro-p-xylene

> <dsstox_substance_id>
DTXSID60236565

> <dsstox_compound_id>
DTXCID90159056

> <qc_level>
Public_Medium

> <Canonical_QSARr>
CC1C(Cl)=C(Cl)C(C)=C(Cl)C=1Cl

> <InChI_Code_QSARr>
InChI=1S/C8H6Cl4/c1-3-5(9)7(11)4(2)8(12)6(3)10/h1-2H3

> <InChI Key_QSARr>
CTSQZGJZQUVGBQ-UHFFFAOYSA-N

> <Salt_Solvent>


> <Salt_Solvent_ID>
0

> <MPID>
98345

> <LogBCF>
3.62

> <Tr_1_Tst_0>
1

$$$$
100417
  Mrv171c012241911322D          

 12 12  0  0  0  0            999 V2000
    2.1547   -1.2433    0.0000 C   0  0  0  0  0  0  0  0  0  0  0  0
    2.8691   -0.8308    0.0000 Cl  0  0  0  0  0  0  0  0  0  0  0  0
    1.4402   -0.8308    0.0000 C   0  0  0  0  0  0  0  0  0  0  0  0
    1.4402   -0.0058    0.0000 Cl  0  0  0  0  0  0  0  0  0  0  0  0
    0.7257   -1.2433    0.0000 C   0  0  0  0  0  0  0  0  0  0  0  0
    0.0112   -0.8308    0.0000 Cl  0  0  0  0  0  0  0  0  0  0  0  0
    0.7257   -2.0683    0.0000 C   0  0  0  0  0  0  0  0  0  0  0  0
    0.0112   -2.4808    0.0000 Cl  0  0  0  0  0  0  0  0  0  0  0  0
    1.4402   -2.4808    0.0000 C   0  0  0  0  0  0  0  0  0  0  0  0
    1.4402   -3.3058    0.0000 C   0  0  0  0  0  0  0  0  0  0  0  0
    2.1547   -2.0683    0.0000 C   0  0  0  0  0  0  0  0  0  0  0  0
    2.8691   -2.4808    0.0000 Cl  0  0  0  0  0  0  0  0  0  0  0  0
  1  2  1  0  0  0  0
  3  1  1  0  0  0  0
  3  4  1  0  0  0  0
  5  3  2  0  0  0  0
  5  6  1  0  0  0  0
  7  5  1  0  0  0  0
  7  8  1  0  0  0  0
  9  7  2  0  0  0  0
  9 10  1  0  0  0  0
 11  9  1  0  0  0  0
  1 11  2  0  0  0  0
 11 12  1  0  0  0  0
M  END
> <ChemID>
100417

> <CAS>
877-11-2

> <Original_SMILES>
Cc1c(Cl)c(Cl)c(Cl)c(Cl)c1Cl

> <preferred_name>


> <dsstox_substance_id>
DTXSID10870791

> <dsstox_compound_id>
DTXCID80818483

> <qc_level>


> <Canonical_QSARr>
CC1C(Cl)=C(Cl)C(Cl)=C(Cl)C=1Cl

> <InChI_Code_QSARr>
InChI=1S/C7H3Cl5/c1-2-3(8)5(10)7(12)6(11)4(2)9/h1H3

> <InChI Key_QSARr>
AVSIMRGRHWKCAY-UHFFFAOYSA-N

> <Salt_Solvent>


> <Salt_Solvent_ID>
0

> <MPID>
98346

> <LogBCF>
3.83

> <Tr_1_Tst_0>
1

$$$$
100418
  Mrv171c012241911322D          

 13 13  0  0  0  0            999 V2000
    3.0693   -0.9344    0.0000 N   0  3  0  0  0  0  0  0  0  0  0  0
    2.3549   -1.3469    0.0000 C   0  0  0  0  0  0  0  0  0  0  0  0
    1.6404   -0.9344    0.0000 C   0  0  0  0  0  0  0  0  0  0  0  0
    1.6404   -0.1094    0.0000 Cl  0  0  0  0  0  0  0  0  0  0  0  0
    0.9259   -1.3469    0.0000 C   0  0  0  0  0  0  0  0  0  0  0  0
    0.2114   -0.9344    0.0000 Cl  0  0  0  0  0  0  0  0  0  0  0  0
    0.9259   -2.1719    0.0000 C   0  0  0  0  0  0  0  0  0  0  0  0
    0.2114   -2.5844    0.0000 Cl  0  0  0  0  0  0  0  0  0  0  0  0
    1.6404   -2.5844    0.0000 C   0  0  0  0  0  0  0  0  0  0  0  0
    1.6404   -3.4094    0.0000 Cl  0  0  0  0  0  0  0  0  0  0  0  0
    2.3549   -2.1719    0.0000 C   0  0  0  0  0  0  0  0  0  0  0  0
    3.0693   -0.1094    0.0000 O   0  5  0  0  0  0  0  0  0  0  0  0
    3.7838   -1.3469    0.0000 O   0  0  0  0  0  0  0  0  0  0  0  0
  1  2  1  0  0  0  0
  3  2  1  0  0  0  0
  3  4  1  0  0  0  0
  5  3  2  0  0  0  0
  5  6  1  0  0  0  0
  7  5  1  0  0  0  0
  7  8  1  0  0  0  0
  9  7  2  0  0  0  0
  9 10  1  0  0  0  0
 11  9  1  0  0  0  0
  2 11  2  0  0  0  0
  1 12  1  0  0  0  0
  1 13  2  0  0  0  0
M  CHG  2   1   1  12  -1
M  END
> <ChemID>
100418

> <CAS>
879-39-0

> <Original_SMILES>
[O-][N+](=O)c1cc(Cl)c(Cl)c(Cl)c1Cl

> <preferred_name>
2,3,4,5-Tetrachloronitrobenzene

> <dsstox_substance_id>
DTXSID5026097

> <dsstox_compound_id>
DTXCID106097

> <qc_level>
DSSTox_Low

> <Canonical_QSARr>
[O-][N+](=O)C1=CC(Cl)=C(Cl)C(Cl)=C1Cl

> <InChI_Code_QSARr>
InChI=1S/C6HCl4NO2/c7-2-1-3(11(12)13)5(9)6(10)4(2)8/h1H

> <InChI Key_QSARr>
MTBYTWZDRVOMBR-UHFFFAOYSA-N

> <Salt_Solvent>


> <Salt_Solvent_ID>
0

> <MPID>
98347

> <LogBCF>
1.9

> <Tr_1_Tst_0>
1

$$$$
100419
  Mrv171c012241911322D          

 10  9  0  0  0  0            999 V2000
    1.4413   -0.7697    0.0000 C   0  0  0  0  0  0  0  0  0  0  0  0
    1.4413   -1.5947    0.0000 C   0  0  0  0  0  0  0  0  0  0  0  0
    0.7268   -2.0072    0.0000 C   0  0  0  0  0  0  0  0  0  0  0  0
    0.0124   -2.4197    0.0000 F   0  0  0  0  0  0  0  0  0  0  0  0
    1.1393   -2.7217    0.0000 F   0  0  0  0  0  0  0  0  0  0  0  0
    0.3143   -1.2928    0.0000 F   0  0  0  0  0  0  0  0  0  0  0  0
    2.1558   -2.0072    0.0000 O   0  0  0  0  0  0  0  0  0  0  0  0
    1.4413    0.0553    0.0000 F   0  0  0  0  0  0  0  0  0  0  0  0
    2.2663   -0.7697    0.0000 F   0  0  0  0  0  0  0  0  0  0  0  0
    0.6163   -0.7697    0.0000 F   0  0  0  0  0  0  0  0  0  0  0  0
  1  2  1  0  0  0  0
  2  3  1  0  0  0  0
  3  4  1  0  0  0  0
  3  5  1  0  0  0  0
  3  6  1  0  0  0  0
  2  7  1  0  0  0  0
  1  8  1  0  0  0  0
  1  9  1  0  0  0  0
  1 10  1  0  0  0  0
M  END
> <ChemID>
100419

> <CAS>
920-66-1

> <Original_SMILES>
OC(C(F)(F)F)C(F)(F)F

> <preferred_name>
1,1,1,3,3,3-Hexafluoro-2-propanol

> <dsstox_substance_id>
DTXSID1022134

> <dsstox_compound_id>
DTXCID902134

> <qc_level>
DSSTox_Low

> <Canonical_QSARr>
OC(C(F)(F)F)C(F)(F)F

> <InChI_Code_QSARr>
InChI=1S/C3H2F6O/c4-2(5,6)1(10)3(7,8)9/h1,10H

> <InChI Key_QSARr>
BYEAHWXPCBROCE-UHFFFAOYSA-N

> <Salt_Solvent>


> <Salt_Solvent_ID>
0

> <MPID>
98348

> <LogBCF>
0.4

> <Tr_1_Tst_0>
0

$$$$
100420
  Mrv171c012241911322D          

 11 11  0  0  0  0            999 V2000
    2.9302   -0.7547    0.0000 Cl  0  0  0  0  0  0  0  0  0  0  0  0
    2.2157   -1.1672    0.0000 C   0  0  0  0  0  0  0  0  0  0  0  0
    1.5012   -0.7547    0.0000 C   0  0  0  0  0  0  0  0  0  0  0  0
    1.5012    0.0703    0.0000 O   0  0  0  0  0  0  0  0  0  0  0  0
    0.7868   -1.1672    0.0000 C   0  0  0  0  0  0  0  0  0  0  0  0
    0.0723   -0.7547    0.0000 Cl  0  0  0  0  0  0  0  0  0  0  0  0
    0.7868   -1.9922    0.0000 C   0  0  0  0  0  0  0  0  0  0  0  0
    0.0723   -2.4047    0.0000 Cl  0  0  0  0  0  0  0  0  0  0  0  0
    1.5012   -2.4047    0.0000 C   0  0  0  0  0  0  0  0  0  0  0  0
    2.2157   -1.9922    0.0000 C   0  0  0  0  0  0  0  0  0  0  0  0
    2.9302   -2.4047    0.0000 Cl  0  0  0  0  0  0  0  0  0  0  0  0
  1  2  1  0  0  0  0
  3  2  1  0  0  0  0
  3  4  1  0  0  0  0
  5  3  2  0  0  0  0
  5  6  1  0  0  0  0
  7  5  1  0  0  0  0
  7  8  1  0  0  0  0
  9  7  2  0  0  0  0
 10  9  1  0  0  0  0
  2 10  2  0  0  0  0
 10 11  1  0  0  0  0
M  END
> <ChemID>
100420

> <CAS>
935-95-5

> <Original_SMILES>
Oc1c(Cl)c(Cl)cc(Cl)c1Cl

> <preferred_name>
2,3,5,6-Tetrachlorophenol

> <dsstox_substance_id>
DTXSID2026101

> <dsstox_compound_id>
DTXCID206101

> <qc_level>
DSSTox_Low

> <Canonical_QSARr>
OC1=C(Cl)C(Cl)=CC(Cl)=C1Cl

> <InChI_Code_QSARr>
InChI=1S/C6H2Cl4O/c7-2-1-3(8)5(10)6(11)4(2)9/h1,11H

> <InChI Key_QSARr>
KEWNKZNZRIAIAK-UHFFFAOYSA-N

> <Salt_Solvent>


> <Salt_Solvent_ID>
0

> <MPID>
98349

> <LogBCF>
2.15

> <Tr_1_Tst_0>
1

$$$$
100421
  Mrv171c012241911322D          

 12 12  0  0  0  0            999 V2000
    4.1504    0.8250    0.0000 Cl  0  0  0  0  0  0  0  0  0  0  0  0
    3.4359    0.4125    0.0000 C   0  0  0  0  0  0  0  0  0  0  0  0
    2.7215    0.8250    0.0000 C   0  0  0  0  0  0  0  0  0  0  0  0
    2.7215    1.6500    0.0000 Cl  0  0  0  0  0  0  0  0  0  0  0  0
    2.0070    0.4125    0.0000 C   0  0  0  0  0  0  0  0  0  0  0  0
    1.2925    0.8250    0.0000 Cl  0  0  0  0  0  0  0  0  0  0  0  0
    2.0070   -0.4125    0.0000 C   0  0  0  0  0  0  0  0  0  0  0  0
    2.7215   -0.8250    0.0000 C   0  0  0  0  0  0  0  0  0  0  0  0
    2.7215   -1.6500    0.0000 Cl  0  0  0  0  0  0  0  0  0  0  0  0
    3.4359   -0.4125    0.0000 C   0  0  0  0  0  0  0  0  0  0  0  0
    4.1504   -0.8250    0.0000 O   0  0  0  0  0  0  0  0  0  0  0  0
    4.8649   -0.4125    0.0000 C   0  0  0  0  0  0  0  0  0  0  0  0
  1  2  1  0  0  0  0
  3  2  1  0  0  0  0
  3  4  1  0  0  0  0
  5  3  2  0  0  0  0
  5  6  1  0  0  0  0
  7  5  1  0  0  0  0
  8  7  2  0  0  0  0
  8  9  1  0  0  0  0
 10  8  1  0  0  0  0
  2 10  2  0  0  0  0
 10 11  1  0  0  0  0
 11 12  1  0  0  0  0
M  END
> <ChemID>
100421

> <CAS>
938-22-7

> <Original_SMILES>
COc1c(Cl)cc(Cl)c(Cl)c1Cl

> <preferred_name>
2,3,4,6-Tetrachloroanisole

> <dsstox_substance_id>
DTXSID80239654

> <dsstox_compound_id>
DTXCID30162145

> <qc_level>
Public_Medium

> <Canonical_QSARr>
COC1C(Cl)=CC(Cl)=C(Cl)C=1Cl

> <InChI_Code_QSARr>
InChI=1S/C7H4Cl4O/c1-12-7-4(9)2-3(8)5(10)6(7)11/h2H,1H3

> <InChI Key_QSARr>
ITXDBGLYYSJNPK-UHFFFAOYSA-N

> <Salt_Solvent>


> <Salt_Solvent_ID>
0

> <MPID>
98350

> <LogBCF>
3.34

> <Tr_1_Tst_0>
1

$$$$
100422
  Mrv171c012241911322D          

 12 12  0  0  0  0            999 V2000
    4.3887    0.8250    0.0000 Cl  0  0  0  0  0  0  0  0  0  0  0  0
    3.6743    0.4125    0.0000 C   0  0  0  0  0  0  0  0  0  0  0  0
    2.9598    0.8250    0.0000 C   0  0  0  0  0  0  0  0  0  0  0  0
    2.9598    1.6500    0.0000 Cl  0  0  0  0  0  0  0  0  0  0  0  0
    2.2453    0.4125    0.0000 C   0  0  0  0  0  0  0  0  0  0  0  0
    1.5308    0.8250    0.0000 Cl  0  0  0  0  0  0  0  0  0  0  0  0
    2.2453   -0.4125    0.0000 C   0  0  0  0  0  0  0  0  0  0  0  0
    1.5308   -0.8250    0.0000 Cl  0  0  0  0  0  0  0  0  0  0  0  0
    2.9598   -0.8250    0.0000 C   0  0  0  0  0  0  0  0  0  0  0  0
    3.6743   -0.4125    0.0000 C   0  0  0  0  0  0  0  0  0  0  0  0
    4.3887   -0.8250    0.0000 O   0  0  0  0  0  0  0  0  0  0  0  0
    5.1032   -0.4125    0.0000 C   0  0  0  0  0  0  0  0  0  0  0  0
  1  2  1  0  0  0  0
  3  2  2  0  0  0  0
  3  4  1  0  0  0  0
  5  3  1  0  0  0  0
  5  6  1  0  0  0  0
  7  5  2  0  0  0  0
  7  8  1  0  0  0  0
  9  7  1  0  0  0  0
 10  9  2  0  0  0  0
  2 10  1  0  0  0  0
 10 11  1  0  0  0  0
 11 12  1  0  0  0  0
M  END
> <ChemID>
100422

> <CAS>
938-86-3

> <Original_SMILES>
COc1cc(Cl)c(Cl)c(Cl)c1Cl

> <preferred_name>
2,3,4,5-Tetrachloroanisole

> <dsstox_substance_id>
DTXSID90239660

> <dsstox_compound_id>
DTXCID40162151

> <qc_level>
Public_Medium

> <Canonical_QSARr>
COC1=CC(Cl)=C(Cl)C(Cl)=C1Cl

> <InChI_Code_QSARr>
InChI=1S/C7H4Cl4O/c1-12-4-2-3(8)5(9)7(11)6(4)10/h2H,1H3

> <InChI Key_QSARr>
FUUHMSUPRUNWRQ-UHFFFAOYSA-N

> <Salt_Solvent>


> <Salt_Solvent_ID>
0

> <MPID>
98351

> <LogBCF>
3.67

> <Tr_1_Tst_0>
1

$$$$
100423
  Mrv171c012241911322D          

 14 14  0  0  0  0            999 V2000
    0.2552   -2.0330    0.0000 O   0  5  0  0  0  0  0  0  0  0  0  0
    0.9696   -1.6205    0.0000 N   0  3  0  0  0  0  0  0  0  0  0  0
    0.9696   -0.7955    0.0000 C   0  0  0  0  0  0  0  0  0  0  0  0
    1.6841   -0.3830    0.0000 C   0  0  0  0  0  0  0  0  0  0  0  0
    1.6841    0.4420    0.0000 C   0  0  0  0  0  0  0  0  0  0  0  0
    0.9696    0.8545    0.0000 C   0  0  0  0  0  0  0  0  0  0  0  0
    0.9696    1.6795    0.0000 Cl  0  0  0  0  0  0  0  0  0  0  0  0
    0.2552    0.4420    0.0000 C   0  0  0  0  0  0  0  0  0  0  0  0
   -0.4593    0.8545    0.0000 S   0  0  0  0  0  0  0  0  0  0  0  0
   -1.1738    1.2670    0.0000 O   0  0  0  0  0  0  0  0  0  0  0  0
   -0.8718    0.1400    0.0000 O   0  0  0  0  0  0  0  0  0  0  0  0
   -0.0468    1.5689    0.0000 O   0  0  0  0  0  0  0  0  0  0  0  0
    0.2552   -0.3830    0.0000 C   0  0  0  0  0  0  0  0  0  0  0  0
    1.6841   -2.0330    0.0000 O   0  0  0  0  0  0  0  0  0  0  0  0
  1  2  1  0  0  0  0
  2  3  1  0  0  0  0
  4  3  1  0  0  0  0
  5  4  2  0  0  0  0
  6  5  1  0  0  0  0
  6  7  1  0  0  0  0
  8  6  2  0  0  0  0
  8  9  1  0  0  0  0
  9 10  2  0  0  0  0
  9 11  2  0  0  0  0
  9 12  1  0  0  0  0
 13  8  1  0  0  0  0
  3 13  2  0  0  0  0
  2 14  2  0  0  0  0
M  CHG  2   1  -1   2   1
M  END
> <ChemID>
100423

> <CAS>
946-30-5

> <Original_SMILES>
[Na+].[O-][N+](=O)c1cc(c(Cl)cc1)S([O-])(=O)=O

> <preferred_name>
Benzenesulfonic acid, 2-chloro-5-nitro-, sodium salt

> <dsstox_substance_id>
DTXSID4061339

> <dsstox_compound_id>
DTXCID9048934

> <qc_level>
Public_High

> <Canonical_QSARr>
[O-][N+](=O)C1=CC(=C(Cl)C=C1)S(O)(=O)=O

> <InChI_Code_QSARr>
InChI=1S/C6H4ClNO5S/c7-5-2-1-4(8(9)10)3-6(5)14(11,12)13/h1-3H,(H,11,12,13)

> <InChI Key_QSARr>
GNTARUIZNIWBCN-UHFFFAOYSA-N

> <Salt_Solvent>
[Na+]

> <Salt_Solvent_ID>
110

> <MPID>
98352

> <LogBCF>
0.48

> <Tr_1_Tst_0>
0

$$$$
100424
  Mrv171c012241911322D          

 14 14  0  0  0  0            999 V2000
    0.8634    0.1535    0.0000 N   0  0  0  0  0  0  0  0  0  0  0  0
    0.7877   -0.6681    0.0000 C   0  0  0  0  0  0  0  0  0  0  0  0
    0.1519   -1.3090    0.0000 C   0  0  0  0  0  0  0  0  0  0  0  0
    0.3338   -2.1137    0.0000 C   0  0  0  0  0  0  0  0  0  0  0  0
    1.1216   -2.3585    0.0000 C   0  0  0  0  0  0  0  0  0  0  0  0
    1.3036   -3.1632    0.0000 C   0  0  0  0  0  0  0  0  0  0  0  0
    2.0914   -3.4080    0.0000 C   0  0  0  0  0  0  0  0  0  0  0  0
    2.6973   -2.8481    0.0000 C   0  0  0  0  0  0  0  0  0  0  0  0
    2.5154   -2.0434    0.0000 C   0  0  0  0  0  0  0  0  0  0  0  0
    3.1213   -1.4835    0.0000 C   0  0  0  0  0  0  0  0  0  0  0  0
    2.9394   -0.6788    0.0000 C   0  0  0  0  0  0  0  0  0  0  0  0
    2.0897   -0.3737    0.0000 C   0  0  0  0  0  0  0  0  0  0  0  0
    1.6681    0.3354    0.0000 C   0  0  0  0  0  0  0  0  0  0  0  0
    1.9939    1.0933    0.0000 O   0  0  0  0  0  0  0  0  0  0  0  0
  2  1  1  0  0  0  0
  3  2  1  0  0  0  0
  4  3  1  0  0  0  0
  5  4  1  0  0  0  0
  6  5  1  0  0  0  0
  7  6  1  0  0  0  0
  8  7  1  0  0  0  0
  9  8  1  0  0  0  0
 10  9  1  0  0  0  0
 11 10  1  0  0  0  0
 12 11  1  0  0  0  0
 13 12  1  0  0  0  0
  1 13  1  0  0  0  0
 13 14  2  0  0  0  0
M  END
> <ChemID>
100424

> <CAS>
947-04-6

> <Original_SMILES>
O=C1CCCCCCCCCCCN1

> <preferred_name>
Azacyclotridecan-2-one

> <dsstox_substance_id>
DTXSID1027344

> <dsstox_compound_id>
DTXCID107344

> <qc_level>
DSSTox_Low

> <Canonical_QSARr>
O=C1CCCCCCCCCCCN1

> <InChI_Code_QSARr>
InChI=1S/C12H23NO/c14-12-10-8-6-4-2-1-3-5-7-9-11-13-12/h1-11H2,(H,13,14)

> <InChI Key_QSARr>
JHWNWJKBPDFINM-UHFFFAOYSA-N

> <Salt_Solvent>


> <Salt_Solvent_ID>
0

> <MPID>
98353

> <LogBCF>
0.41

> <Tr_1_Tst_0>
0

$$$$
100425
  Mrv171c012241911322D          

 15 17  0  0  0  0            999 V2000
    2.6922    1.8838    0.0000 Cl  0  0  0  0  0  0  0  0  0  0  0  0
    3.1047    1.1693    0.0000 C   0  0  0  0  0  0  0  0  0  0  0  0
    3.9297    1.1693    0.0000 C   0  0  0  0  0  0  0  0  0  0  0  0
    4.3422    0.4548    0.0000 C   0  0  0  0  0  0  0  0  0  0  0  0
    5.1672    0.4548    0.0000 C   0  0  0  0  0  0  0  0  0  0  0  0
    5.5797   -0.2597    0.0000 C   0  0  0  0  0  0  0  0  0  0  0  0
    5.1672   -0.9741    0.0000 C   0  0  0  0  0  0  0  0  0  0  0  0
    4.3422   -0.9741    0.0000 C   0  0  0  0  0  0  0  0  0  0  0  0
    3.9297   -0.2597    0.0000 C   0  0  0  0  0  0  0  0  0  0  0  0
    3.1047   -0.2597    0.0000 C   0  0  0  0  0  0  0  0  0  0  0  0
    2.6922   -0.9741    0.0000 C   0  0  0  0  0  0  0  0  0  0  0  0
    1.8672   -0.9741    0.0000 C   0  0  0  0  0  0  0  0  0  0  0  0
    1.4547   -0.2597    0.0000 C   0  0  0  0  0  0  0  0  0  0  0  0
    1.8672    0.4548    0.0000 C   0  0  0  0  0  0  0  0  0  0  0  0
    2.6922    0.4548    0.0000 C   0  0  0  0  0  0  0  0  0  0  0  0
  1  2  1  0  0  0  0
  3  2  2  0  0  0  0
  4  3  1  0  0  0  0
  4  5  2  0  0  0  0
  5  6  1  0  0  0  0
  6  7  2  0  0  0  0
  7  8  1  0  0  0  0
  8  9  2  0  0  0  0
  9  4  1  0  0  0  0
 10  9  1  0  0  0  0
 10 11  2  0  0  0  0
 11 12  1  0  0  0  0
 12 13  2  0  0  0  0
 13 14  1  0  0  0  0
 14 15  2  0  0  0  0
  2 15  1  0  0  0  0
 15 10  1  0  0  0  0
M  END
> <ChemID>
100425

> <CAS>
947-72-8

> <Original_SMILES>
Clc1cc2ccccc2c2ccccc21

> <preferred_name>
Phenanthrene, 9-chloro-

> <dsstox_substance_id>
DTXSID00241572

> <dsstox_compound_id>
DTXCID30164063

> <qc_level>
Public_Medium

> <Canonical_QSARr>
ClC1=CC2=CC=CC=C2C2=CC=CC=C21

> <InChI_Code_QSARr>
InChI=1S/C14H9Cl/c15-14-9-10-5-1-2-6-11(10)12-7-3-4-8-13(12)14/h1-9H

> <InChI Key_QSARr>
CJWHZQNUDAJJSB-UHFFFAOYSA-N

> <Salt_Solvent>


> <Salt_Solvent_ID>
0

> <MPID>
98354

> <LogBCF>
3.49

> <Tr_1_Tst_0>
1

$$$$
100426
  Mrv171c012241911322D          

 16 16  0  0  0  0            999 V2000
    3.1108   -3.1397    0.0000 S   0  0  0  0  0  0  0  0  0  0  0  0
    3.7783   -2.6548    0.0000 P   0  0  0  0  0  0  0  0  0  0  0  0
    4.2632   -3.3222    0.0000 O   0  0  0  0  0  0  0  0  0  0  0  0
    3.9276   -4.0759    0.0000 C   0  0  0  0  0  0  0  0  0  0  0  0
    4.4457   -2.1698    0.0000 O   0  0  0  0  0  0  0  0  0  0  0  0
    5.1994   -2.5054    0.0000 C   0  0  0  0  0  0  0  0  0  0  0  0
    3.2934   -1.9873    0.0000 S   0  0  0  0  0  0  0  0  0  0  0  0
    3.6289   -1.2336    0.0000 C   0  0  0  0  0  0  0  0  0  0  0  0
    3.1440   -0.5662    0.0000 N   0  0  0  0  0  0  0  0  0  0  0  0
    3.3989    0.2184    0.0000 N   0  0  0  0  0  0  0  0  0  0  0  0
    2.7315    0.7033    0.0000 C   0  0  0  0  0  0  0  0  0  0  0  0
    2.7315    1.5283    0.0000 O   0  0  0  0  0  0  0  0  0  0  0  0
    2.0170    1.9408    0.0000 C   0  0  0  0  0  0  0  0  0  0  0  0
    2.0641    0.2184    0.0000 S   0  0  0  0  0  0  0  0  0  0  0  0
    2.3190   -0.5662    0.0000 C   0  0  0  0  0  0  0  0  0  0  0  0
    1.8341   -1.2336    0.0000 O   0  0  0  0  0  0  0  0  0  0  0  0
  1  2  2  0  0  0  0
  2  3  1  0  0  0  0
  3  4  1  0  0  0  0
  2  5  1  0  0  0  0
  5  6  1  0  0  0  0
  2  7  1  0  0  0  0
  7  8  1  0  0  0  0
  8  9  1  0  0  0  0
 10  9  1  0  0  0  0
 11 10  2  0  0  0  0
 11 12  1  0  0  0  0
 12 13  1  0  0  0  0
 14 11  1  0  0  0  0
 15 14  1  0  0  0  0
  9 15  1  0  0  0  0
 15 16  2  0  0  0  0
M  END
> <ChemID>
100426

> <CAS>
950-37-8

> <Original_SMILES>
COC1=NN(CSP(=S)(OC)OC)C(=O)S1

> <preferred_name>
Methidathion

> <dsstox_substance_id>
DTXSID5020819

> <dsstox_compound_id>
DTXCID70819

> <qc_level>
DSSTox_Low

> <Canonical_QSARr>
COC1=NN(CSP(=S)(OC)OC)C(=O)S1

> <InChI_Code_QSARr>
InChI=1S/C6H11N2O4PS3/c1-10-5-7-8(6(9)16-5)4-15-13(14,11-2)12-3/h4H2,1-3H3

> <InChI Key_QSARr>
MEBQXILRKZHVCX-UHFFFAOYSA-N

> <Salt_Solvent>


> <Salt_Solvent_ID>
0

> <MPID>
98355

> <LogBCF>
0.74

> <Tr_1_Tst_0>
1

$$$$
100427
  Mrv171c012241911322D          

 19 19  0  0  0  0            999 V2000
   -0.7145    4.5375    0.0000 C   0  0  0  0  0  0  0  0  0  0  0  0
    0.0000    4.1250    0.0000 O   0  0  0  0  0  0  0  0  0  0  0  0
    0.0000    3.3000    0.0000 P   0  0  0  0  0  0  0  0  0  0  0  0
   -0.8250    3.3000    0.0000 O   0  0  0  0  0  0  0  0  0  0  0  0
    0.0000    2.4750    0.0000 O   0  0  0  0  0  0  0  0  0  0  0  0
    0.7145    2.0625    0.0000 C   0  0  0  0  0  0  0  0  0  0  0  0
    1.4289    2.4750    0.0000 C   0  0  0  0  0  0  0  0  0  0  0  0
    2.1434    2.0625    0.0000 Cl  0  0  0  0  0  0  0  0  0  0  0  0
    0.7145    1.2375    0.0000 C   0  0  0  0  0  0  0  0  0  0  0  0
    1.4289    0.8250    0.0000 C   0  0  0  0  0  0  0  0  0  0  0  0
    1.4289   -0.0000    0.0000 C   0  0  0  0  0  0  0  0  0  0  0  0
    2.1434   -0.4125    0.0000 Cl  0  0  0  0  0  0  0  0  0  0  0  0
    0.7145   -0.4125    0.0000 C   0  0  0  0  0  0  0  0  0  0  0  0
    0.7145   -1.2375    0.0000 Cl  0  0  0  0  0  0  0  0  0  0  0  0
    0.0000    0.0000    0.0000 C   0  0  0  0  0  0  0  0  0  0  0  0
    0.0000    0.8250    0.0000 C   0  0  0  0  0  0  0  0  0  0  0  0
   -0.7145    1.2375    0.0000 Cl  0  0  0  0  0  0  0  0  0  0  0  0
    0.8250    3.3000    0.0000 O   0  0  0  0  0  0  0  0  0  0  0  0
    1.2375    4.0145    0.0000 C   0  0  0  0  0  0  0  0  0  0  0  0
  1  2  1  0  0  0  0
  2  3  1  0  0  0  0
  3  4  2  0  0  0  0
  3  5  1  0  0  0  0
  5  6  1  0  0  0  0
  6  7  2  0  0  0  0
  7  8  1  4  0  0  0
  6  9  1  0  0  0  0
  9 10  1  0  0  0  0
 10 11  2  0  0  0  0
 11 12  1  0  0  0  0
 11 13  1  0  0  0  0
 13 14  1  0  0  0  0
 13 15  2  0  0  0  0
 15 16  1  0  0  0  0
  9 16  2  0  0  0  0
 16 17  1  0  0  0  0
  3 18  1  0  0  0  0
 18 19  1  0  0  0  0
M  END
> <ChemID>
100427

> <CAS>
961-11-5

> <Original_SMILES>
COP(=O)(OC(=CCl)c1cc(Cl)c(Cl)cc1Cl)OC

> <preferred_name>
Tetrachlorovinphos

> <dsstox_substance_id>
DTXSID1021320

> <dsstox_compound_id>
DTXCID301320

> <qc_level>
DSSTox_High

> <Canonical_QSARr>
COP(=O)(OC(=CCl)C1C=C(Cl)C(Cl)=CC=1Cl)OC

> <InChI_Code_QSARr>
InChI=1S/C10H9Cl4O4P/c1-16-19(15,17-2)18-10(5-11)6-3-8(13)9(14)4-7(6)12/h3-5H,1-2H3

> <InChI Key_QSARr>
UBCKGWBNUIFUST-UHFFFAOYSA-N

> <Salt_Solvent>


> <Salt_Solvent_ID>
0

> <MPID>
98356

> <LogBCF>
1.61

> <Tr_1_Tst_0>
1

$$$$
100428
  Mrv171c012241911322D          

 19 19  0  0  0  0            999 V2000
    4.4357   -2.0873    0.0000 P   0  0  0  0  0  0  0  0  0  0  0  0
    3.7213   -2.4998    0.0000 O   0  0  0  0  0  0  0  0  0  0  0  0
    3.0068   -2.0873    0.0000 C   0  0  0  0  0  0  0  0  0  0  0  0
    3.0068   -1.2623    0.0000 C   0  0  0  0  0  0  0  0  0  0  0  0
    2.2923   -0.8498    0.0000 C   0  0  0  0  0  0  0  0  0  0  0  0
    2.2923   -0.0248    0.0000 C   0  0  0  0  0  0  0  0  0  0  0  0
    1.5779   -1.2623    0.0000 N   0  0  0  0  0  0  0  0  0  0  0  0
    1.5779   -2.0873    0.0000 C   0  0  0  0  0  0  0  0  0  0  0  0
    0.8634   -2.4998    0.0000 C   0  0  0  0  0  0  0  0  0  0  0  0
    0.1489   -2.0873    0.0000 C   0  0  0  0  0  0  0  0  0  0  0  0
    0.8634   -3.3248    0.0000 C   0  0  0  0  0  0  0  0  0  0  0  0
    2.2923   -2.4998    0.0000 N   0  0  0  0  0  0  0  0  0  0  0  0
    5.1502   -1.6748    0.0000 O   0  0  0  0  0  0  0  0  0  0  0  0
    5.8647   -2.0873    0.0000 C   0  0  0  0  0  0  0  0  0  0  0  0
    6.5792   -1.6748    0.0000 C   0  0  0  0  0  0  0  0  0  0  0  0
    4.8482   -2.8017    0.0000 O   0  0  0  0  0  0  0  0  0  0  0  0
    5.6732   -2.8017    0.0000 C   0  0  0  0  0  0  0  0  0  0  0  0
    6.0857   -3.5162    0.0000 C   0  0  0  0  0  0  0  0  0  0  0  0
    4.0232   -1.3728    0.0000 O   0  0  0  0  0  0  0  0  0  0  0  0
  1  2  1  0  0  0  0
  2  3  1  0  0  0  0
  4  3  1  0  0  0  0
  5  4  2  0  0  0  0
  5  6  1  0  0  0  0
  7  5  1  0  0  0  0
  8  7  2  0  0  0  0
  8  9  1  0  0  0  0
  9 10  1  0  0  0  0
  9 11  1  0  0  0  0
 12  8  1  0  0  0  0
  3 12  2  0  0  0  0
  1 13  1  0  0  0  0
 13 14  1  0  0  0  0
 14 15  1  0  0  0  0
  1 16  1  0  0  0  0
 16 17  1  0  0  0  0
 17 18  1  0  0  0  0
  1 19  2  0  0  0  0
M  END
> <ChemID>
100428

> <CAS>
962-58-3

> <Original_SMILES>
Cc1cc([n]c([n]1)C(C)C)OP(=O)(OCC)OCC

> <preferred_name>
Diazoxon

> <dsstox_substance_id>
DTXSID5037523

> <dsstox_compound_id>
DTXCID3017523

> <qc_level>
DSSTox_Low

> <Canonical_QSARr>
CC1=CC(=NC(=N1)C(C)C)OP(=O)(OCC)OCC

> <InChI_Code_QSARr>
InChI=1S/C12H21N2O4P/c1-6-16-19(15,17-7-2)18-11-8-10(5)13-12(14-11)9(3)4/h8-9H,6-7H2,1-5H3

> <InChI Key_QSARr>
VBLJFQYCTRKKKF-UHFFFAOYSA-N

> <Salt_Solvent>


> <Salt_Solvent_ID>
0

> <MPID>
98357

> <LogBCF>
-0.35

> <Tr_1_Tst_0>
0

$$$$
100429
  Mrv171c012241911322D          

 25 24  0  0  0  0            999 V2000
    4.5696   -2.1173    0.0000 N   0  0  0  0  0  0  0  0  0  0  0  0
    4.5696   -1.2923    0.0000 C   0  0  0  0  0  0  0  0  0  0  0  0
    5.2841   -0.8798    0.0000 C   0  0  0  0  0  0  0  0  0  0  0  0
    5.2841   -0.0548    0.0000 C   0  0  0  0  0  0  0  0  0  0  0  0
    5.9985    0.3577    0.0000 C   0  0  0  0  0  0  0  0  0  0  0  0
    5.9985    1.1827    0.0000 C   0  0  0  0  0  0  0  0  0  0  0  0
    6.7130    1.5952    0.0000 C   0  0  0  0  0  0  0  0  0  0  0  0
    6.7130    2.4202    0.0000 C   0  0  0  0  0  0  0  0  0  0  0  0
    7.4275    2.8327    0.0000 C   0  0  0  0  0  0  0  0  0  0  0  0
    3.8551   -2.5298    0.0000 C   0  0  0  0  0  0  0  0  0  0  0  0
    3.8551   -3.3548    0.0000 C   0  0  0  0  0  0  0  0  0  0  0  0
    3.1407   -3.7673    0.0000 C   0  0  0  0  0  0  0  0  0  0  0  0
    3.1407   -4.5923    0.0000 C   0  0  0  0  0  0  0  0  0  0  0  0
    2.4262   -5.0048    0.0000 C   0  0  0  0  0  0  0  0  0  0  0  0
    2.4262   -5.8298    0.0000 C   0  0  0  0  0  0  0  0  0  0  0  0
    1.7117   -6.2423    0.0000 C   0  0  0  0  0  0  0  0  0  0  0  0
    1.7117   -7.0673    0.0000 C   0  0  0  0  0  0  0  0  0  0  0  0
    5.2841   -2.5298    0.0000 C   0  0  0  0  0  0  0  0  0  0  0  0
    5.2841   -3.3548    0.0000 C   0  0  0  0  0  0  0  0  0  0  0  0
    5.9985   -3.7673    0.0000 C   0  0  0  0  0  0  0  0  0  0  0  0
    5.9985   -4.5923    0.0000 C   0  0  0  0  0  0  0  0  0  0  0  0
    6.7130   -5.0048    0.0000 C   0  0  0  0  0  0  0  0  0  0  0  0
    6.7130   -5.8298    0.0000 C   0  0  0  0  0  0  0  0  0  0  0  0
    7.4275   -6.2423    0.0000 C   0  0  0  0  0  0  0  0  0  0  0  0
    7.4275   -7.0673    0.0000 C   0  0  0  0  0  0  0  0  0  0  0  0
  1  2  1  0  0  0  0
  2  3  1  0  0  0  0
  3  4  1  0  0  0  0
  4  5  1  0  0  0  0
  5  6  1  0  0  0  0
  6  7  1  0  0  0  0
  7  8  1  0  0  0  0
  8  9  1  0  0  0  0
  1 10  1  0  0  0  0
 10 11  1  0  0  0  0
 11 12  1  0  0  0  0
 12 13  1  0  0  0  0
 13 14  1  0  0  0  0
 14 15  1  0  0  0  0
 15 16  1  0  0  0  0
 16 17  1  0  0  0  0
  1 18  1  0  0  0  0
 18 19  1  0  0  0  0
 19 20  1  0  0  0  0
 20 21  1  0  0  0  0
 21 22  1  0  0  0  0
 22 23  1  0  0  0  0
 23 24  1  0  0  0  0
 24 25  1  0  0  0  0
M  END
> <ChemID>
100429

> <CAS>
1116-76-3

> <Original_SMILES>
CCCCCCCCN(CCCCCCCC)CCCCCCCC

> <preferred_name>
Trioctylamine

> <dsstox_substance_id>
DTXSID3047635

> <dsstox_compound_id>
DTXCID1027635

> <qc_level>
DSSTox_Low

> <Canonical_QSARr>
CCCCCCCCN(CCCCCCCC)CCCCCCCC

> <InChI_Code_QSARr>
InChI=1S/C24H51N/c1-4-7-10-13-16-19-22-25(23-20-17-14-11-8-5-2)24-21-18-15-12-9-6-3/h4-24H2,1-3H3

> <InChI Key_QSARr>
XTAZYLNFDRKIHJ-UHFFFAOYSA-N

> <Salt_Solvent>


> <Salt_Solvent_ID>
0

> <MPID>
98358

> <LogBCF>
1.93

> <Tr_1_Tst_0>
1

$$$$
100430
  Mrv171c012241911322D          

 16 17  0  0  0  0            999 V2000
    2.8692   -1.2402    0.0000 C   0  0  0  0  0  0  0  0  0  0  0  0
    2.1548   -0.8277    0.0000 C   0  0  0  0  0  0  0  0  0  0  0  0
    1.4403   -1.2402    0.0000 C   0  0  0  0  0  0  0  0  0  0  0  0
    0.7258   -0.8277    0.0000 C   0  0  0  0  0  0  0  0  0  0  0  0
    0.0114   -1.2402    0.0000 O   0  0  0  0  0  0  0  0  0  0  0  0
    0.7258   -0.0027    0.0000 O   0  0  0  0  0  0  0  0  0  0  0  0
    1.4403   -2.0652    0.0000 C   0  0  0  0  0  0  0  0  0  0  0  0
    2.1548   -2.4777    0.0000 C   0  0  0  0  0  0  0  0  0  0  0  0
    2.8692   -2.0652    0.0000 C   0  0  0  0  0  0  0  0  0  0  0  0
    3.5837   -2.4777    0.0000 C   0  0  0  0  0  0  0  0  0  0  0  0
    4.2982   -2.0652    0.0000 C   0  0  0  0  0  0  0  0  0  0  0  0
    5.0127   -2.4777    0.0000 C   0  0  0  0  0  0  0  0  0  0  0  0
    5.7271   -2.0652    0.0000 O   0  0  0  0  0  0  0  0  0  0  0  0
    5.0127   -3.3027    0.0000 O   0  0  0  0  0  0  0  0  0  0  0  0
    4.2982   -1.2402    0.0000 C   0  0  0  0  0  0  0  0  0  0  0  0
    3.5837   -0.8277    0.0000 C   0  0  0  0  0  0  0  0  0  0  0  0
  2  1  1  0  0  0  0
  3  2  2  0  0  0  0
  3  4  1  0  0  0  0
  4  5  1  0  0  0  0
  4  6  2  0  0  0  0
  7  3  1  0  0  0  0
  8  7  2  0  0  0  0
  9  8  1  0  0  0  0
  9  1  2  0  0  0  0
 10  9  1  0  0  0  0
 11 10  2  0  0  0  0
 11 12  1  0  0  0  0
 12 13  1  0  0  0  0
 12 14  2  0  0  0  0
 15 11  1  0  0  0  0
 16 15  2  0  0  0  0
  1 16  1  0  0  0  0
M  END
> <ChemID>
100430

> <CAS>
1141-38-4

> <Original_SMILES>
OC(=O)c1cc2ccc(cc2cc1)C(O)=O

> <preferred_name>
2,6-Naphthalenedicarboxylic acid

> <dsstox_substance_id>
DTXSID5029211

> <dsstox_compound_id>
DTXCID009211

> <qc_level>
DSSTox_Low

> <Canonical_QSARr>
OC(=O)C1=CC2C=CC(=CC=2C=C1)C(O)=O

> <InChI_Code_QSARr>
InChI=1S/C12H8O4/c13-11(14)9-3-1-7-5-10(12(15)16)4-2-8(7)6-9/h1-6H,(H,13,14)(H,15,16)

> <InChI Key_QSARr>
RXOHFPCZGPKIRD-UHFFFAOYSA-N

> <Salt_Solvent>


> <Salt_Solvent_ID>
0

> <MPID>
98359

> <LogBCF>
0.81

> <Tr_1_Tst_0>
1

$$$$
100432
  Mrv171c012241911322D          

 16 17  0  0  0  0            999 V2000
    2.4129   -1.1875    0.0000 S   0  0  0  0  0  0  0  0  0  0  0  0
    3.1274   -0.7750    0.0000 C   0  0  0  0  0  0  0  0  0  0  0  0
    3.8418   -1.1875    0.0000 N   0  0  0  0  0  0  0  0  0  0  0  0
    3.8418   -2.0125    0.0000 C   0  0  0  0  0  0  0  0  0  0  0  0
    3.1274   -2.4250    0.0000 C   0  0  0  0  0  0  0  0  0  0  0  0
    3.1274   -3.2500    0.0000 C   0  0  0  0  0  0  0  0  0  0  0  0
    3.8418   -3.6625    0.0000 C   0  0  0  0  0  0  0  0  0  0  0  0
    4.5563   -3.2500    0.0000 C   0  0  0  0  0  0  0  0  0  0  0  0
    4.5563   -2.4250    0.0000 C   0  0  0  0  0  0  0  0  0  0  0  0
    3.1274    0.0500    0.0000 N   0  0  0  0  0  0  0  0  0  0  0  0
    2.4129    0.4625    0.0000 C   0  0  0  0  0  0  0  0  0  0  0  0
    2.4129    1.2875    0.0000 C   0  0  0  0  0  0  0  0  0  0  0  0
    1.6984    1.7000    0.0000 C   0  0  0  0  0  0  0  0  0  0  0  0
    0.9839    1.2875    0.0000 C   0  0  0  0  0  0  0  0  0  0  0  0
    0.9839    0.4625    0.0000 C   0  0  0  0  0  0  0  0  0  0  0  0
    1.6984    0.0500    0.0000 C   0  0  0  0  0  0  0  0  0  0  0  0
  1  2  2  0  0  0  0
  2  3  1  0  0  0  0
  3  4  1  0  0  0  0
  5  4  1  0  0  0  0
  6  5  1  0  0  0  0
  7  6  1  0  0  0  0
  8  7  1  0  0  0  0
  9  8  1  0  0  0  0
  4  9  1  0  0  0  0
  2 10  1  0  0  0  0
 10 11  1  0  0  0  0
 12 11  1  0  0  0  0
 13 12  1  0  0  0  0
 14 13  1  0  0  0  0
 15 14  1  0  0  0  0
 16 15  1  0  0  0  0
 11 16  1  0  0  0  0
M  END
> <ChemID>
100432

> <CAS>
1212-29-9

> <Original_SMILES>
S=C(NC1CCCCC1)NC1CCCCC1

> <preferred_name>
N,N'-Dicyclohexylthiourea

> <dsstox_substance_id>
DTXSID9020451

> <dsstox_compound_id>
DTXCID70451

> <qc_level>
DSSTox_Low

> <Canonical_QSARr>
S=C(NC1CCCCC1)NC1CCCCC1

> <InChI_Code_QSARr>
InChI=1S/C13H24N2S/c16-13(14-11-7-3-1-4-8-11)15-12-9-5-2-6-10-12/h11-12H,1-10H2,(H2,14,15,16)

> <InChI Key_QSARr>
KAJICSGLHKRDLN-UHFFFAOYSA-N

> <Salt_Solvent>


> <Salt_Solvent_ID>
0

> <MPID>
98360

> <LogBCF>
0.64

> <Tr_1_Tst_0>
0

$$$$
100433
  Mrv171c012241911322D          

 25 26  0  0  0  0            999 V2000
    3.1872   -2.3886    0.0000 O   0  0  0  0  0  0  0  0  0  0  0  0
    3.9017   -2.8011    0.0000 P   0  0  0  0  0  0  0  0  0  0  0  0
    3.4892   -3.5156    0.0000 O   0  0  0  0  0  0  0  0  0  0  0  0
    2.6642   -3.5156    0.0000 C   0  0  0  0  0  0  0  0  0  0  0  0
    2.2517   -2.8011    0.0000 C   0  0  0  0  0  0  0  0  0  0  0  0
    1.4267   -2.8011    0.0000 C   0  0  0  0  0  0  0  0  0  0  0  0
    1.0142   -2.0866    0.0000 C   0  0  0  0  0  0  0  0  0  0  0  0
    0.1892   -2.0866    0.0000 C   0  0  0  0  0  0  0  0  0  0  0  0
   -0.2233   -1.3722    0.0000 C   0  0  0  0  0  0  0  0  0  0  0  0
    2.6642   -2.0866    0.0000 C   0  0  0  0  0  0  0  0  0  0  0  0
    2.2517   -1.3722    0.0000 C   0  0  0  0  0  0  0  0  0  0  0  0
    4.3142   -2.0866    0.0000 O   0  0  0  0  0  0  0  0  0  0  0  0
    3.9017   -1.3722    0.0000 C   0  0  0  0  0  0  0  0  0  0  0  0
    4.3142   -0.6577    0.0000 C   0  0  0  0  0  0  0  0  0  0  0  0
    3.9017    0.0568    0.0000 C   0  0  0  0  0  0  0  0  0  0  0  0
    3.0767    0.0568    0.0000 C   0  0  0  0  0  0  0  0  0  0  0  0
    2.6642   -0.6577    0.0000 C   0  0  0  0  0  0  0  0  0  0  0  0
    3.0767   -1.3722    0.0000 C   0  0  0  0  0  0  0  0  0  0  0  0
    4.6161   -3.2136    0.0000 O   0  0  0  0  0  0  0  0  0  0  0  0
    4.6161   -4.0386    0.0000 C   0  0  0  0  0  0  0  0  0  0  0  0
    3.9017   -4.4511    0.0000 C   0  0  0  0  0  0  0  0  0  0  0  0
    3.9017   -5.2761    0.0000 C   0  0  0  0  0  0  0  0  0  0  0  0
    4.6161   -5.6886    0.0000 C   0  0  0  0  0  0  0  0  0  0  0  0
    5.3306   -5.2761    0.0000 C   0  0  0  0  0  0  0  0  0  0  0  0
    5.3306   -4.4511    0.0000 C   0  0  0  0  0  0  0  0  0  0  0  0
  1  2  2  0  0  0  0
  2  3  1  0  0  0  0
  3  4  1  0  0  0  0
  4  5  1  0  0  0  0
  5  6  1  0  0  0  0
  6  7  1  0  0  0  0
  7  8  1  0  0  0  0
  8  9  1  0  0  0  0
  5 10  1  0  0  0  0
 10 11  1  0  0  0  0
  2 12  1  0  0  0  0
 12 13  1  0  0  0  0
 14 13  1  0  0  0  0
 15 14  2  0  0  0  0
 16 15  1  0  0  0  0
 17 16  2  0  0  0  0
 18 17  1  0  0  0  0
 13 18  2  0  0  0  0
  2 19  1  0  0  0  0
 19 20  1  0  0  0  0
 21 20  1  0  0  0  0
 22 21  2  0  0  0  0
 23 22  1  0  0  0  0
 24 23  2  0  0  0  0
 25 24  1  0  0  0  0
 20 25  2  0  0  0  0
M  END
> <ChemID>
100433

> <CAS>
1241-94-7

> <Original_SMILES>
CCC(COP(=O)(Oc1ccccc1)Oc1ccccc1)CCCC

> <preferred_name>
2-Ethylhexyl diphenyl phosphate

> <dsstox_substance_id>
DTXSID1025300

> <dsstox_compound_id>
DTXCID105300

> <qc_level>
DSSTox_High

> <Canonical_QSARr>
CCC(COP(=O)(OC1C=CC=CC=1)OC1C=CC=CC=1)CCCC

> <InChI_Code_QSARr>
InChI=1S/C20H27O4P/c1-3-5-12-18(4-2)17-22-25(21,23-19-13-8-6-9-14-19)24-20-15-10-7-11-16-20/h6-11,13-16,18H,3-5,12,17H2,1-2H3

> <InChI Key_QSARr>
CGSLYBDCEGBZCG-UHFFFAOYSA-N

> <Salt_Solvent>


> <Salt_Solvent_ID>
0

> <MPID>
98361

> <LogBCF>
2.49

> <Tr_1_Tst_0>
1

$$$$
100437
  Mrv171c012241911322D          

 18 18  0  0  0  0            999 V2000
    5.2223   -1.2927    0.0000 C   0  0  0  0  0  0  0  0  0  0  0  0
    5.9368   -1.7052    0.0000 C   0  0  0  0  0  0  0  0  0  0  0  0
    5.6348   -0.5783    0.0000 C   0  0  0  0  0  0  0  0  0  0  0  0
    4.8098   -2.0072    0.0000 C   0  0  0  0  0  0  0  0  0  0  0  0
    4.5078   -0.8802    0.0000 C   0  0  0  0  0  0  0  0  0  0  0  0
    4.5078   -0.0552    0.0000 C   0  0  0  0  0  0  0  0  0  0  0  0
    3.7934    0.3573    0.0000 C   0  0  0  0  0  0  0  0  0  0  0  0
    3.7934    1.1823    0.0000 C   0  0  0  0  0  0  0  0  0  0  0  0
    3.7934    2.0073    0.0000 C   0  0  0  0  0  0  0  0  0  0  0  0
    4.6184    1.1823    0.0000 C   0  0  0  0  0  0  0  0  0  0  0  0
    2.9684    1.1823    0.0000 C   0  0  0  0  0  0  0  0  0  0  0  0
    3.0789   -0.0552    0.0000 C   0  0  0  0  0  0  0  0  0  0  0  0
    3.0789   -0.8802    0.0000 C   0  0  0  0  0  0  0  0  0  0  0  0
    2.3644   -1.2927    0.0000 C   0  0  0  0  0  0  0  0  0  0  0  0
    1.6499   -1.7052    0.0000 C   0  0  0  0  0  0  0  0  0  0  0  0
    2.7769   -2.0072    0.0000 C   0  0  0  0  0  0  0  0  0  0  0  0
    1.9519   -0.5783    0.0000 C   0  0  0  0  0  0  0  0  0  0  0  0
    3.7934   -1.2927    0.0000 C   0  0  0  0  0  0  0  0  0  0  0  0
  1  2  1  0  0  0  0
  1  3  1  0  0  0  0
  1  4  1  0  0  0  0
  1  5  1  0  0  0  0
  6  5  1  0  0  0  0
  7  6  2  0  0  0  0
  7  8  1  0  0  0  0
  8  9  1  0  0  0  0
  8 10  1  0  0  0  0
  8 11  1  0  0  0  0
 12  7  1  0  0  0  0
 13 12  2  0  0  0  0
 13 14  1  0  0  0  0
 14 15  1  0  0  0  0
 14 16  1  0  0  0  0
 14 17  1  0  0  0  0
 18 13  1  0  0  0  0
  5 18  2  0  0  0  0
M  END
> <ChemID>
100437

> <CAS>
1460-02-2

> <Original_SMILES>
CC(C)(C)c1cc(cc(c1)C(C)(C)C)C(C)(C)C

> <preferred_name>
1,3,5-Tri-tert-butylbenzene

> <dsstox_substance_id>
DTXSID50163255

> <dsstox_compound_id>
DTXCID5085746

> <qc_level>
Public_Medium

> <Canonical_QSARr>
CC(C)(C)C1C=C(C=C(C=1)C(C)(C)C)C(C)(C)C

> <InChI_Code_QSARr>
InChI=1S/C18H30/c1-16(2,3)13-10-14(17(4,5)6)12-15(11-13)18(7,8)9/h10-12H,1-9H3

> <InChI Key_QSARr>
GUFMBISUSZUUCB-UHFFFAOYSA-N

> <Salt_Solvent>


> <Salt_Solvent_ID>
0

> <MPID>
98362

> <LogBCF>
4.36

> <Tr_1_Tst_0>
1

$$$$
100438
  Mrv171c012241911322D          

 10 10  0  0  0  0            999 V2000
    1.9316   -1.6937    0.0000 C   0  0  0  0  0  0  0  0  0  0  0  0
    2.6461   -2.1062    0.0000 C   0  0  0  0  0  0  0  0  0  0  0  0
    2.6461   -2.9312    0.0000 N   0  0  0  0  0  0  0  0  0  0  0  0
    1.9316   -0.8687    0.0000 C   0  0  0  0  0  0  0  0  0  0  0  0
    1.2171   -0.4562    0.0000 C   0  0  0  0  0  0  0  0  0  0  0  0
    1.2171    0.3688    0.0000 C   0  0  0  0  0  0  0  0  0  0  0  0
    0.5027    0.7813    0.0000 N   0  0  0  0  0  0  0  0  0  0  0  0
    0.5027   -0.8687    0.0000 C   0  0  0  0  0  0  0  0  0  0  0  0
    0.5027   -1.6937    0.0000 C   0  0  0  0  0  0  0  0  0  0  0  0
    1.2171   -2.1062    0.0000 C   0  0  0  0  0  0  0  0  0  0  0  0
  1  2  1  0  0  0  0
  2  3  1  0  0  0  0
  4  1  1  0  0  0  0
  5  4  2  0  0  0  0
  5  6  1  0  0  0  0
  6  7  1  0  0  0  0
  8  5  1  0  0  0  0
  9  8  2  0  0  0  0
 10  9  1  0  0  0  0
  1 10  2  0  0  0  0
M  END
> <ChemID>
100438

> <CAS>
1477-55-0

> <Original_SMILES>
NCc1cc(CN)ccc1

> <preferred_name>
1,3-Benzenedimethanamine

> <dsstox_substance_id>
DTXSID9029649

> <dsstox_compound_id>
DTXCID909649

> <qc_level>
DSSTox_Low

> <Canonical_QSARr>
NCC1C=C(CN)C=CC=1

> <InChI_Code_QSARr>
InChI=1S/C8H12N2/c9-5-7-2-1-3-8(4-7)6-10/h1-4H,5-6,9-10H2

> <InChI Key_QSARr>
FDLQZKYLHJJBHD-UHFFFAOYSA-N

> <Salt_Solvent>


> <Salt_Solvent_ID>
0

> <MPID>
98363

> <LogBCF>
0.43

> <Tr_1_Tst_0>
1

$$$$
100439
  Mrv171c012241911322D          

 11 11  0  0  0  0            999 V2000
    2.1440   -1.7150    0.0000 O   0  0  0  0  0  0  0  0  0  0  0  0
    1.4296   -2.1275    0.0000 C   0  0  0  0  0  0  0  0  0  0  0  0
    0.7151   -1.7150    0.0000 C   0  0  0  0  0  0  0  0  0  0  0  0
    0.7151   -0.8900    0.0000 C   0  0  0  0  0  0  0  0  0  0  0  0
    0.0006   -0.4775    0.0000 C   0  0  0  0  0  0  0  0  0  0  0  0
    1.4296   -0.4775    0.0000 C   0  0  0  0  0  0  0  0  0  0  0  0
    0.0006   -2.1275    0.0000 C   0  0  0  0  0  0  0  0  0  0  0  0
    0.0006   -2.9525    0.0000 C   0  0  0  0  0  0  0  0  0  0  0  0
    0.7151   -3.3650    0.0000 C   0  0  0  0  0  0  0  0  0  0  0  0
    0.7151   -4.1900    0.0000 C   0  0  0  0  0  0  0  0  0  0  0  0
    1.4296   -2.9525    0.0000 C   0  0  0  0  0  0  0  0  0  0  0  0
  1  2  1  0  0  0  0
  3  2  1  0  0  0  0
  3  4  1  0  0  0  0
  4  5  1  0  0  0  0
  4  6  1  0  0  0  0
  7  3  1  0  0  0  0
  8  7  1  0  0  0  0
  9  8  1  0  0  0  0
  9 10  1  0  0  0  0
 11  9  1  0  0  0  0
  2 11  1  0  0  0  0
M  END
> <ChemID>
100439

> <CAS>
1490-04-6|2216-51-5

> <Original_SMILES>
CC(C)C1CCC(C)CC1O

> <preferred_name>
Menthol|(1R,2S,5R)-(-)-Menthol

> <dsstox_substance_id>
DTXSID8029650|DTXSID1022180

> <dsstox_compound_id>
DTXCID30805|DTXCID802180

> <qc_level>
DSSTox_High

> <Canonical_QSARr>
CC(C)C1CCC(C)CC1O

> <InChI_Code_QSARr>
InChI=1S/C10H20O/c1-7(2)9-5-4-8(3)6-10(9)11/h7-11H,4-6H2,1-3H3

> <InChI Key_QSARr>
NOOLISFMXDJSKH-UHFFFAOYSA-N

> <Salt_Solvent>


> <Salt_Solvent_ID>
0

> <MPID>
98364|98398

> <LogBCF>
1.035

> <Tr_1_Tst_0>
0

$$$$
100440
  Mrv171c012241911322D          

 13 14  0  0  0  0            999 V2000
    1.4390   -2.1038    0.0000 C   0  0  0  0  0  0  0  0  0  0  0  0
    0.7246   -1.6913    0.0000 O   0  0  0  0  0  0  0  0  0  0  0  0
    1.4390   -2.9288    0.0000 C   0  0  0  0  0  0  0  0  0  0  0  0
    2.1535   -3.3413    0.0000 C   0  0  0  0  0  0  0  0  0  0  0  0
    2.8680   -2.9288    0.0000 C   0  0  0  0  0  0  0  0  0  0  0  0
    2.8680   -2.1038    0.0000 C   0  0  0  0  0  0  0  0  0  0  0  0
    2.1535   -1.6913    0.0000 C   0  0  0  0  0  0  0  0  0  0  0  0
    2.1535   -0.8663    0.0000 C   0  0  0  0  0  0  0  0  0  0  0  0
    2.8680   -0.4538    0.0000 C   0  0  0  0  0  0  0  0  0  0  0  0
    2.8680    0.3712    0.0000 C   0  0  0  0  0  0  0  0  0  0  0  0
    2.1535    0.7837    0.0000 C   0  0  0  0  0  0  0  0  0  0  0  0
    1.4390    0.3712    0.0000 C   0  0  0  0  0  0  0  0  0  0  0  0
    1.4390   -0.4538    0.0000 C   0  0  0  0  0  0  0  0  0  0  0  0
  1  2  2  0  0  0  0
  3  1  1  0  0  0  0
  4  3  1  0  0  0  0
  5  4  1  0  0  0  0
  6  5  1  0  0  0  0
  7  6  1  0  0  0  0
  1  7  1  0  0  0  0
  7  8  1  0  0  0  0
  9  8  1  0  0  0  0
 10  9  1  0  0  0  0
 11 10  1  0  0  0  0
 12 11  1  0  0  0  0
 13 12  1  0  0  0  0
  8 13  2  0  0  0  0
M  END
> <ChemID>
100440

> <CAS>
1502-22-3

> <Original_SMILES>
O=C1CCCCC1C1CCCCC=1

> <preferred_name>


> <dsstox_substance_id>
DTXSID30870879

> <dsstox_compound_id>
DTXCID00818561

> <qc_level>


> <Canonical_QSARr>
O=C1CCCCC1C1CCCCC=1

> <InChI_Code_QSARr>
InChI=1S/C12H18O/c13-12-9-5-4-8-11(12)10-6-2-1-3-7-10/h6,11H,1-5,7-9H2

> <InChI Key_QSARr>
GVNVAWHJIKLAGL-UHFFFAOYSA-N

> <Salt_Solvent>


> <Salt_Solvent_ID>
0

> <MPID>
98365

> <LogBCF>
0.7

> <Tr_1_Tst_0>
1

$$$$
100441
  Mrv171c012241911322D          

 29 30  0  0  0  0            999 V2000
    2.6665   -2.9980    0.0000 F   0  0  0  0  0  0  0  0  0  0  0  0
    3.0790   -3.7125    0.0000 C   0  0  0  0  0  0  0  0  0  0  0  0
    2.3645   -4.1250    0.0000 C   0  0  0  0  0  0  0  0  0  0  0  0
    2.3645   -4.9500    0.0000 F   0  0  0  0  0  0  0  0  0  0  0  0
    1.6500   -3.7125    0.0000 F   0  0  0  0  0  0  0  0  0  0  0  0
    3.7934   -3.3000    0.0000 O   0  0  0  0  0  0  0  0  0  0  0  0
    3.7934   -2.4750    0.0000 C   0  0  0  0  0  0  0  0  0  0  0  0
    4.5079   -2.0625    0.0000 C   0  0  0  0  0  0  0  0  0  0  0  0
    4.5079   -1.2375    0.0000 C   0  0  0  0  0  0  0  0  0  0  0  0
    3.7934   -0.8250    0.0000 C   0  0  0  0  0  0  0  0  0  0  0  0
    3.7934    0.0000    0.0000 C   0  0  0  0  0  0  0  0  0  0  0  0
    4.6184    0.0000    0.0000 C   0  0  0  0  0  0  0  0  0  0  0  0
    2.9684    0.0000    0.0000 C   0  0  0  0  0  0  0  0  0  0  0  0
    3.7934    0.8250    0.0000 C   0  0  0  0  0  0  0  0  0  0  0  0
    4.5079    1.2375    0.0000 C   0  0  0  0  0  0  0  0  0  0  0  0
    4.5079    2.0625    0.0000 C   0  0  0  0  0  0  0  0  0  0  0  0
    3.7934    2.4750    0.0000 C   0  0  0  0  0  0  0  0  0  0  0  0
    3.7934    3.3000    0.0000 O   0  0  0  0  0  0  0  0  0  0  0  0
    4.5079    3.7125    0.0000 C   0  0  0  0  0  0  0  0  0  0  0  0
    5.2224    4.1250    0.0000 C   0  0  0  0  0  0  0  0  0  0  0  0
    5.2224    4.9500    0.0000 F   0  0  0  0  0  0  0  0  0  0  0  0
    5.9369    3.7125    0.0000 F   0  0  0  0  0  0  0  0  0  0  0  0
    4.9204    2.9980    0.0000 F   0  0  0  0  0  0  0  0  0  0  0  0
    4.0954    4.4270    0.0000 F   0  0  0  0  0  0  0  0  0  0  0  0
    3.0790    2.0625    0.0000 C   0  0  0  0  0  0  0  0  0  0  0  0
    3.0790    1.2375    0.0000 C   0  0  0  0  0  0  0  0  0  0  0  0
    3.0790   -1.2375    0.0000 C   0  0  0  0  0  0  0  0  0  0  0  0
    3.0790   -2.0625    0.0000 C   0  0  0  0  0  0  0  0  0  0  0  0
    3.4915   -4.4270    0.0000 F   0  0  0  0  0  0  0  0  0  0  0  0
  1  2  1  0  0  0  0
  2  3  1  0  0  0  0
  3  4  1  0  0  0  0
  3  5  1  0  0  0  0
  2  6  1  0  0  0  0
  6  7  1  0  0  0  0
  8  7  1  0  0  0  0
  9  8  2  0  0  0  0
 10  9  1  0  0  0  0
 10 11  1  0  0  0  0
 11 12  1  0  0  0  0
 11 13  1  0  0  0  0
 11 14  1  0  0  0  0
 15 14  1  0  0  0  0
 16 15  2  0  0  0  0
 17 16  1  0  0  0  0
 17 18  1  0  0  0  0
 18 19  1  0  0  0  0
 19 20  1  0  0  0  0
 20 21  1  0  0  0  0
 20 22  1  0  0  0  0
 19 23  1  0  0  0  0
 19 24  1  0  0  0  0
 25 17  2  0  0  0  0
 26 25  1  0  0  0  0
 14 26  2  0  0  0  0
 27 10  2  0  0  0  0
 28 27  1  0  0  0  0
  7 28  2  0  0  0  0
  2 29  1  0  0  0  0
M  END
> <ChemID>
100441

> <CAS>
1544-19-0

> <Original_SMILES>
CC(C)(c1ccc(cc1)OC(F)(F)C(F)F)c1ccc(cc1)OC(F)(F)C(F)F

> <preferred_name>
1,1'-Isopropylidenebis(4-(1,1,2,2-tetrafluoroethoxy)benzene)

> <dsstox_substance_id>
DTXSID20165620

> <dsstox_compound_id>
DTXCID6088111

> <qc_level>
Public_Medium

> <Canonical_QSARr>
CC(C)(C1C=CC(=CC=1)OC(F)(F)C(F)F)C1C=CC(=CC=1)OC(F)(F)C(F)F

> <InChI_Code_QSARr>
InChI=1S/C19H16F8O2/c1-17(2,11-3-7-13(8-4-11)28-18(24,25)15(20)21)12-5-9-14(10-6-12)29-19(26,27)16(22)23/h3-10,15-16H,1-2H3

> <InChI Key_QSARr>
NILNWNGNABYYHH-UHFFFAOYSA-N

> <Salt_Solvent>


> <Salt_Solvent_ID>
0

> <MPID>
98366

> <LogBCF>
4.35

> <Tr_1_Tst_0>
1

$$$$
100442
  Mrv171c012241911322D          

  9  9  0  0  0  0            999 V2000
    1.8265   -1.2374    0.0000 C   0  0  0  0  0  0  0  0  0  0  0  0
    2.5410   -1.6499    0.0000 C   0  0  0  0  0  0  0  0  0  0  0  0
    1.8265   -0.4124    0.0000 C   0  0  0  0  0  0  0  0  0  0  0  0
    1.1121    0.0001    0.0000 C   0  0  0  0  0  0  0  0  0  0  0  0
    1.1121    0.8251    0.0000 Cl  0  0  0  0  0  0  0  0  0  0  0  0
    0.3976   -0.4124    0.0000 C   0  0  0  0  0  0  0  0  0  0  0  0
    0.3976   -1.2374    0.0000 C   0  0  0  0  0  0  0  0  0  0  0  0
    1.1121   -1.6499    0.0000 C   0  0  0  0  0  0  0  0  0  0  0  0
    1.1121   -2.4749    0.0000 O   0  0  0  0  0  0  0  0  0  0  0  0
  1  2  1  0  0  0  0
  3  1  1  0  0  0  0
  4  3  2  0  0  0  0
  4  5  1  0  0  0  0
  6  4  1  0  0  0  0
  7  6  2  0  0  0  0
  8  7  1  0  0  0  0
  1  8  2  0  0  0  0
  8  9  1  0  0  0  0
M  END
> <ChemID>
100442

> <CAS>
1570-64-5

> <Original_SMILES>
Cc1cc(Cl)ccc1O

> <preferred_name>
4-Chloro-2-methylphenol

> <dsstox_substance_id>
DTXSID5022510

> <dsstox_compound_id>
DTXCID502510

> <qc_level>
DSSTox_Low

> <Canonical_QSARr>
CC1C=C(Cl)C=CC=1O

> <InChI_Code_QSARr>
InChI=1S/C7H7ClO/c1-5-4-6(8)2-3-7(5)9/h2-4,9H,1H3

> <InChI Key_QSARr>
RHPUJHQBPORFGV-UHFFFAOYSA-N

> <Salt_Solvent>


> <Salt_Solvent_ID>
0

> <MPID>
98367

> <LogBCF>
1.33

> <Tr_1_Tst_0>
1

$$$$
100443
  Mrv171c012241911322D          

 23 23  0  0  0  0            999 V2000
    1.3684   -1.0258    0.0000 O   0  0  0  0  0  0  0  0  0  0  0  0
    1.3684   -1.8508    0.0000 N   0  3  0  0  0  0  0  0  0  0  0  0
    0.6539   -2.2633    0.0000 O   0  5  0  0  0  0  0  0  0  0  0  0
    2.0828   -2.2633    0.0000 C   0  0  0  0  0  0  0  0  0  0  0  0
    2.0828   -3.0883    0.0000 C   0  0  0  0  0  0  0  0  0  0  0  0
    2.7973   -3.5008    0.0000 C   0  0  0  0  0  0  0  0  0  0  0  0
    2.7973   -4.3258    0.0000 C   0  0  0  0  0  0  0  0  0  0  0  0
    2.7973   -5.1508    0.0000 F   0  0  0  0  0  0  0  0  0  0  0  0
    3.6223   -4.3258    0.0000 F   0  0  0  0  0  0  0  0  0  0  0  0
    1.9723   -4.3258    0.0000 F   0  0  0  0  0  0  0  0  0  0  0  0
    3.5118   -3.0883    0.0000 C   0  0  0  0  0  0  0  0  0  0  0  0
    3.5118   -2.2633    0.0000 C   0  0  0  0  0  0  0  0  0  0  0  0
    4.2263   -1.8508    0.0000 N   0  3  0  0  0  0  0  0  0  0  0  0
    4.2263   -1.0258    0.0000 O   0  5  0  0  0  0  0  0  0  0  0  0
    4.9407   -2.2633    0.0000 O   0  0  0  0  0  0  0  0  0  0  0  0
    2.7973   -1.8508    0.0000 C   0  0  0  0  0  0  0  0  0  0  0  0
    2.7973   -1.0258    0.0000 N   0  0  0  0  0  0  0  0  0  0  0  0
    2.0828   -0.6133    0.0000 C   0  0  0  0  0  0  0  0  0  0  0  0
    2.0828    0.2117    0.0000 C   0  0  0  0  0  0  0  0  0  0  0  0
    1.3684    0.6242    0.0000 C   0  0  0  0  0  0  0  0  0  0  0  0
    3.5118   -0.6133    0.0000 C   0  0  0  0  0  0  0  0  0  0  0  0
    3.5118    0.2117    0.0000 C   0  0  0  0  0  0  0  0  0  0  0  0
    4.2263    0.6242    0.0000 C   0  0  0  0  0  0  0  0  0  0  0  0
  1  2  2  0  0  0  0
  2  3  1  0  0  0  0
  2  4  1  0  0  0  0
  5  4  1  0  0  0  0
  6  5  2  0  0  0  0
  6  7  1  0  0  0  0
  7  8  1  0  0  0  0
  7  9  1  0  0  0  0
  7 10  1  0  0  0  0
 11  6  1  0  0  0  0
 12 11  2  0  0  0  0
 12 13  1  0  0  0  0
 13 14  1  0  0  0  0
 13 15  2  0  0  0  0
 16 12  1  0  0  0  0
  4 16  2  0  0  0  0
 16 17  1  0  0  0  0
 17 18  1  0  0  0  0
 18 19  1  0  0  0  0
 19 20  1  0  0  0  0
 17 21  1  0  0  0  0
 21 22  1  0  0  0  0
 22 23  1  0  0  0  0
M  CHG  4   2   1   3  -1  13   1  14  -1
M  END
> <ChemID>
100443

> <CAS>
1582-09-8

> <Original_SMILES>
CCCN(CCC)c1c(cc(cc1[N+]([O-])=O)C(F)(F)F)[N+]([O-])=O

> <preferred_name>
Trifluralin

> <dsstox_substance_id>
DTXSID4021395

> <dsstox_compound_id>
DTXCID401395

> <qc_level>
DSSTox_Low

> <Canonical_QSARr>
CCCN(CCC)C1C(=CC(=CC=1[N+]([O-])=O)C(F)(F)F)[N+]([O-])=O

> <InChI_Code_QSARr>
InChI=1S/C13H16F3N3O4/c1-3-5-17(6-4-2)12-10(18(20)21)7-9(13(14,15)16)8-11(12)19(22)23/h7-8H,3-6H2,1-2H3

> <InChI Key_QSARr>
ZSDSQXJSNMTJDA-UHFFFAOYSA-N

> <Salt_Solvent>


> <Salt_Solvent_ID>
0

> <MPID>
98368

> <LogBCF>
3.36

> <Tr_1_Tst_0>
0

$$$$
100444
  Mrv171c012241911322D          

 14 13  0  0  0  0            999 V2000
   -0.7755    1.2485    0.0000 P   0  0  0  0  0  0  0  0  0  0  0  0
   -0.7755    0.4235    0.0000 O   0  0  0  0  0  0  0  0  0  0  0  0
   -0.0610    0.0110    0.0000 C   0  0  0  0  0  0  0  0  0  0  0  0
   -0.0610   -0.8140    0.0000 C   0  0  0  0  0  0  0  0  0  0  0  0
    0.6534   -1.2265    0.0000 C   0  0  0  0  0  0  0  0  0  0  0  0
   -0.7755    2.0735    0.0000 O   0  0  0  0  0  0  0  0  0  0  0  0
   -1.4900    2.4860    0.0000 C   0  0  0  0  0  0  0  0  0  0  0  0
   -1.4900    3.3110    0.0000 C   0  0  0  0  0  0  0  0  0  0  0  0
   -2.2045    3.7235    0.0000 C   0  0  0  0  0  0  0  0  0  0  0  0
    0.0495    1.2485    0.0000 O   0  0  0  0  0  0  0  0  0  0  0  0
    0.4620    1.9629    0.0000 C   0  0  0  0  0  0  0  0  0  0  0  0
    1.2870    1.9629    0.0000 C   0  0  0  0  0  0  0  0  0  0  0  0
    1.6995    1.2485    0.0000 C   0  0  0  0  0  0  0  0  0  0  0  0
   -1.6005    1.2485    0.0000 O   0  0  0  0  0  0  0  0  0  0  0  0
  1  2  1  0  0  0  0
  2  3  1  0  0  0  0
  3  4  1  0  0  0  0
  4  5  2  0  0  0  0
  1  6  1  0  0  0  0
  6  7  1  0  0  0  0
  7  8  1  0  0  0  0
  8  9  2  0  0  0  0
  1 10  1  0  0  0  0
 10 11  1  0  0  0  0
 11 12  1  0  0  0  0
 12 13  2  0  0  0  0
  1 14  2  0  0  0  0
M  END
> <ChemID>
100444

> <CAS>
1623-19-4

> <Original_SMILES>
C=CCOP(=O)(OCC=C)OCC=C

> <preferred_name>
Triallyl phosphate

> <dsstox_substance_id>
DTXSID5061827

> <dsstox_compound_id>
DTXCID3035218

> <qc_level>
Public_High

> <Canonical_QSARr>
C=CCOP(=O)(OCC=C)OCC=C

> <InChI_Code_QSARr>
InChI=1S/C9H15O4P/c1-4-7-11-14(10,12-8-5-2)13-9-6-3/h4-6H,1-3,7-9H2

> <InChI Key_QSARr>
XHGIFBQQEGRTPB-UHFFFAOYSA-N

> <Salt_Solvent>


> <Salt_Solvent_ID>
0

> <MPID>
98369

> <LogBCF>
0.08

> <Tr_1_Tst_0>
1

$$$$
100445
  Mrv171c012241911322D          

  8  8  0  0  0  0            999 V2000
    0.5678    1.1143    0.0000 C   0  0  0  0  0  0  0  0  0  0  0  0
   -0.0997    0.6294    0.0000 C   0  0  0  0  0  0  0  0  0  0  0  0
    0.1553   -0.1553    0.0000 S   0  0  0  0  0  0  0  0  0  0  0  0
    0.9803   -0.1553    0.0000 S   0  0  0  0  0  0  0  0  0  0  0  0
    1.2352    0.6294    0.0000 C   0  0  0  0  0  0  0  0  0  0  0  0
    0.5678    1.9393    0.0000 N   0  0  0  0  0  0  0  0  0  0  0  0
   -0.1467    2.3518    0.0000 C   0  0  0  0  0  0  0  0  0  0  0  0
    1.2822    2.3518    0.0000 C   0  0  0  0  0  0  0  0  0  0  0  0
  2  1  1  0  0  0  0
  3  2  1  0  0  0  0
  4  3  1  0  0  0  0
  5  4  1  0  0  0  0
  1  5  1  0  0  0  0
  1  6  1  0  0  0  0
  6  7  1  0  0  0  0
  6  8  1  0  0  0  0
M  END
> <ChemID>
100445

> <CAS>
1631-58-9

> <Original_SMILES>
CN(C)C1CSSC1

> <preferred_name>
N,N-Dimethyl-1,2-dithiolan-4-amine

> <dsstox_substance_id>
DTXSID0075104

> <dsstox_compound_id>
DTXCID5035240

> <qc_level>
Public_High

> <Canonical_QSARr>
CN(C)C1CSSC1

> <InChI_Code_QSARr>
InChI=1S/C5H11NS2/c1-6(2)5-3-7-8-4-5/h5H,3-4H2,1-2H3

> <InChI Key_QSARr>
DSOOGBGKEWZRIH-UHFFFAOYSA-N

> <Salt_Solvent>


> <Salt_Solvent_ID>
0

> <MPID>
98370

> <LogBCF>
1.72

> <Tr_1_Tst_0>
1

$$$$
100446
  Mrv171c012241911322D          

  6  5  0  0  0  0            999 V2000
    1.5715   -1.5488    0.0000 C   0  0  0  0  0  0  0  0  0  0  0  0
    1.1590   -0.8343    0.0000 C   0  0  0  0  0  0  0  0  0  0  0  0
    1.8735   -0.4218    0.0000 C   0  0  0  0  0  0  0  0  0  0  0  0
    0.4446   -1.2468    0.0000 C   0  0  0  0  0  0  0  0  0  0  0  0
    0.7465   -0.1198    0.0000 O   0  0  0  0  0  0  0  0  0  0  0  0
   -0.0785   -0.1198    0.0000 C   0  0  0  0  0  0  0  0  0  0  0  0
  1  2  1  0  0  0  0
  2  3  1  0  0  0  0
  2  4  1  0  0  0  0
  2  5  1  0  0  0  0
  5  6  1  0  0  0  0
M  END
> <ChemID>
100446

> <CAS>
1634-04-4

> <Original_SMILES>
COC(C)(C)C

> <preferred_name>
Methyl tert-butyl ether

> <dsstox_substance_id>
DTXSID3020833

> <dsstox_compound_id>
DTXCID30833

> <qc_level>
DSSTox_Low

> <Canonical_QSARr>
COC(C)(C)C

> <InChI_Code_QSARr>
InChI=1S/C5H12O/c1-5(2,3)6-4/h1-4H3

> <InChI Key_QSARr>
BZLVMXJERCGZMT-UHFFFAOYSA-N

> <Salt_Solvent>


> <Salt_Solvent_ID>
0

> <MPID>
98371

> <LogBCF>
0.18

> <Tr_1_Tst_0>
1

$$$$
100447
  Mrv171c012241911322D          

 19 18  0  0  0  0            999 V2000
    1.8978   -0.9530    0.0000 O   0  0  0  0  0  0  0  0  0  0  0  0
    1.8978   -1.7780    0.0000 C   0  0  0  0  0  0  0  0  0  0  0  0
    1.1833   -2.1905    0.0000 O   0  0  0  0  0  0  0  0  0  0  0  0
    0.4688   -1.7780    0.0000 C   0  0  0  0  0  0  0  0  0  0  0  0
   -0.2456   -2.1905    0.0000 C   0  0  0  0  0  0  0  0  0  0  0  0
    2.6122   -2.1905    0.0000 C   0  0  0  0  0  0  0  0  0  0  0  0
    3.3267   -1.7780    0.0000 C   0  0  0  0  0  0  0  0  0  0  0  0
    4.0412   -2.1905    0.0000 C   0  0  0  0  0  0  0  0  0  0  0  0
    4.7557   -1.7780    0.0000 O   0  0  0  0  0  0  0  0  0  0  0  0
    5.4701   -2.1905    0.0000 C   0  0  0  0  0  0  0  0  0  0  0  0
    6.1846   -1.7780    0.0000 C   0  0  0  0  0  0  0  0  0  0  0  0
    4.0412   -3.0155    0.0000 O   0  0  0  0  0  0  0  0  0  0  0  0
    2.6122   -3.0155    0.0000 S   0  0  0  0  0  0  0  0  0  0  0  0
    1.8978   -3.4280    0.0000 P   0  0  0  0  0  0  0  0  0  0  0  0
    1.4853   -2.7136    0.0000 O   0  0  0  0  0  0  0  0  0  0  0  0
    0.6603   -2.7136    0.0000 C   0  0  0  0  0  0  0  0  0  0  0  0
    1.1833   -3.8405    0.0000 O   0  0  0  0  0  0  0  0  0  0  0  0
    0.4688   -3.4280    0.0000 C   0  0  0  0  0  0  0  0  0  0  0  0
    2.3103   -4.1425    0.0000 O   0  0  0  0  0  0  0  0  0  0  0  0
  1  2  2  0  0  0  0
  2  3  1  0  0  0  0
  3  4  1  0  0  0  0
  4  5  1  0  0  0  0
  2  6  1  0  0  0  0
  6  7  1  0  0  0  0
  7  8  1  0  0  0  0
  8  9  1  0  0  0  0
  9 10  1  0  0  0  0
 10 11  1  0  0  0  0
  8 12  2  0  0  0  0
  6 13  1  0  0  0  0
 13 14  1  0  0  0  0
 14 15  1  0  0  0  0
 15 16  1  0  0  0  0
 14 17  1  0  0  0  0
 17 18  1  0  0  0  0
 14 19  2  0  0  0  0
M  END
> <ChemID>
100447

> <CAS>
1634-78-2

> <Original_SMILES>
CCOC(=O)C(CC(=O)OCC)SP(=O)(OC)OC

> <preferred_name>
Malaoxon

> <dsstox_substance_id>
DTXSID9020790

> <dsstox_compound_id>
DTXCID50790

> <qc_level>
DSSTox_Low

> <Canonical_QSARr>
CCOC(=O)C(CC(=O)OCC)SP(=O)(OC)OC

> <InChI_Code_QSARr>
InChI=1S/C10H19O7PS/c1-5-16-9(11)7-8(10(12)17-6-2)19-18(13,14-3)15-4/h8H,5-7H2,1-4H3

> <InChI Key_QSARr>
WSORODGWGUUOBO-UHFFFAOYSA-N

> <Salt_Solvent>


> <Salt_Solvent_ID>
0

> <MPID>
98372

> <LogBCF>
0.05

> <Tr_1_Tst_0>
0

$$$$
100448
  Mrv171c012241911322D          

 12 12  0  0  0  0            999 V2000
    1.2682   -2.0282    0.0000 C   0  0  0  0  0  0  0  0  0  0  0  0
    0.5537   -1.6157    0.0000 C   0  0  0  0  0  0  0  0  0  0  0  0
    0.5537   -0.7907    0.0000 O   0  0  0  0  0  0  0  0  0  0  0  0
   -0.1608   -2.0282    0.0000 O   0  0  0  0  0  0  0  0  0  0  0  0
    1.2682   -2.8532    0.0000 C   0  0  0  0  0  0  0  0  0  0  0  0
    1.9827   -3.2657    0.0000 C   0  0  0  0  0  0  0  0  0  0  0  0
    2.6971   -2.8532    0.0000 C   0  0  0  0  0  0  0  0  0  0  0  0
    2.6971   -2.0282    0.0000 C   0  0  0  0  0  0  0  0  0  0  0  0
    1.9827   -1.6157    0.0000 C   0  0  0  0  0  0  0  0  0  0  0  0
    1.9827   -0.7907    0.0000 C   0  0  0  0  0  0  0  0  0  0  0  0
    1.2682   -0.3782    0.0000 O   0  0  0  0  0  0  0  0  0  0  0  0
    2.6971   -0.3782    0.0000 O   0  0  0  0  0  0  0  0  0  0  0  0
  1  2  1  0  0  0  0
  2  3  1  0  0  0  0
  2  4  2  0  0  0  0
  5  1  1  0  0  0  0
  6  5  1  0  0  0  0
  7  6  1  0  0  0  0
  8  7  1  0  0  0  0
  9  8  1  0  0  0  0
  1  9  1  0  0  0  0
  9 10  1  0  0  0  0
 10 11  1  0  0  0  0
 10 12  2  0  0  0  0
M  END
> <ChemID>
100448

> <CAS>
1687-30-5

> <Original_SMILES>
OC(=O)C1CCCCC1C(O)=O

> <preferred_name>


> <dsstox_substance_id>
DTXSID60875751

> <dsstox_compound_id>
DTXCID50203468

> <qc_level>


> <Canonical_QSARr>
OC(=O)C1CCCCC1C(O)=O

> <InChI_Code_QSARr>
InChI=1S/C8H12O4/c9-7(10)5-3-1-2-4-6(5)8(11)12/h5-6H,1-4H2,(H,9,10)(H,11,12)

> <InChI Key_QSARr>
QSAWQNUELGIYBC-UHFFFAOYSA-N

> <Salt_Solvent>


> <Salt_Solvent_ID>
0

> <MPID>
98373

> <LogBCF>
0.3

> <Tr_1_Tst_0>
1

$$$$
100449
  Mrv171c012241911322D          

 10 10  0  0  0  0            999 V2000
    2.3643   -1.8563    0.0000 Cl  0  0  0  0  0  0  0  0  0  0  0  0
    2.3643   -1.0313    0.0000 C   0  0  0  0  0  0  0  0  0  0  0  0
    3.0788   -0.6188    0.0000 C   0  0  0  0  0  0  0  0  0  0  0  0
    3.0788    0.2062    0.0000 C   0  0  0  0  0  0  0  0  0  0  0  0
    2.3643    0.6187    0.0000 C   0  0  0  0  0  0  0  0  0  0  0  0
    2.3643    1.4437    0.0000 C   0  0  0  0  0  0  0  0  0  0  0  0
    1.6499    1.8562    0.0000 C   0  0  0  0  0  0  0  0  0  0  0  0
    3.0788    1.8562    0.0000 C   0  0  0  0  0  0  0  0  0  0  0  0
    1.6499    0.2062    0.0000 C   0  0  0  0  0  0  0  0  0  0  0  0
    1.6499   -0.6188    0.0000 C   0  0  0  0  0  0  0  0  0  0  0  0
  1  2  1  0  0  0  0
  3  2  1  0  0  0  0
  4  3  2  0  0  0  0
  5  4  1  0  0  0  0
  5  6  1  0  0  0  0
  6  7  2  0  0  0  0
  6  8  1  0  0  0  0
  9  5  2  0  0  0  0
 10  9  1  0  0  0  0
  2 10  2  0  0  0  0
M  END
> <ChemID>
100449

> <CAS>
1712-70-5

> <Original_SMILES>
CC(=C)c1ccc(Cl)cc1

> <preferred_name>
4-Chloro-alpha-methylstyrene

> <dsstox_substance_id>
DTXSID40169024

> <dsstox_compound_id>
DTXCID5091515

> <qc_level>
Public_Medium

> <Canonical_QSARr>
CC(=C)C1C=CC(Cl)=CC=1

> <InChI_Code_QSARr>
InChI=1S/C9H9Cl/c1-7(2)8-3-5-9(10)6-4-8/h3-6H,1H2,2H3

> <InChI Key_QSARr>
WQDGTJOEMPEHHL-UHFFFAOYSA-N

> <Salt_Solvent>


> <Salt_Solvent_ID>
0

> <MPID>
98374

> <LogBCF>
2.84

> <Tr_1_Tst_0>
1

$$$$
100450
  Mrv171c012241911322D          

 22 24  0  0  0  0            999 V2000
    0.0268    0.3170    0.0000 C   0  0  0  0  0  0  0  0  0  0  0  0
   -0.3857    1.0314    0.0000 C   0  0  0  0  0  0  0  0  0  0  0  0
    0.4393    1.0314    0.0000 C   0  0  0  0  0  0  0  0  0  0  0  0
    1.2643    1.0314    0.0000 C   0  0  0  0  0  0  0  0  0  0  0  0
    1.6768    0.3170    0.0000 C   0  0  0  0  0  0  0  0  0  0  0  0
    1.2643   -0.3975    0.0000 C   0  0  0  0  0  0  0  0  0  0  0  0
    2.0395   -0.6797    0.0000 C   0  0  0  0  0  0  0  0  0  0  0  0
    1.1210   -1.2100    0.0000 C   0  0  0  0  0  0  0  0  0  0  0  0
    0.3458   -1.4921    0.0000 O   0  0  0  0  0  0  0  0  0  0  0  0
    1.7530   -1.7403    0.0000 O   0  0  0  0  0  0  0  0  0  0  0  0
    0.4393   -0.3975    0.0000 C   0  0  0  0  0  0  0  0  0  0  0  0
    0.0268   -1.1120    0.0000 C   0  0  0  0  0  0  0  0  0  0  0  0
   -0.7982   -1.1120    0.0000 C   0  0  0  0  0  0  0  0  0  0  0  0
   -1.2107   -0.3975    0.0000 C   0  0  0  0  0  0  0  0  0  0  0  0
   -2.0357   -0.3975    0.0000 C   0  0  0  0  0  0  0  0  0  0  0  0
   -2.4482    0.3170    0.0000 C   0  0  0  0  0  0  0  0  0  0  0  0
   -3.2732    0.3170    0.0000 C   0  0  0  0  0  0  0  0  0  0  0  0
   -3.6857   -0.3975    0.0000 C   0  0  0  0  0  0  0  0  0  0  0  0
   -3.6857    1.0314    0.0000 C   0  0  0  0  0  0  0  0  0  0  0  0
   -2.0357    1.0314    0.0000 C   0  0  0  0  0  0  0  0  0  0  0  0
   -1.2107    1.0314    0.0000 C   0  0  0  0  0  0  0  0  0  0  0  0
   -0.7982    0.3170    0.0000 C   0  0  0  0  0  0  0  0  0  0  0  0
  1  2  1  0  0  0  0
  3  1  1  0  0  0  0
  4  3  1  0  0  0  0
  5  4  1  0  0  0  0
  6  5  1  0  0  0  0
  6  7  1  0  0  0  0
  6  8  1  0  0  0  0
  8  9  1  0  0  0  0
  8 10  2  0  0  0  0
 11  6  1  0  0  0  0
 11  1  1  0  0  0  0
 12 11  1  0  0  0  0
 13 12  1  0  0  0  0
 14 13  1  0  0  0  0
 14 15  1  0  0  0  0
 15 16  2  0  0  0  0
 16 17  1  0  0  0  0
 17 18  1  0  0  0  0
 17 19  1  0  0  0  0
 16 20  1  0  0  0  0
 20 21  2  0  0  0  0
 21 22  1  0  0  0  0
  1 22  1  0  0  0  0
 22 14  2  0  0  0  0
M  END
> <ChemID>
100450

> <CAS>
1740-19-8

> <Original_SMILES>
CC(C)c1ccc2c(CC[C@H]3[C@@](C)(CCC[C@]23C)C(O)=O)c1

> <preferred_name>
Dehydroabietic acid

> <dsstox_substance_id>
DTXSID8022163

> <dsstox_compound_id>
DTXCID402163

> <qc_level>
DSSTox_Low

> <Canonical_QSARr>
CC(C)C1C=CC2=C(CCC3C(C)(CCCC23C)C(O)=O)C=1

> <InChI_Code_QSARr>
InChI=1S/C20H28O2/c1-13(2)14-6-8-16-15(12-14)7-9-17-19(16,3)10-5-11-20(17,4)18(21)22/h6,8,12-13,17H,5,7,9-11H2,1-4H3,(H,21,22)

> <InChI Key_QSARr>
NFWKVWVWBFBAOV-UHFFFAOYSA-N

> <Salt_Solvent>


> <Salt_Solvent_ID>
0

> <MPID>
98375

> <LogBCF>
2.12

> <Tr_1_Tst_0>
1

$$$$
100451
  Mrv171c012241911322D          

 18 20  0  0  0  0            999 V2000
    0.0016   -0.0014    0.0000 Cl  0  0  0  0  0  0  0  0  0  0  0  0
    0.7161   -0.4139    0.0000 C   0  0  0  0  0  0  0  0  0  0  0  0
    0.7161   -1.2389    0.0000 C   0  0  0  0  0  0  0  0  0  0  0  0
    0.0016   -1.6514    0.0000 Cl  0  0  0  0  0  0  0  0  0  0  0  0
    1.4305   -1.6514    0.0000 C   0  0  0  0  0  0  0  0  0  0  0  0
    2.1450   -1.2389    0.0000 C   0  0  0  0  0  0  0  0  0  0  0  0
    2.8595   -1.6514    0.0000 O   0  0  0  0  0  0  0  0  0  0  0  0
    3.5740   -1.2389    0.0000 C   0  0  0  0  0  0  0  0  0  0  0  0
    4.2884   -1.6514    0.0000 C   0  0  0  0  0  0  0  0  0  0  0  0
    5.0029   -1.2389    0.0000 C   0  0  0  0  0  0  0  0  0  0  0  0
    5.7174   -1.6514    0.0000 Cl  0  0  0  0  0  0  0  0  0  0  0  0
    5.0029   -0.4139    0.0000 C   0  0  0  0  0  0  0  0  0  0  0  0
    5.7174   -0.0014    0.0000 Cl  0  0  0  0  0  0  0  0  0  0  0  0
    4.2884   -0.0014    0.0000 C   0  0  0  0  0  0  0  0  0  0  0  0
    3.5740   -0.4139    0.0000 C   0  0  0  0  0  0  0  0  0  0  0  0
    2.8595   -0.0014    0.0000 O   0  0  0  0  0  0  0  0  0  0  0  0
    2.1450   -0.4139    0.0000 C   0  0  0  0  0  0  0  0  0  0  0  0
    1.4305   -0.0014    0.0000 C   0  0  0  0  0  0  0  0  0  0  0  0
  1  2  1  0  0  0  0
  3  2  1  0  0  0  0
  3  4  1  0  0  0  0
  5  3  2  0  0  0  0
  6  5  1  0  0  0  0
  6  7  1  0  0  0  0
  7  8  1  0  0  0  0
  9  8  1  0  0  0  0
 10  9  2  0  0  0  0
 10 11  1  0  0  0  0
 12 10  1  0  0  0  0
 12 13  1  0  0  0  0
 14 12  2  0  0  0  0
 15 14  1  0  0  0  0
  8 15  2  0  0  0  0
 15 16  1  0  0  0  0
 16 17  1  0  0  0  0
 17  6  2  0  0  0  0
 18 17  1  0  0  0  0
  2 18  2  0  0  0  0
M  END
> <ChemID>
100451

> <CAS>
1746-01-6

> <Original_SMILES>
Clc1cc2Oc3cc(Cl)c(Cl)cc3Oc2cc1Cl

> <preferred_name>
2,3,7,8-Tetrachlorodibenzo-p-dioxin

> <dsstox_substance_id>
DTXSID2021315

> <dsstox_compound_id>
DTXCID001315

> <qc_level>
DSSTox_Low

> <Canonical_QSARr>
ClC1=CC2OC3C=C(Cl)C(Cl)=CC=3OC=2C=C1Cl

> <InChI_Code_QSARr>
InChI=1S/C12H4Cl4O2/c13-5-1-9-10(2-6(5)14)18-12-4-8(16)7(15)3-11(12)17-9/h1-4H

> <InChI Key_QSARr>
HGUFODBRKLSHSI-UHFFFAOYSA-N

> <Salt_Solvent>


> <Salt_Solvent_ID>
0

> <MPID>
98376

> <LogBCF>
4.99

> <Tr_1_Tst_0>
0

$$$$
100452
  Mrv171c012241911322D          

 14 14  0  0  0  0            999 V2000
    3.5695   -0.9459    0.0000 C   0  0  0  0  0  0  0  0  0  0  0  0
    2.8550   -0.5334    0.0000 N   0  0  0  0  0  0  0  0  0  0  0  0
    2.1406   -0.9459    0.0000 C   0  0  0  0  0  0  0  0  0  0  0  0
    1.4261   -0.5334    0.0000 C   0  0  0  0  0  0  0  0  0  0  0  0
    0.7116   -0.9459    0.0000 C   0  0  0  0  0  0  0  0  0  0  0  0
    0.7116   -1.7709    0.0000 C   0  0  0  0  0  0  0  0  0  0  0  0
   -0.0028   -2.1834    0.0000 Cl  0  0  0  0  0  0  0  0  0  0  0  0
    1.4261   -2.1834    0.0000 C   0  0  0  0  0  0  0  0  0  0  0  0
    2.1406   -1.7709    0.0000 C   0  0  0  0  0  0  0  0  0  0  0  0
    4.2840   -0.5334    0.0000 N   0  0  0  0  0  0  0  0  0  0  0  0
    4.2840    0.2916    0.0000 C   0  0  0  0  0  0  0  0  0  0  0  0
    4.9984   -0.9459    0.0000 O   0  0  0  0  0  0  0  0  0  0  0  0
    5.7129   -0.5334    0.0000 C   0  0  0  0  0  0  0  0  0  0  0  0
    3.5695   -1.7709    0.0000 O   0  0  0  0  0  0  0  0  0  0  0  0
  1  2  1  0  0  0  0
  2  3  1  0  0  0  0
  4  3  1  0  0  0  0
  5  4  2  0  0  0  0
  6  5  1  0  0  0  0
  6  7  1  0  0  0  0
  8  6  2  0  0  0  0
  9  8  1  0  0  0  0
  3  9  2  0  0  0  0
  1 10  1  0  0  0  0
 10 11  1  0  0  0  0
 10 12  1  0  0  0  0
 12 13  1  0  0  0  0
  1 14  2  0  0  0  0
M  END
> <ChemID>
100452

> <CAS>
1746-81-2

> <Original_SMILES>
CN(OC)C(=O)Nc1ccc(Cl)cc1

> <preferred_name>
Monolinuron

> <dsstox_substance_id>
DTXSID0037576

> <dsstox_compound_id>
DTXCID8017576

> <qc_level>
DSSTox_Low

> <Canonical_QSARr>
CON(C)C(=O)NC1C=CC(Cl)=CC=1

> <InChI_Code_QSARr>
InChI=1S/C9H11ClN2O2/c1-12(14-2)9(13)11-8-5-3-7(10)4-6-8/h3-6H,1-2H3,(H,11,13)

> <InChI Key_QSARr>
LKJPSUCKSLORMF-UHFFFAOYSA-N

> <Salt_Solvent>


> <Salt_Solvent_ID>
0

> <MPID>
98377

> <LogBCF>
1.15

> <Tr_1_Tst_0>
1

$$$$
100453
  Mrv171c012241911322D          

  9  9  0  0  0  0            999 V2000
    1.6296   -2.0595    0.0000 C   0  0  0  0  0  0  0  0  0  0  0  0
    0.9152   -1.6470    0.0000 C   0  0  0  0  0  0  0  0  0  0  0  0
    0.9152   -0.8220    0.0000 P   0  0  0  0  0  0  0  0  0  0  0  0
    0.2007   -0.4095    0.0000 O   0  0  0  0  0  0  0  0  0  0  0  0
    1.6296   -0.4095    0.0000 O   0  0  0  0  0  0  0  0  0  0  0  0
    0.2007   -2.0595    0.0000 C   0  0  0  0  0  0  0  0  0  0  0  0
    0.2007   -2.8845    0.0000 C   0  0  0  0  0  0  0  0  0  0  0  0
    0.9152   -3.2970    0.0000 C   0  0  0  0  0  0  0  0  0  0  0  0
    1.6296   -2.8845    0.0000 C   0  0  0  0  0  0  0  0  0  0  0  0
  2  1  2  0  0  0  0
  2  3  1  0  0  0  0
  3  4  1  0  0  0  0
  3  5  2  0  0  0  0
  6  2  1  0  0  0  0
  7  6  2  0  0  0  0
  8  7  1  0  0  0  0
  9  8  2  0  0  0  0
  1  9  1  0  0  0  0
M  END
> <ChemID>
100453

> <CAS>
1779-48-2

> <Original_SMILES>
OP(=O)c1ccccc1

> <preferred_name>
Phenylphosphinic acid

> <dsstox_substance_id>
DTXSID0027436

> <dsstox_compound_id>
DTXCID601474036

> <qc_level>
DSSTox_Low

> <Canonical_QSARr>
OP(=O)C1C=CC=CC=1

> <InChI_Code_QSARr>
InChI=1S/C6H7O2P/c7-9(8)6-4-2-1-3-5-6/h1-5,9H,(H,7,8)

> <InChI Key_QSARr>
MLCHBQKMVKNBOV-UHFFFAOYSA-N

> <Salt_Solvent>


> <Salt_Solvent_ID>
0

> <MPID>
98378

> <LogBCF>
0.78

> <Tr_1_Tst_0>
1

$$$$
100454
  Mrv171c012241911322D          

 10 10  0  0  0  0            999 V2000
    4.2220    0.6105    0.0000 Cl  0  0  0  0  0  0  0  0  0  0  0  0
    3.5076    0.1980    0.0000 C   0  0  0  0  0  0  0  0  0  0  0  0
    2.7931    0.6105    0.0000 C   0  0  0  0  0  0  0  0  0  0  0  0
    2.7931    1.4355    0.0000 Cl  0  0  0  0  0  0  0  0  0  0  0  0
    2.0786    0.1980    0.0000 C   0  0  0  0  0  0  0  0  0  0  0  0
    2.0786   -0.6270    0.0000 C   0  0  0  0  0  0  0  0  0  0  0  0
    2.7931   -1.0395    0.0000 C   0  0  0  0  0  0  0  0  0  0  0  0
    2.7931   -1.8645    0.0000 C   0  0  0  0  0  0  0  0  0  0  0  0
    3.5076   -2.2770    0.0000 O   0  0  0  0  0  0  0  0  0  0  0  0
    3.5076   -0.6270    0.0000 C   0  0  0  0  0  0  0  0  0  0  0  0
  1  2  1  0  0  0  0
  3  2  2  0  0  0  0
  3  4  1  0  0  0  0
  5  3  1  0  0  0  0
  6  5  2  0  0  0  0
  7  6  1  0  0  0  0
  7  8  1  0  0  0  0
  8  9  1  0  0  0  0
 10  7  2  0  0  0  0
  2 10  1  0  0  0  0
M  END
> <ChemID>
100454

> <CAS>
1805-32-9

> <Original_SMILES>
OCc1cc(Cl)c(Cl)cc1

> <preferred_name>
3,4-Dichlorobenzyl alcohol

> <dsstox_substance_id>
DTXSID70170966

> <dsstox_compound_id>
DTXCID2093457

> <qc_level>
Public_Medium

> <Canonical_QSARr>
OCC1=CC(Cl)=C(Cl)C=C1

> <InChI_Code_QSARr>
InChI=1S/C7H6Cl2O/c8-6-2-1-5(4-10)3-7(6)9/h1-3,10H,4H2

> <InChI Key_QSARr>
FVJIUQSKXOYFKG-UHFFFAOYSA-N

> <Salt_Solvent>


> <Salt_Solvent_ID>
0

> <MPID>
98379

> <LogBCF>
0.54

> <Tr_1_Tst_0>
1

$$$$
100455
  Mrv171c012241911322D          

 13 13  0  0  0  0            999 V2000
    4.5224   -1.6925    0.0000 Cl  0  0  0  0  0  0  0  0  0  0  0  0
    3.8080   -2.1050    0.0000 C   0  0  0  0  0  0  0  0  0  0  0  0
    3.0935   -1.6925    0.0000 C   0  0  0  0  0  0  0  0  0  0  0  0
    3.0935   -0.8675    0.0000 O   0  0  0  0  0  0  0  0  0  0  0  0
    2.3790   -0.4550    0.0000 C   0  0  0  0  0  0  0  0  0  0  0  0
    2.3790   -2.1050    0.0000 C   0  0  0  0  0  0  0  0  0  0  0  0
    1.6645   -1.6925    0.0000 Cl  0  0  0  0  0  0  0  0  0  0  0  0
    2.3790   -2.9300    0.0000 C   0  0  0  0  0  0  0  0  0  0  0  0
    1.6645   -3.3425    0.0000 Cl  0  0  0  0  0  0  0  0  0  0  0  0
    3.0935   -3.3425    0.0000 C   0  0  0  0  0  0  0  0  0  0  0  0
    3.0935   -4.1675    0.0000 Cl  0  0  0  0  0  0  0  0  0  0  0  0
    3.8080   -2.9300    0.0000 C   0  0  0  0  0  0  0  0  0  0  0  0
    4.5224   -3.3425    0.0000 Cl  0  0  0  0  0  0  0  0  0  0  0  0
  1  2  1  0  0  0  0
  3  2  1  0  0  0  0
  3  4  1  0  0  0  0
  4  5  1  0  0  0  0
  6  3  2  0  0  0  0
  6  7  1  0  0  0  0
  8  6  1  0  0  0  0
  8  9  1  0  0  0  0
 10  8  2  0  0  0  0
 10 11  1  0  0  0  0
 12 10  1  0  0  0  0
  2 12  2  0  0  0  0
 12 13  1  0  0  0  0
M  END
> <ChemID>
100455

> <CAS>
1825-21-4

> <Original_SMILES>
COc1c(Cl)c(Cl)c(Cl)c(Cl)c1Cl

> <preferred_name>
Pentachloroanisole

> <dsstox_substance_id>
DTXSID2021103

> <dsstox_compound_id>
DTXCID501103

> <qc_level>
DSSTox_Low

> <Canonical_QSARr>
COC1C(Cl)=C(Cl)C(Cl)=C(Cl)C=1Cl

> <InChI_Code_QSARr>
InChI=1S/C7H3Cl5O/c1-13-7-5(11)3(9)2(8)4(10)6(7)12/h1H3

> <InChI Key_QSARr>
BBABSCYTNHOKOG-UHFFFAOYSA-N

> <Salt_Solvent>


> <Salt_Solvent_ID>
0

> <MPID>
98380

> <LogBCF>
4.16

> <Tr_1_Tst_0>
0

$$$$
100456
  Mrv171c012241911322D          

 12 13  0  0  0  0            999 V2000
    0.4763   -0.4125    0.0000 C   0  0  0  0  0  0  0  0  0  0  0  0
   -0.2382    0.0000    0.0000 C   0  0  0  0  0  0  0  0  0  0  0  0
   -0.9526   -0.4125    0.0000 C   0  0  0  0  0  0  0  0  0  0  0  0
   -0.9526   -1.2375    0.0000 C   0  0  0  0  0  0  0  0  0  0  0  0
   -0.2382   -1.6500    0.0000 C   0  0  0  0  0  0  0  0  0  0  0  0
    0.4763   -1.2375    0.0000 C   0  0  0  0  0  0  0  0  0  0  0  0
    1.1908   -1.6500    0.0000 C   0  0  0  0  0  0  0  0  0  0  0  0
    1.1908   -2.4750    0.0000 Cl  0  0  0  0  0  0  0  0  0  0  0  0
    1.9052   -1.2375    0.0000 C   0  0  0  0  0  0  0  0  0  0  0  0
    1.9052   -0.4125    0.0000 C   0  0  0  0  0  0  0  0  0  0  0  0
    1.1908    0.0000    0.0000 C   0  0  0  0  0  0  0  0  0  0  0  0
    1.1908    0.8250    0.0000 Cl  0  0  0  0  0  0  0  0  0  0  0  0
  2  1  1  0  0  0  0
  3  2  2  0  0  0  0
  4  3  1  0  0  0  0
  5  4  2  0  0  0  0
  6  5  1  0  0  0  0
  6  1  1  0  0  0  0
  7  6  2  0  0  0  0
  7  8  1  0  0  0  0
  9  7  1  0  0  0  0
 10  9  2  0  0  0  0
 11 10  1  0  0  0  0
  1 11  2  0  0  0  0
 11 12  1  0  0  0  0
M  END
> <ChemID>
100456

> <CAS>
1825-31-6

> <Original_SMILES>
Clc1ccc(Cl)c2ccccc12

> <preferred_name>
Naphthalene, 1,4-dichloro-

> <dsstox_substance_id>
DTXSID6061999

> <dsstox_compound_id>
DTXCID7035802

> <qc_level>
Public_High

> <Canonical_QSARr>
ClC1C=CC(Cl)=C2C=CC=CC=12

> <InChI_Code_QSARr>
InChI=1S/C10H6Cl2/c11-9-5-6-10(12)8-4-2-1-3-7(8)9/h1-6H

> <InChI Key_QSARr>
JDPKCYMVSKDOGS-UHFFFAOYSA-N

> <Salt_Solvent>


> <Salt_Solvent_ID>
0

> <MPID>
98381

> <LogBCF>
3.75

> <Tr_1_Tst_0>
1

$$$$
100457
  Mrv171c012241911322D          

 19 20  0  0  0  0            999 V2000
    4.7822   -2.7606    0.0000 C   0  0  0  0  0  0  0  0  0  0  0  0
    5.4967   -2.3481    0.0000 Cl  0  0  0  0  0  0  0  0  0  0  0  0
    4.0678   -2.3481    0.0000 C   0  0  0  0  0  0  0  0  0  0  0  0
    4.0678   -1.5231    0.0000 O   0  0  0  0  0  0  0  0  0  0  0  0
    3.3533   -1.1106    0.0000 C   0  0  0  0  0  0  0  0  0  0  0  0
    3.3533   -0.2856    0.0000 C   0  0  0  0  0  0  0  0  0  0  0  0
    2.6388    0.1269    0.0000 C   0  0  0  0  0  0  0  0  0  0  0  0
    1.9244   -0.2856    0.0000 C   0  0  0  0  0  0  0  0  0  0  0  0
    1.2099    0.1269    0.0000 N   0  3  0  0  0  0  0  0  0  0  0  0
    0.4954   -0.2856    0.0000 O   0  0  0  0  0  0  0  0  0  0  0  0
    1.2099    0.9519    0.0000 O   0  5  0  0  0  0  0  0  0  0  0  0
    1.9244   -1.1106    0.0000 C   0  0  0  0  0  0  0  0  0  0  0  0
    2.6388   -1.5231    0.0000 C   0  0  0  0  0  0  0  0  0  0  0  0
    3.3533   -2.7606    0.0000 C   0  0  0  0  0  0  0  0  0  0  0  0
    2.6388   -2.3481    0.0000 Cl  0  0  0  0  0  0  0  0  0  0  0  0
    3.3533   -3.5856    0.0000 C   0  0  0  0  0  0  0  0  0  0  0  0
    4.0678   -3.9981    0.0000 C   0  0  0  0  0  0  0  0  0  0  0  0
    4.0678   -4.8231    0.0000 Cl  0  0  0  0  0  0  0  0  0  0  0  0
    4.7822   -3.5856    0.0000 C   0  0  0  0  0  0  0  0  0  0  0  0
  1  2  1  0  0  0  0
  3  1  2  0  0  0  0
  3  4  1  0  0  0  0
  4  5  1  0  0  0  0
  6  5  1  0  0  0  0
  7  6  2  0  0  0  0
  8  7  1  0  0  0  0
  8  9  1  0  0  0  0
  9 10  2  0  0  0  0
  9 11  1  0  0  0  0
 12  8  2  0  0  0  0
 13 12  1  0  0  0  0
  5 13  2  0  0  0  0
 14  3  1  0  0  0  0
 14 15  1  0  0  0  0
 16 14  2  0  0  0  0
 17 16  1  0  0  0  0
 17 18  1  0  0  0  0
 19 17  2  0  0  0  0
  1 19  1  0  0  0  0
M  CHG  2   9   1  11  -1
M  END
> <ChemID>
100457

> <CAS>
1836-77-7

> <Original_SMILES>
[O-][N+](=O)c1ccc(cc1)Oc1c(Cl)cc(Cl)cc1Cl

> <preferred_name>
Chlornitrofen

> <dsstox_substance_id>
DTXSID0041775

> <dsstox_compound_id>
DTXCID8021775

> <qc_level>
DSSTox_Low

> <Canonical_QSARr>
[O-][N+](=O)C1C=CC(=CC=1)OC1C(Cl)=CC(Cl)=CC=1Cl

> <InChI_Code_QSARr>
InChI=1S/C12H6Cl3NO3/c13-7-5-10(14)12(11(15)6-7)19-9-3-1-8(2-4-9)16(17)18/h1-6H

> <InChI Key_QSARr>
XQNAUQUKWRBODG-UHFFFAOYSA-N

> <Salt_Solvent>


> <Salt_Solvent_ID>
0

> <MPID>
98382

> <LogBCF>
3.31

> <Tr_1_Tst_0>
1

$$$$
100458
  Mrv171c012241911322D          

 24 25  0  0  0  0            999 V2000
    4.2846   -2.8208    0.0000 C   0  0  0  0  0  0  0  0  0  0  0  0
    3.5701   -2.4083    0.0000 C   0  0  0  0  0  0  0  0  0  0  0  0
    3.5701   -1.5833    0.0000 C   0  0  0  0  0  0  0  0  0  0  0  0
    2.8557   -1.1708    0.0000 C   0  0  0  0  0  0  0  0  0  0  0  0
    2.1412   -1.5833    0.0000 C   0  0  0  0  0  0  0  0  0  0  0  0
    2.1412   -2.4083    0.0000 C   0  0  0  0  0  0  0  0  0  0  0  0
    2.8557   -2.8208    0.0000 C   0  0  0  0  0  0  0  0  0  0  0  0
    4.9991   -2.4083    0.0000 C   0  0  0  0  0  0  0  0  0  0  0  0
    5.7136   -2.8208    0.0000 C   0  0  0  0  0  0  0  0  0  0  0  0
    6.4280   -2.4083    0.0000 C   0  0  0  0  0  0  0  0  0  0  0  0
    6.4280   -1.5833    0.0000 C   0  0  0  0  0  0  0  0  0  0  0  0
    7.1425   -1.1708    0.0000 O   0  0  0  0  0  0  0  0  0  0  0  0
    7.8570   -1.5833    0.0000 C   0  0  0  0  0  0  0  0  0  0  0  0
    8.5714   -1.1708    0.0000 C   0  0  0  0  0  0  0  0  0  0  0  0
    9.2859   -1.5833    0.0000 C   0  0  0  0  0  0  0  0  0  0  0  0
   10.0004   -1.1708    0.0000 C   0  0  0  0  0  0  0  0  0  0  0  0
   10.7148   -1.5833    0.0000 C   0  0  0  0  0  0  0  0  0  0  0  0
   11.4293   -1.1708    0.0000 C   0  0  0  0  0  0  0  0  0  0  0  0
   12.1438   -1.5833    0.0000 C   0  0  0  0  0  0  0  0  0  0  0  0
   12.8583   -1.1708    0.0000 C   0  0  0  0  0  0  0  0  0  0  0  0
    5.7136   -1.1708    0.0000 C   0  0  0  0  0  0  0  0  0  0  0  0
    4.9991   -1.5833    0.0000 C   0  0  0  0  0  0  0  0  0  0  0  0
    4.2846   -1.1708    0.0000 O   0  0  0  0  0  0  0  0  0  0  0  0
    4.2846   -3.6458    0.0000 O   0  0  0  0  0  0  0  0  0  0  0  0
  1  2  1  0  0  0  0
  3  2  1  0  0  0  0
  4  3  2  0  0  0  0
  5  4  1  0  0  0  0
  6  5  2  0  0  0  0
  7  6  1  0  0  0  0
  2  7  2  0  0  0  0
  1  8  1  0  0  0  0
  9  8  1  0  0  0  0
 10  9  2  0  0  0  0
 11 10  1  0  0  0  0
 11 12  1  0  0  0  0
 12 13  1  0  0  0  0
 13 14  1  0  0  0  0
 14 15  1  0  0  0  0
 15 16  1  0  0  0  0
 16 17  1  0  0  0  0
 17 18  1  0  0  0  0
 18 19  1  0  0  0  0
 19 20  1  0  0  0  0
 21 11  2  0  0  0  0
 22 21  1  0  0  0  0
  8 22  2  0  0  0  0
 22 23  1  0  0  0  0
  1 24  2  0  0  0  0
M  END
> <ChemID>
100458

> <CAS>
1843-05-6

> <Original_SMILES>
CCCCCCCCOc1cc(O)c(cc1)C(=O)c1ccccc1

> <preferred_name>
Octabenzone

> <dsstox_substance_id>
DTXSID9027441

> <dsstox_compound_id>
DTXCID107441

> <qc_level>
DSSTox_Low

> <Canonical_QSARr>
CCCCCCCCOC1=CC(O)=C(C=C1)C(=O)C1C=CC=CC=1

> <InChI_Code_QSARr>
InChI=1S/C21H26O3/c1-2-3-4-5-6-10-15-24-18-13-14-19(20(22)16-18)21(23)17-11-8-7-9-12-17/h7-9,11-14,16,22H,2-6,10,15H2,1H3

> <InChI Key_QSARr>
QUAMTGJKVDWJEQ-UHFFFAOYSA-N

> <Salt_Solvent>


> <Salt_Solvent_ID>
0

> <MPID>
98383

> <LogBCF>
1.9

> <Tr_1_Tst_0>
1

$$$$
100459
  Mrv171c012241911322D          

 14 14  0  0  0  0            999 V2000
    3.0144   -1.2542    0.0000 Cl  0  0  0  0  0  0  0  0  0  0  0  0
    2.2999   -1.6667    0.0000 C   0  0  0  0  0  0  0  0  0  0  0  0
    1.5855   -1.2542    0.0000 C   0  0  0  0  0  0  0  0  0  0  0  0
    1.5855   -0.4292    0.0000 C   0  0  0  0  0  0  0  0  0  0  0  0
    1.5855    0.3958    0.0000 N   0  0  0  0  0  0  0  0  0  0  0  0
    0.8710   -1.6667    0.0000 C   0  0  0  0  0  0  0  0  0  0  0  0
    0.1565   -1.2542    0.0000 Cl  0  0  0  0  0  0  0  0  0  0  0  0
    0.8710   -2.4917    0.0000 C   0  0  0  0  0  0  0  0  0  0  0  0
    0.1565   -2.9042    0.0000 Cl  0  0  0  0  0  0  0  0  0  0  0  0
    1.5855   -2.9042    0.0000 C   0  0  0  0  0  0  0  0  0  0  0  0
    1.5855   -3.7292    0.0000 Cl  0  0  0  0  0  0  0  0  0  0  0  0
    2.2999   -2.4917    0.0000 C   0  0  0  0  0  0  0  0  0  0  0  0
    3.0144   -2.9042    0.0000 C   0  0  0  0  0  0  0  0  0  0  0  0
    3.7289   -3.3167    0.0000 N   0  0  0  0  0  0  0  0  0  0  0  0
  1  2  1  0  0  0  0
  3  2  1  0  0  0  0
  3  4  1  0  0  0  0
  4  5  3  0  0  0  0
  6  3  2  0  0  0  0
  6  7  1  0  0  0  0
  8  6  1  0  0  0  0
  8  9  1  0  0  0  0
 10  8  2  0  0  0  0
 10 11  1  0  0  0  0
 12 10  1  0  0  0  0
  2 12  2  0  0  0  0
 12 13  1  0  0  0  0
 13 14  3  0  0  0  0
M  END
> <ChemID>
100459

> <CAS>
1897-45-6

> <Original_SMILES>
N#Cc1c(Cl)c(Cl)c(Cl)c(C#N)c1Cl

> <preferred_name>
Chlorothalonil

> <dsstox_substance_id>
DTXSID0020319

> <dsstox_compound_id>
DTXCID20319

> <qc_level>
DSSTox_Low

> <Canonical_QSARr>
N#CC1C(Cl)=C(Cl)C(Cl)=C(C#N)C=1Cl

> <InChI_Code_QSARr>
InChI=1S/C8Cl4N2/c9-5-3(1-13)6(10)8(12)7(11)4(5)2-14

> <InChI Key_QSARr>
CRQQGFGUEAVUIL-UHFFFAOYSA-N

> <Salt_Solvent>


> <Salt_Solvent_ID>
0

> <MPID>
98384

> <LogBCF>
1.8

> <Tr_1_Tst_0>
0

$$$$
100460
  Mrv171c012241911322D          

 14 15  0  0  0  0            999 V2000
   -0.4125   -2.0625    0.0000 N   0  3  0  0  0  0  0  0  0  0  0  0
    0.3020   -1.6500    0.0000 C   0  0  0  0  0  0  0  0  0  0  0  0
    0.3020   -0.8250    0.0000 C   0  0  0  0  0  0  0  0  0  0  0  0
   -0.4125   -0.4125    0.0000 C   0  0  0  0  0  0  0  0  0  0  0  0
   -0.4125    0.4125    0.0000 C   0  0  0  0  0  0  0  0  0  0  0  0
    0.3020    0.8250    0.0000 C   0  0  0  0  0  0  0  0  0  0  0  0
    0.3020    1.6500    0.0000 C   0  0  0  0  0  0  0  0  0  0  0  0
   -0.4125    2.0625    0.0000 N   0  3  0  0  0  0  0  0  0  0  0  0
   -0.4125    2.8875    0.0000 C   0  0  0  0  0  0  0  0  0  0  0  0
   -1.1270    1.6500    0.0000 C   0  0  0  0  0  0  0  0  0  0  0  0
   -1.1270    0.8250    0.0000 C   0  0  0  0  0  0  0  0  0  0  0  0
   -1.1270   -0.8250    0.0000 C   0  0  0  0  0  0  0  0  0  0  0  0
   -1.1270   -1.6500    0.0000 C   0  0  0  0  0  0  0  0  0  0  0  0
   -0.4125   -2.8875    0.0000 C   0  0  0  0  0  0  0  0  0  0  0  0
  2  1  1  0  0  0  0
  3  2  2  0  0  0  0
  4  3  1  0  0  0  0
  4  5  1  0  0  0  0
  6  5  1  0  0  0  0
  7  6  2  0  0  0  0
  8  7  1  0  0  0  0
  8  9  1  0  0  0  0
 10  8  2  0  0  0  0
 11 10  1  0  0  0  0
  5 11  2  0  0  0  0
 12  4  2  0  0  0  0
 13 12  1  0  0  0  0
  1 13  2  0  0  0  0
  1 14  1  0  0  0  0
M  CHG  2   1   1   8   1
M  END
> <ChemID>
100460

> <CAS>
1910-42-5

> <Original_SMILES>
[Cl-].[Cl-].C[n+]1ccc(cc1)-c1cc[n+](C)cc1

> <preferred_name>
Paraquat dichloride

> <dsstox_substance_id>
DTXSID7024243

> <dsstox_compound_id>
DTXCID204243

> <qc_level>
DSSTox_High

> <Canonical_QSARr>
C[N+]1C=CC(=CC=1)C1C=C[N+](C)=CC=1

> <InChI_Code_QSARr>
InChI=1S/C12H14N2/c1-13-7-3-11(4-8-13)12-5-9-14(2)10-6-12/h3-10H,1-2H3/q+2

> <InChI Key_QSARr>
INFDPOAKFNIJBF-UHFFFAOYSA-N

> <Salt_Solvent>
[Cl-]

> <Salt_Solvent_ID>
170

> <MPID>
98385

> <LogBCF>
0.28

> <Tr_1_Tst_0>
1

$$$$
100461
  Mrv171c012241911322D          

 14 14  0  0  0  0            999 V2000
    4.2587   -3.0942    0.0000 Cl  0  0  0  0  0  0  0  0  0  0  0  0
    3.5442   -2.6817    0.0000 C   0  0  0  0  0  0  0  0  0  0  0  0
    3.5442   -1.8567    0.0000 N   0  0  0  0  0  0  0  0  0  0  0  0
    2.8297   -1.4442    0.0000 C   0  0  0  0  0  0  0  0  0  0  0  0
    2.8297   -0.6192    0.0000 N   0  0  0  0  0  0  0  0  0  0  0  0
    3.5442   -0.2067    0.0000 C   0  0  0  0  0  0  0  0  0  0  0  0
    3.5442    0.6183    0.0000 C   0  0  0  0  0  0  0  0  0  0  0  0
    4.2587   -0.6192    0.0000 C   0  0  0  0  0  0  0  0  0  0  0  0
    2.1153   -1.8567    0.0000 N   0  0  0  0  0  0  0  0  0  0  0  0
    2.1153   -2.6817    0.0000 C   0  0  0  0  0  0  0  0  0  0  0  0
    1.4008   -3.0942    0.0000 N   0  0  0  0  0  0  0  0  0  0  0  0
    0.6863   -2.6817    0.0000 C   0  0  0  0  0  0  0  0  0  0  0  0
   -0.0282   -3.0942    0.0000 C   0  0  0  0  0  0  0  0  0  0  0  0
    2.8297   -3.0942    0.0000 N   0  0  0  0  0  0  0  0  0  0  0  0
  1  2  1  0  0  0  0
  3  2  1  0  0  0  0
  4  3  2  0  0  0  0
  4  5  1  0  0  0  0
  5  6  1  0  0  0  0
  6  7  1  0  0  0  0
  6  8  1  0  0  0  0
  9  4  1  0  0  0  0
 10  9  2  0  0  0  0
 10 11  1  0  0  0  0
 11 12  1  0  0  0  0
 12 13  1  0  0  0  0
 14 10  1  0  0  0  0
  2 14  2  0  0  0  0
M  END
> <ChemID>
100461

> <CAS>
1912-24-9

> <Original_SMILES>
CCNc1[n]c(Cl)[n]c(NC(C)C)[n]1

> <preferred_name>
Atrazine

> <dsstox_substance_id>
DTXSID9020112

> <dsstox_compound_id>
DTXCID90112

> <qc_level>
DSSTox_Low

> <Canonical_QSARr>
CCNC1N=C(Cl)N=C(NC(C)C)N=1

> <InChI_Code_QSARr>
InChI=1S/C8H14ClN5/c1-4-10-7-12-6(9)13-8(14-7)11-5(2)3/h5H,4H2,1-3H3,(H2,10,11,12,13,14)

> <InChI Key_QSARr>
MXWJVTOOROXGIU-UHFFFAOYSA-N

> <Salt_Solvent>


> <Salt_Solvent_ID>
0

> <MPID>
98386

> <LogBCF>
0.9

> <Tr_1_Tst_0>
1

$$$$
100463
  Mrv171c012241911322D          

 22 24  0  0  0  0            999 V2000
   -3.1896    0.1246    0.0000 O   0  0  0  0  0  0  0  0  0  0  0  0
   -2.5576    0.6549    0.0000 C   0  0  0  0  0  0  0  0  0  0  0  0
   -2.7009    1.4673    0.0000 O   0  0  0  0  0  0  0  0  0  0  0  0
   -1.7824    0.3727    0.0000 C   0  0  0  0  0  0  0  0  0  0  0  0
   -1.6391    1.1852    0.0000 C   0  0  0  0  0  0  0  0  0  0  0  0
   -2.1949   -0.3418    0.0000 C   0  0  0  0  0  0  0  0  0  0  0  0
   -1.7824   -1.0562    0.0000 C   0  0  0  0  0  0  0  0  0  0  0  0
   -0.9574   -1.0562    0.0000 C   0  0  0  0  0  0  0  0  0  0  0  0
   -0.5449   -0.3418    0.0000 C   0  0  0  0  0  0  0  0  0  0  0  0
   -0.1324   -1.0562    0.0000 C   0  0  0  0  0  0  0  0  0  0  0  0
    0.2801   -0.3418    0.0000 C   0  0  0  0  0  0  0  0  0  0  0  0
    0.6926   -1.0562    0.0000 C   0  0  0  0  0  0  0  0  0  0  0  0
    1.5176   -1.0562    0.0000 C   0  0  0  0  0  0  0  0  0  0  0  0
    1.9301   -0.3418    0.0000 C   0  0  0  0  0  0  0  0  0  0  0  0
    2.7551   -0.3418    0.0000 C   0  0  0  0  0  0  0  0  0  0  0  0
    3.1676    0.3727    0.0000 C   0  0  0  0  0  0  0  0  0  0  0  0
    3.1676   -1.0562    0.0000 C   0  0  0  0  0  0  0  0  0  0  0  0
    1.5176    0.3727    0.0000 C   0  0  0  0  0  0  0  0  0  0  0  0
    0.6926    0.3727    0.0000 C   0  0  0  0  0  0  0  0  0  0  0  0
    0.2801    1.0872    0.0000 C   0  0  0  0  0  0  0  0  0  0  0  0
   -0.5449    1.0872    0.0000 C   0  0  0  0  0  0  0  0  0  0  0  0
   -0.9574    0.3727    0.0000 C   0  0  0  0  0  0  0  0  0  0  0  0
  1  2  1  0  0  0  0
  2  3  2  0  0  0  0
  2  4  1  0  0  0  0
  4  5  1  0  0  0  0
  6  4  1  0  0  0  0
  7  6  1  0  0  0  0
  8  7  1  0  0  0  0
  9  8  1  0  0  0  0
  9 10  1  0  0  0  0
  9 11  1  0  0  0  0
 12 11  1  0  0  0  0
 13 12  1  0  0  0  0
 14 13  1  0  0  0  0
 14 15  1  0  0  0  0
 15 16  1  0  0  0  0
 15 17  1  0  0  0  0
 18 14  2  0  0  0  0
 19 18  1  0  0  0  0
 11 19  2  0  0  0  0
 19 20  1  0  0  0  0
 20 21  1  0  0  0  0
 21 22  1  0  0  0  0
  4 22  1  0  0  0  0
 22  9  1  0  0  0  0
M  END
> <ChemID>
100463

> <CAS>
1945-53-5

> <Original_SMILES>
CC(C)C1CCC2=C(CC[C@@H]3[C@]2(C)CCC[C@@]3(C)C(O)=O)C=1

> <preferred_name>
Palustric acid

> <dsstox_substance_id>
DTXSID90858759

> <dsstox_compound_id>
DTXCID20809491

> <qc_level>
DSSTox_High

> <Canonical_QSARr>
CC(C)C1CCC2=C(CCC3C2(C)CCCC3(C)C(O)=O)C=1

> <InChI_Code_QSARr>
InChI=1S/C20H30O2/c1-13(2)14-6-8-16-15(12-14)7-9-17-19(16,3)10-5-11-20(17,4)18(21)22/h12-13,17H,5-11H2,1-4H3,(H,21,22)

> <InChI Key_QSARr>
MLBYBBUZURKHAW-UHFFFAOYSA-N

> <Salt_Solvent>


> <Salt_Solvent_ID>
0

> <MPID>
98387

> <LogBCF>
1.4

> <Tr_1_Tst_0>
1

$$$$
100464
  Mrv171c012241911322D          

 11 11  0  0  0  0            999 V2000
    1.8381   -2.7688    0.0000 C   0  0  0  0  0  0  0  0  0  0  0  0
    1.8381   -3.5938    0.0000 O   0  0  0  0  0  0  0  0  0  0  0  0
    2.5525   -2.3563    0.0000 C   0  0  0  0  0  0  0  0  0  0  0  0
    2.5525   -1.5313    0.0000 C   0  0  0  0  0  0  0  0  0  0  0  0
    1.8381   -1.1188    0.0000 C   0  0  0  0  0  0  0  0  0  0  0  0
    1.8381   -0.2938    0.0000 C   0  0  0  0  0  0  0  0  0  0  0  0
    1.1236   -1.5313    0.0000 C   0  0  0  0  0  0  0  0  0  0  0  0
    0.4091   -1.1188    0.0000 N   0  3  0  0  0  0  0  0  0  0  0  0
   -0.3054   -1.5313    0.0000 O   0  0  0  0  0  0  0  0  0  0  0  0
    0.4091   -0.2938    0.0000 O   0  5  0  0  0  0  0  0  0  0  0  0
    1.1236   -2.3563    0.0000 C   0  0  0  0  0  0  0  0  0  0  0  0
  1  2  1  0  0  0  0
  3  1  1  0  0  0  0
  4  3  2  0  0  0  0
  5  4  1  0  0  0  0
  5  6  1  0  0  0  0
  7  5  2  0  0  0  0
  7  8  1  0  0  0  0
  8  9  2  0  0  0  0
  8 10  1  0  0  0  0
 11  7  1  0  0  0  0
  1 11  2  0  0  0  0
M  CHG  2   8   1  10  -1
M  END
> <ChemID>
100464

> <CAS>
2042-14-0

> <Original_SMILES>
Cc1ccc(O)cc1[N+]([O-])=O

> <preferred_name>


> <dsstox_substance_id>
DTXSID90879085

> <dsstox_compound_id>
DTXCID801017103

> <qc_level>


> <Canonical_QSARr>
CC1C=CC(O)=CC=1[N+]([O-])=O

> <InChI_Code_QSARr>
InChI=1S/C7H7NO3/c1-5-2-3-6(9)4-7(5)8(10)11/h2-4,9H,1H3

> <InChI Key_QSARr>
BQEXDUKMTVYBRK-UHFFFAOYSA-N

> <Salt_Solvent>


> <Salt_Solvent_ID>
0

> <MPID>
98388

> <LogBCF>
1.0

> <Tr_1_Tst_0>
1

$$$$
100465
  Mrv171c012241911322D          

 12 13  0  0  0  0            999 V2000
    0.7145   -0.9625    0.0000 C   0  0  0  0  0  0  0  0  0  0  0  0
   -0.0000   -0.5500    0.0000 C   0  0  0  0  0  0  0  0  0  0  0  0
   -0.0000    0.2750    0.0000 Cl  0  0  0  0  0  0  0  0  0  0  0  0
   -0.7145   -0.9625    0.0000 C   0  0  0  0  0  0  0  0  0  0  0  0
   -0.7145   -1.7875    0.0000 C   0  0  0  0  0  0  0  0  0  0  0  0
   -0.0000   -2.2000    0.0000 C   0  0  0  0  0  0  0  0  0  0  0  0
    0.7145   -1.7875    0.0000 C   0  0  0  0  0  0  0  0  0  0  0  0
    1.4289   -2.2000    0.0000 C   0  0  0  0  0  0  0  0  0  0  0  0
    2.1434   -1.7875    0.0000 C   0  0  0  0  0  0  0  0  0  0  0  0
    2.1434   -0.9625    0.0000 C   0  0  0  0  0  0  0  0  0  0  0  0
    1.4289   -0.5500    0.0000 C   0  0  0  0  0  0  0  0  0  0  0  0
    1.4289    0.2750    0.0000 Cl  0  0  0  0  0  0  0  0  0  0  0  0
  2  1  1  0  0  0  0
  2  3  1  0  0  0  0
  4  2  2  0  0  0  0
  5  4  1  0  0  0  0
  6  5  2  0  0  0  0
  7  6  1  0  0  0  0
  7  1  1  0  0  0  0
  8  7  2  0  0  0  0
  9  8  1  0  0  0  0
 10  9  2  0  0  0  0
 11 10  1  0  0  0  0
  1 11  2  0  0  0  0
 11 12  1  0  0  0  0
M  END
> <ChemID>
100465

> <CAS>
2050-74-0

> <Original_SMILES>
Clc1cccc2cccc(Cl)c12

> <preferred_name>
Naphthalene, 1,8-dichloro-

> <dsstox_substance_id>
DTXSID0062139

> <dsstox_compound_id>
DTXCID3036319

> <qc_level>
Public_High

> <Canonical_QSARr>
ClC1C=CC=C2C=CC=C(Cl)C=12

> <InChI_Code_QSARr>
InChI=1S/C10H6Cl2/c11-8-5-1-3-7-4-2-6-9(12)10(7)8/h1-6H

> <InChI Key_QSARr>
ADRYPAGQXFMVFP-UHFFFAOYSA-N

> <Salt_Solvent>


> <Salt_Solvent_ID>
0

> <MPID>
98389

> <LogBCF>
3.79

> <Tr_1_Tst_0>
0

$$$$
100466
  Mrv171c012241911322D          

 13 14  0  0  0  0            999 V2000
    0.1649   -0.5394    0.0000 C   0  0  0  0  0  0  0  0  0  0  0  0
   -0.5496   -0.1269    0.0000 C   0  0  0  0  0  0  0  0  0  0  0  0
   -1.2641   -0.5394    0.0000 C   0  0  0  0  0  0  0  0  0  0  0  0
   -1.2641   -1.3644    0.0000 C   0  0  0  0  0  0  0  0  0  0  0  0
   -0.5496   -1.7769    0.0000 C   0  0  0  0  0  0  0  0  0  0  0  0
    0.1649   -1.3644    0.0000 C   0  0  0  0  0  0  0  0  0  0  0  0
    0.8793   -1.7769    0.0000 C   0  0  0  0  0  0  0  0  0  0  0  0
    0.8793   -2.6019    0.0000 Cl  0  0  0  0  0  0  0  0  0  0  0  0
    1.5938   -1.3644    0.0000 C   0  0  0  0  0  0  0  0  0  0  0  0
    1.5938   -0.5394    0.0000 C   0  0  0  0  0  0  0  0  0  0  0  0
    2.3083   -0.1269    0.0000 Cl  0  0  0  0  0  0  0  0  0  0  0  0
    0.8793   -0.1269    0.0000 C   0  0  0  0  0  0  0  0  0  0  0  0
    0.8793    0.6981    0.0000 O   0  0  0  0  0  0  0  0  0  0  0  0
  2  1  1  0  0  0  0
  3  2  2  0  0  0  0
  4  3  1  0  0  0  0
  5  4  2  0  0  0  0
  6  5  1  0  0  0  0
  6  1  1  0  0  0  0
  7  6  2  0  0  0  0
  7  8  1  0  0  0  0
  9  7  1  0  0  0  0
 10  9  2  0  0  0  0
 10 11  1  0  0  0  0
 12 10  1  0  0  0  0
  1 12  2  0  0  0  0
 12 13  1  0  0  0  0
M  END
> <ChemID>
100466

> <CAS>
2050-76-2

> <Original_SMILES>
Oc1c2ccccc2c(Cl)cc1Cl

> <preferred_name>
1-Naphthalenol, 2,4-dichloro-

> <dsstox_substance_id>
DTXSID4062141

> <dsstox_compound_id>
DTXCID7036321

> <qc_level>
Public_High

> <Canonical_QSARr>
OC1=C2C=CC=CC2=C(Cl)C=C1Cl

> <InChI_Code_QSARr>
InChI=1S/C10H6Cl2O/c11-8-5-9(12)10(13)7-4-2-1-3-6(7)8/h1-5,13H

> <InChI Key_QSARr>
HVLJEMXDXOTWLV-UHFFFAOYSA-N

> <Salt_Solvent>


> <Salt_Solvent_ID>
0

> <MPID>
98390

> <LogBCF>
1.35

> <Tr_1_Tst_0>
1

$$$$
100467
  Mrv171c012241911322D          

 22 23  0  0  0  0            999 V2000
    2.5251   -1.6533    0.0000 C   0  0  0  0  0  0  0  0  0  0  0  0
    1.8106   -1.2408    0.0000 C   0  0  0  0  0  0  0  0  0  0  0  0
    1.8106   -0.4158    0.0000 Cl  0  0  0  0  0  0  0  0  0  0  0  0
    1.0961   -1.6533    0.0000 C   0  0  0  0  0  0  0  0  0  0  0  0
    0.3817   -1.2408    0.0000 Cl  0  0  0  0  0  0  0  0  0  0  0  0
    1.0961   -2.4783    0.0000 C   0  0  0  0  0  0  0  0  0  0  0  0
    0.3817   -2.8908    0.0000 Cl  0  0  0  0  0  0  0  0  0  0  0  0
    1.8106   -2.8908    0.0000 C   0  0  0  0  0  0  0  0  0  0  0  0
    1.8106   -3.7158    0.0000 Cl  0  0  0  0  0  0  0  0  0  0  0  0
    2.5251   -2.4783    0.0000 C   0  0  0  0  0  0  0  0  0  0  0  0
    3.2395   -2.8908    0.0000 Cl  0  0  0  0  0  0  0  0  0  0  0  0
    3.2395   -1.2408    0.0000 C   0  0  0  0  0  0  0  0  0  0  0  0
    3.9540   -1.6533    0.0000 C   0  0  0  0  0  0  0  0  0  0  0  0
    3.9540   -2.4783    0.0000 Cl  0  0  0  0  0  0  0  0  0  0  0  0
    4.6685   -1.2408    0.0000 C   0  0  0  0  0  0  0  0  0  0  0  0
    5.3829   -1.6533    0.0000 Cl  0  0  0  0  0  0  0  0  0  0  0  0
    4.6685   -0.4158    0.0000 C   0  0  0  0  0  0  0  0  0  0  0  0
    5.3829   -0.0033    0.0000 Cl  0  0  0  0  0  0  0  0  0  0  0  0
    3.9540   -0.0033    0.0000 C   0  0  0  0  0  0  0  0  0  0  0  0
    3.9540    0.8217    0.0000 Cl  0  0  0  0  0  0  0  0  0  0  0  0
    3.2395   -0.4158    0.0000 C   0  0  0  0  0  0  0  0  0  0  0  0
    2.5251   -0.0033    0.0000 Cl  0  0  0  0  0  0  0  0  0  0  0  0
  2  1  1  0  0  0  0
  2  3  1  0  0  0  0
  4  2  2  0  0  0  0
  4  5  1  0  0  0  0
  6  4  1  0  0  0  0
  6  7  1  0  0  0  0
  8  6  2  0  0  0  0
  8  9  1  0  0  0  0
 10  8  1  0  0  0  0
  1 10  2  0  0  0  0
 10 11  1  0  0  0  0
  1 12  1  0  0  0  0
 13 12  1  0  0  0  0
 13 14  1  0  0  0  0
 15 13  2  0  0  0  0
 15 16  1  0  0  0  0
 17 15  1  0  0  0  0
 17 18  1  0  0  0  0
 19 17  2  0  0  0  0
 19 20  1  0  0  0  0
 21 19  1  0  0  0  0
 12 21  2  0  0  0  0
 21 22  1  0  0  0  0
M  END
> <ChemID>
100467

> <CAS>
2051-24-3

> <Original_SMILES>
Clc1c(-c2c(Cl)c(Cl)c(Cl)c(Cl)c2Cl)c(Cl)c(Cl)c(Cl)c1Cl

> <preferred_name>
Decachlorobiphenyl

> <dsstox_substance_id>
DTXSID4047541

> <dsstox_compound_id>
DTXCID2027541

> <qc_level>
DSSTox_Low

> <Canonical_QSARr>
ClC1C(C2=C(Cl)C(Cl)=C(Cl)C(Cl)=C2Cl)=C(Cl)C(Cl)=C(Cl)C=1Cl

> <InChI_Code_QSARr>
InChI=1S/C12Cl10/c13-3-1(4(14)8(18)11(21)7(3)17)2-5(15)9(19)12(22)10(20)6(2)16

> <InChI Key_QSARr>
ONXPZLFXDMAPRO-UHFFFAOYSA-N

> <Salt_Solvent>


> <Salt_Solvent_ID>
0

> <MPID>
98391

> <LogBCF>
4.24

> <Tr_1_Tst_0>
1

$$$$
100468
  Mrv171c012241911322D          

 21 22  0  0  0  0            999 V2000
    2.4555   -2.8039    0.0000 C   0  0  0  0  0  0  0  0  0  0  0  0
    3.2805   -2.8039    0.0000 C   0  0  0  0  0  0  0  0  0  0  0  0
    3.6930   -3.5183    0.0000 O   0  0  0  0  0  0  0  0  0  0  0  0
    4.5180   -3.5183    0.0000 P   0  0  0  0  0  0  0  0  0  0  0  0
    4.5180   -4.3433    0.0000 C   0  0  0  0  0  0  0  0  0  0  0  0
    3.8035   -4.7558    0.0000 C   0  0  0  0  0  0  0  0  0  0  0  0
    3.8035   -5.5808    0.0000 C   0  0  0  0  0  0  0  0  0  0  0  0
    4.5180   -5.9933    0.0000 C   0  0  0  0  0  0  0  0  0  0  0  0
    5.2325   -5.5808    0.0000 C   0  0  0  0  0  0  0  0  0  0  0  0
    5.2325   -4.7558    0.0000 C   0  0  0  0  0  0  0  0  0  0  0  0
    5.3430   -3.5183    0.0000 O   0  0  0  0  0  0  0  0  0  0  0  0
    5.7555   -2.8039    0.0000 C   0  0  0  0  0  0  0  0  0  0  0  0
    6.5805   -2.8039    0.0000 C   0  0  0  0  0  0  0  0  0  0  0  0
    6.9930   -2.0894    0.0000 C   0  0  0  0  0  0  0  0  0  0  0  0
    6.5805   -1.3749    0.0000 C   0  0  0  0  0  0  0  0  0  0  0  0
    6.9930   -0.6604    0.0000 N   0  3  0  0  0  0  0  0  0  0  0  0
    6.5805    0.0540    0.0000 O   0  5  0  0  0  0  0  0  0  0  0  0
    7.8180   -0.6604    0.0000 O   0  0  0  0  0  0  0  0  0  0  0  0
    5.7555   -1.3749    0.0000 C   0  0  0  0  0  0  0  0  0  0  0  0
    5.3430   -2.0894    0.0000 C   0  0  0  0  0  0  0  0  0  0  0  0
    4.5180   -2.6933    0.0000 S   0  0  0  0  0  0  0  0  0  0  0  0
  1  2  1  0  0  0  0
  2  3  1  0  0  0  0
  3  4  1  0  0  0  0
  4  5  1  0  0  0  0
  6  5  1  0  0  0  0
  7  6  2  0  0  0  0
  8  7  1  0  0  0  0
  9  8  2  0  0  0  0
 10  9  1  0  0  0  0
  5 10  2  0  0  0  0
  4 11  1  0  0  0  0
 11 12  1  0  0  0  0
 13 12  1  0  0  0  0
 14 13  2  0  0  0  0
 15 14  1  0  0  0  0
 15 16  1  0  0  0  0
 16 17  1  0  0  0  0
 16 18  2  0  0  0  0
 19 15  2  0  0  0  0
 20 19  1  0  0  0  0
 12 20  2  0  0  0  0
  4 21  2  0  0  0  0
M  CHG  2  16   1  17  -1
M  END
> <ChemID>
100468

> <CAS>
2104-64-5

> <Original_SMILES>
CCOP(=S)(Oc1ccc(cc1)[N+]([O-])=O)c1ccccc1

> <preferred_name>
EPN

> <dsstox_substance_id>
DTXSID7022174

> <dsstox_compound_id>
DTXCID102174

> <qc_level>
DSSTox_Low

> <Canonical_QSARr>
CCOP(=S)(OC1C=CC(=CC=1)[N+]([O-])=O)C1C=CC=CC=1

> <InChI_Code_QSARr>
InChI=1S/C14H14NO4PS/c1-2-18-20(21,14-6-4-3-5-7-14)19-13-10-8-12(9-11-13)15(16)17/h3-11H,2H2,1H3

> <InChI Key_QSARr>
AIGRXSNSLVJMEA-UHFFFAOYSA-N

> <Salt_Solvent>


> <Salt_Solvent_ID>
0

> <MPID>
98392

> <LogBCF>
2.97

> <Tr_1_Tst_0>
1

$$$$
100469
  Mrv171c012241911322D          

 16 16  0  0  0  0            999 V2000
    3.2970   -1.9917    0.0000 P   0  0  0  0  0  0  0  0  0  0  0  0
    4.0115   -2.4042    0.0000 O   0  0  0  0  0  0  0  0  0  0  0  0
    4.7260   -1.9917    0.0000 C   0  0  0  0  0  0  0  0  0  0  0  0
    3.7095   -1.2772    0.0000 O   0  0  0  0  0  0  0  0  0  0  0  0
    3.2970   -0.5628    0.0000 C   0  0  0  0  0  0  0  0  0  0  0  0
    2.8845   -2.7062    0.0000 S   0  0  0  0  0  0  0  0  0  0  0  0
    2.5826   -1.5792    0.0000 O   0  0  0  0  0  0  0  0  0  0  0  0
    1.8681   -1.9917    0.0000 C   0  0  0  0  0  0  0  0  0  0  0  0
    1.1536   -1.5792    0.0000 C   0  0  0  0  0  0  0  0  0  0  0  0
    1.1536   -0.7542    0.0000 Cl  0  0  0  0  0  0  0  0  0  0  0  0
    0.4392   -1.9917    0.0000 C   0  0  0  0  0  0  0  0  0  0  0  0
    0.4392   -2.8167    0.0000 C   0  0  0  0  0  0  0  0  0  0  0  0
   -0.2753   -3.2292    0.0000 Br  0  0  0  0  0  0  0  0  0  0  0  0
    1.1536   -3.2292    0.0000 C   0  0  0  0  0  0  0  0  0  0  0  0
    1.1536   -4.0542    0.0000 Cl  0  0  0  0  0  0  0  0  0  0  0  0
    1.8681   -2.8167    0.0000 C   0  0  0  0  0  0  0  0  0  0  0  0
  1  2  1  0  0  0  0
  2  3  1  0  0  0  0
  1  4  1  0  0  0  0
  4  5  1  0  0  0  0
  1  6  2  0  0  0  0
  1  7  1  0  0  0  0
  7  8  1  0  0  0  0
  9  8  2  0  0  0  0
  9 10  1  0  0  0  0
 11  9  1  0  0  0  0
 12 11  2  0  0  0  0
 12 13  1  0  0  0  0
 14 12  1  0  0  0  0
 14 15  1  0  0  0  0
 16 14  2  0  0  0  0
  8 16  1  0  0  0  0
M  END
> <ChemID>
100469

> <CAS>
2104-96-3

> <Original_SMILES>
COP(=S)(Oc1cc(Cl)c(Br)cc1Cl)OC

> <preferred_name>
Bromofos

> <dsstox_substance_id>
DTXSID1041683

> <dsstox_compound_id>
DTXCID9021683

> <qc_level>
DSSTox_Low

> <Canonical_QSARr>
COP(=S)(OC1C=C(Cl)C(Br)=CC=1Cl)OC

> <InChI_Code_QSARr>
InChI=1S/C8H8BrCl2O3PS/c1-12-15(16,13-2)14-8-4-6(10)5(9)3-7(8)11/h3-4H,1-2H3

> <InChI Key_QSARr>
NYQDCVLCJXRDSK-UHFFFAOYSA-N

> <Salt_Solvent>


> <Salt_Solvent_ID>
0

> <MPID>
98393

> <LogBCF>
3.59

> <Tr_1_Tst_0>
0

$$$$
100470
  Mrv171c012241911322D          

  7  7  0  0  0  0            999 V2000
    1.9852   -1.1689    0.0000 N   0  0  0  0  0  0  0  0  0  0  0  0
    2.2401   -0.3842    0.0000 C   0  0  0  0  0  0  0  0  0  0  0  0
    1.5727    0.1007    0.0000 C   0  0  0  0  0  0  0  0  0  0  0  0
    1.5727    0.9257    0.0000 C   0  0  0  0  0  0  0  0  0  0  0  0
    0.9053   -0.3842    0.0000 N   0  0  0  0  0  0  0  0  0  0  0  0
    1.1602   -1.1689    0.0000 C   0  0  0  0  0  0  0  0  0  0  0  0
    0.6753   -1.8363    0.0000 S   0  0  0  0  0  0  0  0  0  0  0  0
  2  1  1  0  0  0  0
  3  2  1  0  0  0  0
  3  4  1  0  0  0  0
  5  3  1  0  0  0  0
  6  5  1  0  0  0  0
  1  6  1  0  0  0  0
  6  7  2  0  0  0  0
M  END
> <ChemID>
100470

> <CAS>
2122-19-2

> <Original_SMILES>
CC1CNC(=S)N1

> <preferred_name>
4-Methyl-2-imidazolidinethione

> <dsstox_substance_id>
DTXSID3052694

> <dsstox_compound_id>
DTXCID7031292

> <qc_level>
DSSTox_Low

> <Canonical_QSARr>
CC1CNC(=S)N1

> <InChI_Code_QSARr>
InChI=1S/C4H8N2S/c1-3-2-5-4(7)6-3/h3H,2H2,1H3,(H2,5,6,7)

> <InChI Key_QSARr>
NGZJXCFNBVJLQN-UHFFFAOYSA-N

> <Salt_Solvent>


> <Salt_Solvent_ID>
0

> <MPID>
98394

> <LogBCF>
1.0

> <Tr_1_Tst_0>
1

$$$$
100471
  Mrv171c012241911322D          

 20 21  0  0  0  0            999 V2000
    0.3572    1.4438    0.0000 C   0  0  0  0  0  0  0  0  0  0  0  0
   -0.3572    1.8563    0.0000 C   0  0  0  0  0  0  0  0  0  0  0  0
   -0.3572    2.6813    0.0000 Cl  0  0  0  0  0  0  0  0  0  0  0  0
   -1.0717    1.4438    0.0000 C   0  0  0  0  0  0  0  0  0  0  0  0
   -1.7862    1.8563    0.0000 Cl  0  0  0  0  0  0  0  0  0  0  0  0
   -1.0717    0.6188    0.0000 C   0  0  0  0  0  0  0  0  0  0  0  0
   -0.3572    0.2063    0.0000 C   0  0  0  0  0  0  0  0  0  0  0  0
   -0.3572   -0.6187    0.0000 Cl  0  0  0  0  0  0  0  0  0  0  0  0
    0.3572    0.6188    0.0000 C   0  0  0  0  0  0  0  0  0  0  0  0
    1.0717    0.2063    0.0000 Cl  0  0  0  0  0  0  0  0  0  0  0  0
    1.0717    1.8563    0.0000 C   0  0  0  0  0  0  0  0  0  0  0  0
    1.7862    1.4438    0.0000 C   0  0  0  0  0  0  0  0  0  0  0  0
    1.7862    0.6188    0.0000 Cl  0  0  0  0  0  0  0  0  0  0  0  0
    2.5006    1.8563    0.0000 C   0  0  0  0  0  0  0  0  0  0  0  0
    3.2151    1.4438    0.0000 Cl  0  0  0  0  0  0  0  0  0  0  0  0
    2.5006    2.6813    0.0000 C   0  0  0  0  0  0  0  0  0  0  0  0
    1.7862    3.0938    0.0000 C   0  0  0  0  0  0  0  0  0  0  0  0
    1.7862    3.9188    0.0000 Cl  0  0  0  0  0  0  0  0  0  0  0  0
    1.0717    2.6813    0.0000 C   0  0  0  0  0  0  0  0  0  0  0  0
    0.3572    3.0938    0.0000 Cl  0  0  0  0  0  0  0  0  0  0  0  0
  2  1  1  0  0  0  0
  2  3  1  0  0  0  0
  4  2  2  0  0  0  0
  4  5  1  0  0  0  0
  6  4  1  0  0  0  0
  7  6  2  0  0  0  0
  7  8  1  0  0  0  0
  9  7  1  0  0  0  0
  1  9  2  0  0  0  0
  9 10  1  0  0  0  0
  1 11  1  0  0  0  0
 12 11  1  0  0  0  0
 12 13  1  0  0  0  0
 14 12  2  0  0  0  0
 14 15  1  0  0  0  0
 16 14  1  0  0  0  0
 17 16  2  0  0  0  0
 17 18  1  0  0  0  0
 19 17  1  0  0  0  0
 11 19  2  0  0  0  0
 19 20  1  0  0  0  0
M  END
> <ChemID>
100471

> <CAS>
2136-99-4

> <Original_SMILES>
Clc1cc(Cl)c(Cl)c(-c2c(Cl)c(Cl)cc(Cl)c2Cl)c1Cl

> <preferred_name>
2,2',3,3',5,5',6,6'-Octachlorobiphenyl

> <dsstox_substance_id>
DTXSID0074132

> <dsstox_compound_id>
DTXCID1036468

> <qc_level>
Public_High

> <Canonical_QSARr>
ClC1C=C(Cl)C(Cl)=C(C2=C(Cl)C(Cl)=CC(Cl)=C2Cl)C=1Cl

> <InChI_Code_QSARr>
InChI=1S/C12H2Cl8/c13-3-1-4(14)10(18)7(9(3)17)8-11(19)5(15)2-6(16)12(8)20/h1-2H

> <InChI Key_QSARr>
JPOPEORRMSDUIP-UHFFFAOYSA-N

> <Salt_Solvent>


> <Salt_Solvent_ID>
0

> <MPID>
98395

> <LogBCF>
5.82

> <Tr_1_Tst_0>
1

$$$$
100472
  Mrv171c012241911322D          

 15 16  0  0  0  0            999 V2000
    3.6147   -1.2353    0.0000 C   0  0  0  0  0  0  0  0  0  0  0  0
    2.9003   -0.8228    0.0000 C   0  0  0  0  0  0  0  0  0  0  0  0
    2.1858   -1.2353    0.0000 C   0  0  0  0  0  0  0  0  0  0  0  0
    1.4713   -0.8228    0.0000 O   0  0  0  0  0  0  0  0  0  0  0  0
    0.7569   -1.2353    0.0000 C   0  0  0  0  0  0  0  0  0  0  0  0
    0.0424   -0.8228    0.0000 C   0  0  0  0  0  0  0  0  0  0  0  0
   -0.6721   -1.2353    0.0000 C   0  0  0  0  0  0  0  0  0  0  0  0
    0.0424    0.0022    0.0000 C   0  0  0  0  0  0  0  0  0  0  0  0
    2.1858   -2.0603    0.0000 C   0  0  0  0  0  0  0  0  0  0  0  0
    2.9003   -2.4728    0.0000 C   0  0  0  0  0  0  0  0  0  0  0  0
    3.6147   -2.0603    0.0000 C   0  0  0  0  0  0  0  0  0  0  0  0
    4.3292   -2.4728    0.0000 C   0  0  0  0  0  0  0  0  0  0  0  0
    5.0437   -2.0603    0.0000 C   0  0  0  0  0  0  0  0  0  0  0  0
    5.0437   -1.2353    0.0000 C   0  0  0  0  0  0  0  0  0  0  0  0
    4.3292   -0.8228    0.0000 C   0  0  0  0  0  0  0  0  0  0  0  0
  2  1  1  0  0  0  0
  3  2  2  0  0  0  0
  3  4  1  0  0  0  0
  4  5  1  0  0  0  0
  5  6  1  0  0  0  0
  6  7  1  0  0  0  0
  6  8  1  0  0  0  0
  9  3  1  0  0  0  0
 10  9  2  0  0  0  0
 11 10  1  0  0  0  0
 11  1  1  0  0  0  0
 12 11  2  0  0  0  0
 13 12  1  0  0  0  0
 14 13  2  0  0  0  0
 15 14  1  0  0  0  0
  1 15  2  0  0  0  0
M  END
> <ChemID>
100472

> <CAS>
2173-57-1

> <Original_SMILES>
CC(C)COc1cc2ccccc2cc1

> <preferred_name>
Isobutyl 2-naphthyl ether

> <dsstox_substance_id>
DTXSID1051484

> <dsstox_compound_id>
DTXCID3030422

> <qc_level>
DSSTox_Low

> <Canonical_QSARr>
CC(C)COC1=CC2=CC=CC=C2C=C1

> <InChI_Code_QSARr>
InChI=1S/C14H16O/c1-11(2)10-15-14-8-7-12-5-3-4-6-13(12)9-14/h3-9,11H,10H2,1-2H3

> <InChI Key_QSARr>
XOHIHZHSDMWWMS-UHFFFAOYSA-N

> <Salt_Solvent>


> <Salt_Solvent_ID>
0

> <MPID>
98396

> <LogBCF>
2.8

> <Tr_1_Tst_0>
1

$$$$
100473
  Mrv171c012241911322D          

 12 12  0  0  0  0            999 V2000
    1.7400   -1.2985    0.0000 N   0  0  0  0  0  0  0  0  0  0  0  0
    1.7400   -0.4735    0.0000 C   0  0  0  0  0  0  0  0  0  0  0  0
    2.4545   -0.0610    0.0000 S   0  0  0  0  0  0  0  0  0  0  0  0
    2.4545    0.7640    0.0000 C   0  0  0  0  0  0  0  0  0  0  0  0
    3.1689    1.1765    0.0000 C   0  0  0  0  0  0  0  0  0  0  0  0
    1.0255   -0.0610    0.0000 O   0  0  0  0  0  0  0  0  0  0  0  0
    0.9967   -1.6564    0.0000 C   0  0  0  0  0  0  0  0  0  0  0  0
    0.8131   -2.4607    0.0000 C   0  0  0  0  0  0  0  0  0  0  0  0
    1.3275   -3.1057    0.0000 C   0  0  0  0  0  0  0  0  0  0  0  0
    2.1525   -3.1057    0.0000 C   0  0  0  0  0  0  0  0  0  0  0  0
    2.6669   -2.4607    0.0000 C   0  0  0  0  0  0  0  0  0  0  0  0
    2.4833   -1.6564    0.0000 C   0  0  0  0  0  0  0  0  0  0  0  0
  1  2  1  0  0  0  0
  2  3  1  0  0  0  0
  3  4  1  0  0  0  0
  4  5  1  0  0  0  0
  2  6  2  0  0  0  0
  7  1  1  0  0  0  0
  8  7  1  0  0  0  0
  9  8  1  0  0  0  0
 10  9  1  0  0  0  0
 11 10  1  0  0  0  0
 12 11  1  0  0  0  0
  1 12  1  0  0  0  0
M  END
> <ChemID>
100473

> <CAS>
2212-67-1

> <Original_SMILES>
CCSC(=O)N1CCCCCC1

> <preferred_name>
Molinate

> <dsstox_substance_id>
DTXSID6024206

> <dsstox_compound_id>
DTXCID204206

> <qc_level>
DSSTox_Low

> <Canonical_QSARr>
CCSC(=O)N1CCCCCC1

> <InChI_Code_QSARr>
InChI=1S/C9H17NOS/c1-2-12-9(11)10-7-5-3-4-6-8-10/h2-8H2,1H3

> <InChI Key_QSARr>
DEDOPGXGGQYYMW-UHFFFAOYSA-N

> <Salt_Solvent>


> <Salt_Solvent_ID>
0

> <MPID>
98397

> <LogBCF>
1.41

> <Tr_1_Tst_0>
0

$$$$
100475
  Mrv171c012241911322D          

 12 13  0  0  0  0            999 V2000
    0.4763   -1.0312    0.0000 C   0  0  0  0  0  0  0  0  0  0  0  0
   -0.2382   -0.6187    0.0000 C   0  0  0  0  0  0  0  0  0  0  0  0
   -0.9526   -1.0312    0.0000 C   0  0  0  0  0  0  0  0  0  0  0  0
   -0.9526   -1.8562    0.0000 C   0  0  0  0  0  0  0  0  0  0  0  0
   -0.2382   -2.2687    0.0000 C   0  0  0  0  0  0  0  0  0  0  0  0
    0.4763   -1.8562    0.0000 C   0  0  0  0  0  0  0  0  0  0  0  0
    1.1908   -2.2687    0.0000 C   0  0  0  0  0  0  0  0  0  0  0  0
    1.9052   -1.8562    0.0000 C   0  0  0  0  0  0  0  0  0  0  0  0
    1.9052   -1.0312    0.0000 C   0  0  0  0  0  0  0  0  0  0  0  0
    1.1908   -0.6187    0.0000 C   0  0  0  0  0  0  0  0  0  0  0  0
    1.1908    0.2063    0.0000 O   0  0  0  0  0  0  0  0  0  0  0  0
    0.4763    0.6188    0.0000 C   0  0  0  0  0  0  0  0  0  0  0  0
  2  1  1  0  0  0  0
  3  2  2  0  0  0  0
  4  3  1  0  0  0  0
  5  4  2  0  0  0  0
  6  5  1  0  0  0  0
  6  1  1  0  0  0  0
  7  6  2  0  0  0  0
  8  7  1  0  0  0  0
  9  8  2  0  0  0  0
 10  9  1  0  0  0  0
  1 10  2  0  0  0  0
 10 11  1  0  0  0  0
 11 12  1  0  0  0  0
M  END
> <ChemID>
100475

> <CAS>
2216-69-5

> <Original_SMILES>
COc1cccc2ccccc21

> <preferred_name>
Naphthalene, 1-methoxy-

> <dsstox_substance_id>
DTXSID5062263

> <dsstox_compound_id>
DTXCID6036625

> <qc_level>
Public_High

> <Canonical_QSARr>
COC1C=CC=C2C=CC=CC2=1

> <InChI_Code_QSARr>
InChI=1S/C11H10O/c1-12-11-8-4-6-9-5-2-3-7-10(9)11/h2-8H,1H3

> <InChI Key_QSARr>
NQMUGNMMFTYOHK-UHFFFAOYSA-N

> <Salt_Solvent>


> <Salt_Solvent_ID>
0

> <MPID>
98399

> <LogBCF>
2.21

> <Tr_1_Tst_0>
1

$$$$
100476
  Mrv171c012241911322D          

 18 19  0  0  0  0            999 V2000
    2.1490   -1.2439    0.0000 C   0  0  0  0  0  0  0  0  0  0  0  0
    1.4345   -0.8314    0.0000 C   0  0  0  0  0  0  0  0  0  0  0  0
    1.4345   -0.0064    0.0000 Cl  0  0  0  0  0  0  0  0  0  0  0  0
    0.7201   -1.2439    0.0000 C   0  0  0  0  0  0  0  0  0  0  0  0
    0.0056   -0.8314    0.0000 Cl  0  0  0  0  0  0  0  0  0  0  0  0
    0.7201   -2.0689    0.0000 C   0  0  0  0  0  0  0  0  0  0  0  0
    0.0056   -2.4814    0.0000 Cl  0  0  0  0  0  0  0  0  0  0  0  0
    1.4345   -2.4814    0.0000 C   0  0  0  0  0  0  0  0  0  0  0  0
    1.4345   -3.3064    0.0000 Cl  0  0  0  0  0  0  0  0  0  0  0  0
    2.1490   -2.0689    0.0000 C   0  0  0  0  0  0  0  0  0  0  0  0
    2.8635   -2.4814    0.0000 C   0  0  0  0  0  0  0  0  0  0  0  0
    2.8635   -3.3064    0.0000 Cl  0  0  0  0  0  0  0  0  0  0  0  0
    3.5779   -2.0689    0.0000 C   0  0  0  0  0  0  0  0  0  0  0  0
    4.2924   -2.4814    0.0000 Cl  0  0  0  0  0  0  0  0  0  0  0  0
    3.5779   -1.2439    0.0000 C   0  0  0  0  0  0  0  0  0  0  0  0
    4.2924   -0.8314    0.0000 Cl  0  0  0  0  0  0  0  0  0  0  0  0
    2.8635   -0.8314    0.0000 C   0  0  0  0  0  0  0  0  0  0  0  0
    2.8635   -0.0064    0.0000 Cl  0  0  0  0  0  0  0  0  0  0  0  0
  2  1  1  0  0  0  0
  2  3  1  0  0  0  0
  4  2  2  0  0  0  0
  4  5  1  0  0  0  0
  6  4  1  0  0  0  0
  6  7  1  0  0  0  0
  8  6  2  0  0  0  0
  8  9  1  0  0  0  0
 10  8  1  0  0  0  0
 10  1  1  0  0  0  0
 11 10  2  0  0  0  0
 11 12  1  0  0  0  0
 13 11  1  0  0  0  0
 13 14  1  0  0  0  0
 15 13  2  0  0  0  0
 15 16  1  0  0  0  0
 17 15  1  0  0  0  0
  1 17  2  0  0  0  0
 17 18  1  0  0  0  0
M  END
> <ChemID>
100476

> <CAS>
2234-13-1

> <Original_SMILES>
Clc1c2c(c(Cl)c(Cl)c1Cl)c(Cl)c(Cl)c(Cl)c2Cl

> <preferred_name>
Octachloronaphthalene

> <dsstox_substance_id>
DTXSID6025800

> <dsstox_compound_id>
DTXCID105800

> <qc_level>
DSSTox_Low

> <Canonical_QSARr>
ClC1C2C(=C(Cl)C(Cl)=C(Cl)C=2Cl)C(Cl)=C(Cl)C=1Cl

> <InChI_Code_QSARr>
InChI=1S/C10Cl8/c11-3-1-2(5(13)9(17)7(3)15)6(14)10(18)8(16)4(1)12

> <InChI Key_QSARr>
RTNLUFLDZOAXIC-UHFFFAOYSA-N

> <Salt_Solvent>


> <Salt_Solvent_ID>
0

> <MPID>
98400

> <LogBCF>
2.58

> <Tr_1_Tst_0>
1

$$$$
100477
  Mrv171c012241911322D          

 12 13  0  0  0  0            999 V2000
    1.0713   -3.0929    0.0000 N   0  0  0  0  0  0  0  0  0  0  0  0
    1.0713   -2.2679    0.0000 C   0  0  0  0  0  0  0  0  0  0  0  0
    0.3568   -1.8554    0.0000 C   0  0  0  0  0  0  0  0  0  0  0  0
    0.3568   -1.0304    0.0000 C   0  0  0  0  0  0  0  0  0  0  0  0
    1.0713   -0.6179    0.0000 C   0  0  0  0  0  0  0  0  0  0  0  0
    1.7858   -1.0304    0.0000 C   0  0  0  0  0  0  0  0  0  0  0  0
    2.5003   -0.6179    0.0000 C   0  0  0  0  0  0  0  0  0  0  0  0
    2.5003    0.2071    0.0000 N   0  0  0  0  0  0  0  0  0  0  0  0
    3.2147   -1.0304    0.0000 C   0  0  0  0  0  0  0  0  0  0  0  0
    3.2147   -1.8554    0.0000 C   0  0  0  0  0  0  0  0  0  0  0  0
    2.5003   -2.2679    0.0000 C   0  0  0  0  0  0  0  0  0  0  0  0
    1.7858   -1.8554    0.0000 C   0  0  0  0  0  0  0  0  0  0  0  0
  1  2  1  0  0  0  0
  3  2  1  0  0  0  0
  4  3  2  0  0  0  0
  5  4  1  0  0  0  0
  6  5  2  0  0  0  0
  6  7  1  0  0  0  0
  7  8  1  0  0  0  0
  7  9  2  0  0  0  0
  9 10  1  0  0  0  0
 10 11  2  0  0  0  0
 11 12  1  0  0  0  0
  2 12  2  0  0  0  0
 12  6  1  0  0  0  0
M  END
> <ChemID>
100477

> <CAS>
2243-62-1

> <Original_SMILES>
Nc1cccc2c1cccc2N

> <preferred_name>
1,5-Naphthalenediamine

> <dsstox_substance_id>
DTXSID3020916

> <dsstox_compound_id>
DTXCID90916

> <qc_level>
DSSTox_Low

> <Canonical_QSARr>
NC1C=CC=C2C=1C=CC=C2N

> <InChI_Code_QSARr>
InChI=1S/C10H10N2/c11-9-5-1-3-7-8(9)4-2-6-10(7)12/h1-6H,11-12H2

> <InChI Key_QSARr>
KQSABULTKYLFEV-UHFFFAOYSA-N

> <Salt_Solvent>


> <Salt_Solvent_ID>
0

> <MPID>
98401

> <LogBCF>
0.65

> <Tr_1_Tst_0>
1

$$$$
100478
  Mrv171c012241911322D          

 17 17  0  0  0  0            999 V2000
    2.9641   -1.4017    0.0000 P   0  0  0  0  0  0  0  0  0  0  0  0
    2.5516   -0.6872    0.0000 O   0  0  0  0  0  0  0  0  0  0  0  0
    2.2497   -1.8142    0.0000 O   0  0  0  0  0  0  0  0  0  0  0  0
    2.2497   -2.6392    0.0000 C   0  0  0  0  0  0  0  0  0  0  0  0
    3.3766   -2.1162    0.0000 O   0  0  0  0  0  0  0  0  0  0  0  0
    2.9641   -2.8306    0.0000 C   0  0  0  0  0  0  0  0  0  0  0  0
    3.6786   -0.9892    0.0000 O   0  0  0  0  0  0  0  0  0  0  0  0
    3.6786   -0.1642    0.0000 C   0  0  0  0  0  0  0  0  0  0  0  0
    4.3931    0.2483    0.0000 C   0  0  0  0  0  0  0  0  0  0  0  0
    4.3931    1.0733    0.0000 C   0  0  0  0  0  0  0  0  0  0  0  0
    3.6786    1.4858    0.0000 C   0  0  0  0  0  0  0  0  0  0  0  0
    3.6786    2.3108    0.0000 N   0  3  0  0  0  0  0  0  0  0  0  0
    2.9641    2.7233    0.0000 O   0  0  0  0  0  0  0  0  0  0  0  0
    4.3931    2.7233    0.0000 O   0  5  0  0  0  0  0  0  0  0  0  0
    2.9641    1.0733    0.0000 C   0  0  0  0  0  0  0  0  0  0  0  0
    2.2497    1.4858    0.0000 C   0  0  0  0  0  0  0  0  0  0  0  0
    2.9641    0.2483    0.0000 C   0  0  0  0  0  0  0  0  0  0  0  0
  1  2  2  0  0  0  0
  1  3  1  0  0  0  0
  3  4  1  0  0  0  0
  1  5  1  0  0  0  0
  5  6  1  0  0  0  0
  1  7  1  0  0  0  0
  7  8  1  0  0  0  0
  9  8  1  0  0  0  0
 10  9  2  0  0  0  0
 11 10  1  0  0  0  0
 11 12  1  0  0  0  0
 12 13  2  0  0  0  0
 12 14  1  0  0  0  0
 15 11  2  0  0  0  0
 15 16  1  0  0  0  0
 17 15  1  0  0  0  0
  8 17  2  0  0  0  0
M  CHG  2  12   1  14  -1
M  END
> <ChemID>
100478

> <CAS>
2255-17-6

> <Original_SMILES>
Cc1cc(ccc1[N+]([O-])=O)OP(=O)(OC)OC

> <preferred_name>
Fenitrooxone

> <dsstox_substance_id>
DTXSID00177084

> <dsstox_compound_id>
DTXCID5099575

> <qc_level>
Public_Medium

> <Canonical_QSARr>
CC1C=C(C=CC=1[N+]([O-])=O)OP(=O)(OC)OC

> <InChI_Code_QSARr>
InChI=1S/C9H12NO6P/c1-7-6-8(4-5-9(7)10(11)12)16-17(13,14-2)15-3/h4-6H,1-3H3

> <InChI Key_QSARr>
MJNAIAPNXYJWCT-UHFFFAOYSA-N

> <Salt_Solvent>


> <Salt_Solvent_ID>
0

> <MPID>
98402

> <LogBCF>
0.44

> <Tr_1_Tst_0>
0

$$$$
100479
  Mrv171c012241911322D          

 22 26  0  0  0  0            999 V2000
    2.1662   -0.5944    0.0000 C   0  0  0  0  0  0  0  0  0  0  0  0
    2.4248    0.1890    0.0000 Cl  0  0  0  0  0  0  0  0  0  0  0  0
    2.2004   -1.2333    0.0000 C   0  0  0  0  0  0  0  0  0  0  0  0
    2.2867   -2.3035    0.0000 C   0  0  0  0  0  0  0  0  0  0  0  0
    2.8140   -2.0472    0.0000 C   0  0  0  0  0  0  0  0  0  0  0  0
    1.7458   -2.2129    0.0000 C   0  0  0  0  0  0  0  0  0  0  0  0
    1.1128   -2.7419    0.0000 Cl  0  0  0  0  0  0  0  0  0  0  0  0
    1.9165   -1.6139    0.0000 C   0  0  0  0  0  0  0  0  0  0  0  0
    0.8878   -1.5630    0.0000 C   0  0  0  0  0  0  0  0  0  0  0  0
    1.2172   -0.7010    0.0000 C   0  0  0  0  0  0  0  0  0  0  0  0
    0.7121   -0.0487    0.0000 Cl  0  0  0  0  0  0  0  0  0  0  0  0
    1.4615   -1.2803    0.0000 C   0  0  0  0  0  0  0  0  0  0  0  0
    0.9991   -1.9636    0.0000 Cl  0  0  0  0  0  0  0  0  0  0  0  0
    0.5619   -2.3209    0.0000 Cl  0  0  0  0  0  0  0  0  0  0  0  0
    0.0628   -1.5561    0.0000 Cl  0  0  0  0  0  0  0  0  0  0  0  0
    1.7560   -0.8046    0.0000 Cl  0  0  0  0  0  0  0  0  0  0  0  0
    2.8089   -1.1927    0.0000 C   0  0  0  0  0  0  0  0  0  0  0  0
    3.6241   -1.3196    0.0000 Cl  0  0  0  0  0  0  0  0  0  0  0  0
    3.5146   -2.4828    0.0000 Cl  0  0  0  0  0  0  0  0  0  0  0  0
    1.5470   -2.6688    0.0000 Cl  0  0  0  0  0  0  0  0  0  0  0  0
    2.3479   -3.1262    0.0000 Cl  0  0  0  0  0  0  0  0  0  0  0  0
    3.0003   -1.4351    0.0000 Cl  0  0  0  0  0  0  0  0  0  0  0  0
  1  2  1  0  0  0  0
  3  1  1  0  0  0  0
  3  4  1  0  0  0  0
  4  5  1  0  0  0  0
  5  6  1  0  0  0  0
  6  7  1  0  0  0  0
  8  6  1  0  0  0  0
  9  8  1  0  0  0  0
 10  9  1  0  0  0  0
 10  1  1  0  0  0  0
 10 11  1  0  0  0  0
 12 10  1  0  0  0  0
 12  3  1  0  0  0  0
  6 12  1  0  0  0  0
 12 13  1  0  0  0  0
  9 14  1  0  0  0  0
  9 15  1  0  0  0  0
  8 16  1  0  0  0  0
  8 17  1  0  0  0  0
  1 17  1  0  0  0  0
 17  5  1  0  0  0  0
 17 18  1  0  0  0  0
  5 19  1  0  0  0  0
  4 20  1  0  0  0  0
  4 21  1  0  0  0  0
  3 22  1  0  0  0  0
M  END
> <ChemID>
100479

> <CAS>
2385-85-5

> <Original_SMILES>
ClC1(Cl)C2(Cl)C3(Cl)C4(Cl)C2(Cl)C2(Cl)C(Cl)(C3(Cl)C12Cl)C4(Cl)Cl

> <preferred_name>
Mirex

> <dsstox_substance_id>
DTXSID7020895

> <dsstox_compound_id>
DTXCID10895

> <qc_level>
DSSTox_Low

> <Canonical_QSARr>
ClC1(Cl)C2(Cl)C3(Cl)C4(Cl)C2(Cl)C2(Cl)C(Cl)(C3(Cl)C12Cl)C4(Cl)Cl

> <InChI_Code_QSARr>
InChI=1S/C10Cl12/c11-1-2(12)7(17)4(14)3(13,5(1,15)9(7,19)20)6(1,16)10(21,22)8(2,4)18

> <InChI Key_QSARr>
GVYLCNUFSHDAAW-UHFFFAOYSA-N

> <Salt_Solvent>


> <Salt_Solvent_ID>
0

> <MPID>
98403

> <LogBCF>
4.31

> <Tr_1_Tst_0>
1

$$$$
100480
  Mrv171c012241911322D          

 11 11  0  0  0  0            999 V2000
    2.9873   -1.5008    0.0000 O   0  0  0  0  0  0  0  0  0  0  0  0
    2.2728   -1.0883    0.0000 C   0  0  0  0  0  0  0  0  0  0  0  0
    2.2728   -0.2633    0.0000 C   0  0  0  0  0  0  0  0  0  0  0  0
    1.5583    0.1492    0.0000 C   0  0  0  0  0  0  0  0  0  0  0  0
    1.5583    0.9742    0.0000 Cl  0  0  0  0  0  0  0  0  0  0  0  0
    0.8439   -0.2633    0.0000 C   0  0  0  0  0  0  0  0  0  0  0  0
    0.1294    0.1492    0.0000 Cl  0  0  0  0  0  0  0  0  0  0  0  0
    0.8439   -1.0883    0.0000 C   0  0  0  0  0  0  0  0  0  0  0  0
    1.5583   -1.5008    0.0000 C   0  0  0  0  0  0  0  0  0  0  0  0
    1.5583   -2.3258    0.0000 O   0  0  0  0  0  0  0  0  0  0  0  0
    2.2728   -2.7383    0.0000 C   0  0  0  0  0  0  0  0  0  0  0  0
  1  2  1  0  0  0  0
  3  2  1  0  0  0  0
  4  3  2  0  0  0  0
  4  5  1  0  0  0  0
  6  4  1  0  0  0  0
  6  7  1  0  0  0  0
  8  6  2  0  0  0  0
  9  8  1  0  0  0  0
  2  9  2  0  0  0  0
  9 10  1  0  0  0  0
 10 11  1  0  0  0  0
M  END
> <ChemID>
100480

> <CAS>
2460-49-3

> <Original_SMILES>
COc1cc(Cl)c(Cl)cc1O

> <preferred_name>
4,5-Dichloroguaiacol

> <dsstox_substance_id>
DTXSID5022192

> <dsstox_compound_id>
DTXCID902192

> <qc_level>
DSSTox_Low

> <Canonical_QSARr>
COC1C=C(Cl)C(Cl)=CC=1O

> <InChI_Code_QSARr>
InChI=1S/C7H6Cl2O2/c1-11-7-3-5(9)4(8)2-6(7)10/h2-3,10H,1H3

> <InChI Key_QSARr>
HAAFFTHBNFBVKY-UHFFFAOYSA-N

> <Salt_Solvent>


> <Salt_Solvent_ID>
0

> <MPID>
98404

> <LogBCF>
2.03

> <Tr_1_Tst_0>
1

$$$$
100481
  Mrv171c012241911322D          

 17 17  0  0  0  0            999 V2000
    2.2775   -3.4397    0.0000 N   0  3  0  0  0  0  0  0  0  0  0  0
    1.5630   -3.8522    0.0000 O   0  0  0  0  0  0  0  0  0  0  0  0
    2.9919   -3.8522    0.0000 O   0  5  0  0  0  0  0  0  0  0  0  0
    2.2775   -2.6147    0.0000 C   0  0  0  0  0  0  0  0  0  0  0  0
    2.9919   -2.2022    0.0000 C   0  0  0  0  0  0  0  0  0  0  0  0
    2.9919   -1.3772    0.0000 C   0  0  0  0  0  0  0  0  0  0  0  0
    2.2775   -0.9647    0.0000 C   0  0  0  0  0  0  0  0  0  0  0  0
    2.2775   -0.1397    0.0000 O   0  0  0  0  0  0  0  0  0  0  0  0
    2.9919    0.2728    0.0000 P   0  0  0  0  0  0  0  0  0  0  0  0
    3.7064    0.6853    0.0000 O   0  0  0  0  0  0  0  0  0  0  0  0
    3.7064    1.5103    0.0000 C   0  0  0  0  0  0  0  0  0  0  0  0
    3.4044   -0.4417    0.0000 O   0  0  0  0  0  0  0  0  0  0  0  0
    4.2294   -0.4417    0.0000 C   0  0  0  0  0  0  0  0  0  0  0  0
    2.5794    0.9872    0.0000 S   0  0  0  0  0  0  0  0  0  0  0  0
    1.5630   -1.3772    0.0000 C   0  0  0  0  0  0  0  0  0  0  0  0
    0.8485   -0.9647    0.0000 Cl  0  0  0  0  0  0  0  0  0  0  0  0
    1.5630   -2.2022    0.0000 C   0  0  0  0  0  0  0  0  0  0  0  0
  1  2  2  0  0  0  0
  1  3  1  0  0  0  0
  1  4  1  0  0  0  0
  5  4  2  0  0  0  0
  6  5  1  0  0  0  0
  7  6  2  0  0  0  0
  7  8  1  0  0  0  0
  8  9  1  0  0  0  0
  9 10  1  0  0  0  0
 10 11  1  0  0  0  0
  9 12  1  0  0  0  0
 12 13  1  0  0  0  0
  9 14  2  0  0  0  0
 15  7  1  0  0  0  0
 15 16  1  0  0  0  0
 17 15  2  0  0  0  0
  4 17  1  0  0  0  0
M  CHG  2   1   1   3  -1
M  END
> <ChemID>
100481

> <CAS>
2463-84-5

> <Original_SMILES>
COP(=S)(Oc1ccc(cc1Cl)[N+]([O-])=O)OC

> <preferred_name>
Dicapthon

> <dsstox_substance_id>
DTXSID0041850

> <dsstox_compound_id>
DTXCID8021850

> <qc_level>
DSSTox_Low

> <Canonical_QSARr>
COP(=S)(OC1=CC=C(C=C1Cl)[N+]([O-])=O)OC

> <InChI_Code_QSARr>
InChI=1S/C8H9ClNO5PS/c1-13-16(17,14-2)15-8-4-3-6(10(11)12)5-7(8)9/h3-5H,1-2H3

> <InChI Key_QSARr>
OTKXWJHPGBRXCR-UHFFFAOYSA-N

> <Salt_Solvent>


> <Salt_Solvent_ID>
0

> <MPID>
98405

> <LogBCF>
1.89

> <Tr_1_Tst_0>
1

$$$$
100483
  Mrv171c012241911322D          

 16 15  0  0  0  0            999 V2000
    1.1555   -3.6693    0.0000 P   0  0  0  0  0  0  0  0  0  0  0  0
    1.1555   -4.4943    0.0000 O   0  0  0  0  0  0  0  0  0  0  0  0
    0.4410   -4.9068    0.0000 C   0  0  0  0  0  0  0  0  0  0  0  0
    0.4410   -5.7318    0.0000 C   0  0  0  0  0  0  0  0  0  0  0  0
    1.9805   -3.6693    0.0000 O   0  0  0  0  0  0  0  0  0  0  0  0
    2.3930   -2.9548    0.0000 C   0  0  0  0  0  0  0  0  0  0  0  0
    3.2180   -2.9548    0.0000 C   0  0  0  0  0  0  0  0  0  0  0  0
    1.1555   -2.8443    0.0000 S   0  0  0  0  0  0  0  0  0  0  0  0
    1.8699   -2.4318    0.0000 C   0  0  0  0  0  0  0  0  0  0  0  0
    1.8699   -1.6068    0.0000 C   0  0  0  0  0  0  0  0  0  0  0  0
    2.5844   -1.1943    0.0000 S   0  0  0  0  0  0  0  0  0  0  0  0
    2.9969   -1.9088    0.0000 O   0  0  0  0  0  0  0  0  0  0  0  0
    2.1719   -0.4798    0.0000 O   0  0  0  0  0  0  0  0  0  0  0  0
    3.2989   -0.7818    0.0000 C   0  0  0  0  0  0  0  0  0  0  0  0
    3.2989    0.0432    0.0000 C   0  0  0  0  0  0  0  0  0  0  0  0
    0.3305   -3.6693    0.0000 S   0  0  0  0  0  0  0  0  0  0  0  0
  1  2  1  0  0  0  0
  2  3  1  0  0  0  0
  3  4  1  0  0  0  0
  1  5  1  0  0  0  0
  5  6  1  0  0  0  0
  6  7  1  0  0  0  0
  1  8  1  0  0  0  0
  8  9  1  0  0  0  0
  9 10  1  0  0  0  0
 10 11  1  0  0  0  0
 11 12  2  0  0  0  0
 11 13  2  0  0  0  0
 11 14  1  0  0  0  0
 14 15  1  0  0  0  0
  1 16  2  0  0  0  0
M  END
> <ChemID>
100483

> <CAS>
2497-06-5

> <Original_SMILES>
CCS(=O)(=O)CCSP(=S)(OCC)OCC

> <preferred_name>
Disulfoton sulfone

> <dsstox_substance_id>
DTXSID8041901

> <dsstox_compound_id>
DTXCID6021901

> <qc_level>
DSSTox_High

> <Canonical_QSARr>
CCS(=O)(=O)CCSP(=S)(OCC)OCC

> <InChI_Code_QSARr>
InChI=1S/C8H19O4PS3/c1-4-11-13(14,12-5-2)15-7-8-16(9,10)6-3/h4-8H2,1-3H3

> <InChI Key_QSARr>
BKVJOVPVLOJPKJ-UHFFFAOYSA-N

> <Salt_Solvent>


> <Salt_Solvent_ID>
0

> <MPID>
98406

> <LogBCF>
0.7

> <Tr_1_Tst_0>
0

$$$$
100484
  Mrv171c012241911322D          

 15 14  0  0  0  0            999 V2000
    2.7715   -1.6868    0.0000 P   0  0  0  0  0  0  0  0  0  0  0  0
    2.7715   -2.5118    0.0000 S   0  0  0  0  0  0  0  0  0  0  0  0
    2.0570   -2.9243    0.0000 C   0  0  0  0  0  0  0  0  0  0  0  0
    2.0570   -3.7493    0.0000 C   0  0  0  0  0  0  0  0  0  0  0  0
    1.3425   -4.1618    0.0000 S   0  0  0  0  0  0  0  0  0  0  0  0
    1.3425   -4.9868    0.0000 C   0  0  0  0  0  0  0  0  0  0  0  0
    0.6281   -5.3993    0.0000 C   0  0  0  0  0  0  0  0  0  0  0  0
    0.6281   -3.7493    0.0000 O   0  0  0  0  0  0  0  0  0  0  0  0
    2.7715   -0.8618    0.0000 O   0  0  0  0  0  0  0  0  0  0  0  0
    3.4859   -0.4493    0.0000 C   0  0  0  0  0  0  0  0  0  0  0  0
    3.4859    0.3757    0.0000 C   0  0  0  0  0  0  0  0  0  0  0  0
    3.5965   -1.6868    0.0000 O   0  0  0  0  0  0  0  0  0  0  0  0
    4.0090   -0.9724    0.0000 C   0  0  0  0  0  0  0  0  0  0  0  0
    4.8340   -0.9724    0.0000 C   0  0  0  0  0  0  0  0  0  0  0  0
    1.9465   -1.6868    0.0000 S   0  0  0  0  0  0  0  0  0  0  0  0
  1  2  1  0  0  0  0
  2  3  1  0  0  0  0
  3  4  1  0  0  0  0
  4  5  1  0  0  0  0
  5  6  1  0  0  0  0
  6  7  1  0  0  0  0
  5  8  2  0  0  0  0
  1  9  1  0  0  0  0
  9 10  1  0  0  0  0
 10 11  1  0  0  0  0
  1 12  1  0  0  0  0
 12 13  1  0  0  0  0
 13 14  1  0  0  0  0
  1 15  2  0  0  0  0
M  END
> <ChemID>
100484

> <CAS>
2497-07-6

> <Original_SMILES>
CCS(=O)CCSP(=S)(OCC)OCC

> <preferred_name>
Oxydisulfoton

> <dsstox_substance_id>
DTXSID4037536

> <dsstox_compound_id>
DTXCID2017536

> <qc_level>
DSSTox_Low

> <Canonical_QSARr>
CCS(=O)CCSP(=S)(OCC)OCC

> <InChI_Code_QSARr>
InChI=1S/C8H19O3PS3/c1-4-10-12(13,11-5-2)14-7-8-15(9)6-3/h4-8H2,1-3H3

> <InChI Key_QSARr>
UPUGLJYNCXXUQV-UHFFFAOYSA-N

> <Salt_Solvent>


> <Salt_Solvent_ID>
0

> <MPID>
98407

> <LogBCF>
0.0

> <Tr_1_Tst_0>
1

$$$$
100485
  Mrv171c012241911322D          

 20 23  0  0  0  0            999 V2000
    3.0701   -3.3785    0.0000 C   0  0  0  0  0  0  0  0  0  0  0  0
    3.8802   -3.5344    0.0000 C   0  0  0  0  0  0  0  0  0  0  0  0
    4.1503   -4.3140    0.0000 O   0  0  0  0  0  0  0  0  0  0  0  0
    4.4203   -2.9108    0.0000 C   0  0  0  0  0  0  0  0  0  0  0  0
    5.2305   -3.0667    0.0000 C   0  0  0  0  0  0  0  0  0  0  0  0
    5.5005   -3.8463    0.0000 C   0  0  0  0  0  0  0  0  0  0  0  0
    6.3106   -4.0022    0.0000 C   0  0  0  0  0  0  0  0  0  0  0  0
    6.8507   -3.3785    0.0000 C   0  0  0  0  0  0  0  0  0  0  0  0
    6.5807   -2.5990    0.0000 C   0  0  0  0  0  0  0  0  0  0  0  0
    5.7705   -2.4431    0.0000 C   0  0  0  0  0  0  0  0  0  0  0  0
    5.5005   -1.6635    0.0000 C   0  0  0  0  0  0  0  0  0  0  0  0
    4.6904   -1.5076    0.0000 C   0  0  0  0  0  0  0  0  0  0  0  0
    4.1503   -2.1312    0.0000 C   0  0  0  0  0  0  0  0  0  0  0  0
    3.3401   -1.9753    0.0000 C   0  0  0  0  0  0  0  0  0  0  0  0
    3.0701   -1.1958    0.0000 O   0  0  0  0  0  0  0  0  0  0  0  0
    2.8001   -2.5990    0.0000 C   0  0  0  0  0  0  0  0  0  0  0  0
    1.9899   -2.4431    0.0000 C   0  0  0  0  0  0  0  0  0  0  0  0
    1.4498   -3.0667    0.0000 C   0  0  0  0  0  0  0  0  0  0  0  0
    1.7199   -3.8463    0.0000 C   0  0  0  0  0  0  0  0  0  0  0  0
    2.5300   -4.0022    0.0000 C   0  0  0  0  0  0  0  0  0  0  0  0
  2  1  1  0  0  0  0
  2  3  2  0  0  0  0
  4  2  1  0  0  0  0
  4  5  1  0  0  0  0
  6  5  1  0  0  0  0
  7  6  2  0  0  0  0
  8  7  1  0  0  0  0
  9  8  2  0  0  0  0
 10  9  1  0  0  0  0
  5 10  2  0  0  0  0
 10 11  1  0  0  0  0
 11 12  2  0  0  0  0
 12 13  1  0  0  0  0
 13  4  2  0  0  0  0
 14 13  1  0  0  0  0
 14 15  2  0  0  0  0
 16 14  1  0  0  0  0
 16  1  1  0  0  0  0
 17 16  2  0  0  0  0
 18 17  1  0  0  0  0
 19 18  2  0  0  0  0
 20 19  1  0  0  0  0
  1 20  2  0  0  0  0
M  END
> <ChemID>
100485

> <CAS>
2498-66-0

> <Original_SMILES>
O=C1c2ccc3ccccc3c2C(=O)c2ccccc12

> <preferred_name>
7,12-Benz(a)anthraquinone

> <dsstox_substance_id>
DTXSID8051916

> <dsstox_compound_id>
DTXCID3030478

> <qc_level>
DSSTox_Low

> <Canonical_QSARr>
O=C1C2C3C=CC=CC=3C=CC=2C(=O)C2=CC=CC=C12

> <InChI_Code_QSARr>
InChI=1S/C18H10O2/c19-17-13-7-3-4-8-14(13)18(20)16-12-6-2-1-5-11(12)9-10-15(16)17/h1-10H

> <InChI Key_QSARr>
LHMRXAIRPKSGDE-UHFFFAOYSA-N

> <Salt_Solvent>


> <Salt_Solvent_ID>
0

> <MPID>
98408

> <LogBCF>
1.69

> <Tr_1_Tst_0>
1

$$$$
100486
  Mrv171c012241911322D          

 15 17  0  0  0  0            999 V2000
   -0.0045   -1.4266    0.0000 C   0  0  0  0  0  0  0  0  0  0  0  0
    0.8205   -1.4266    0.0000 C   0  0  0  0  0  0  0  0  0  0  0  0
    1.2330   -0.7121    0.0000 C   0  0  0  0  0  0  0  0  0  0  0  0
    2.0580   -0.7121    0.0000 C   0  0  0  0  0  0  0  0  0  0  0  0
    2.4705    0.0023    0.0000 C   0  0  0  0  0  0  0  0  0  0  0  0
    3.2955    0.0023    0.0000 C   0  0  0  0  0  0  0  0  0  0  0  0
    3.7080   -0.7121    0.0000 C   0  0  0  0  0  0  0  0  0  0  0  0
    3.2955   -1.4266    0.0000 C   0  0  0  0  0  0  0  0  0  0  0  0
    2.4705   -1.4266    0.0000 C   0  0  0  0  0  0  0  0  0  0  0  0
    2.0580   -2.1411    0.0000 C   0  0  0  0  0  0  0  0  0  0  0  0
    1.2330   -2.1411    0.0000 C   0  0  0  0  0  0  0  0  0  0  0  0
    3.7080   -2.1411    0.0000 C   0  0  0  0  0  0  0  0  0  0  0  0
    4.5330   -2.1411    0.0000 C   0  0  0  0  0  0  0  0  0  0  0  0
    4.9455   -1.4266    0.0000 C   0  0  0  0  0  0  0  0  0  0  0  0
    4.5330   -0.7121    0.0000 C   0  0  0  0  0  0  0  0  0  0  0  0
  1  2  1  0  0  0  0
  3  2  1  0  0  0  0
  4  3  2  0  0  0  0
  4  5  1  0  0  0  0
  5  6  2  0  0  0  0
  6  7  1  0  0  0  0
  8  7  1  0  0  0  0
  8  9  1  0  0  0  0
  9  4  1  0  0  0  0
 10  9  2  0  0  0  0
 11 10  1  0  0  0  0
  2 11  2  0  0  0  0
 12  8  2  0  0  0  0
 13 12  1  0  0  0  0
 14 13  2  0  0  0  0
 15 14  1  0  0  0  0
  7 15  2  0  0  0  0
M  END
> <ChemID>
100486

> <CAS>
2531-84-2

> <Original_SMILES>
Cc1cc2ccc3ccccc3c2cc1

> <preferred_name>
2-Methyl phenanthrene

> <dsstox_substance_id>
DTXSID1025649

> <dsstox_compound_id>
DTXCID505649

> <qc_level>
DSSTox_Low

> <Canonical_QSARr>
CC1C=C2C=CC3=CC=CC=C3C2=CC=1

> <InChI_Code_QSARr>
InChI=1S/C15H12/c1-11-6-9-15-13(10-11)8-7-12-4-2-3-5-14(12)15/h2-10H,1H3

> <InChI Key_QSARr>
KANLOADZXMMCQA-UHFFFAOYSA-N

> <Salt_Solvent>


> <Salt_Solvent_ID>
0

> <MPID>
98409

> <LogBCF>
3.48

> <Tr_1_Tst_0>
1

$$$$
100487
  Mrv171c012241911322D          

 13 13  0  0  0  0            999 V2000
    2.1478   -1.1724    0.0000 C   0  0  0  0  0  0  0  0  0  0  0  0
    1.4333   -0.7599    0.0000 C   0  0  0  0  0  0  0  0  0  0  0  0
    1.4333    0.0651    0.0000 Cl  0  0  0  0  0  0  0  0  0  0  0  0
    0.7189   -1.1724    0.0000 C   0  0  0  0  0  0  0  0  0  0  0  0
    0.0044   -0.7599    0.0000 Cl  0  0  0  0  0  0  0  0  0  0  0  0
    0.7189   -1.9974    0.0000 C   0  0  0  0  0  0  0  0  0  0  0  0
    0.0044   -2.4099    0.0000 Cl  0  0  0  0  0  0  0  0  0  0  0  0
    1.4333   -2.4099    0.0000 C   0  0  0  0  0  0  0  0  0  0  0  0
    1.4333   -3.2349    0.0000 Cl  0  0  0  0  0  0  0  0  0  0  0  0
    2.1478   -1.9974    0.0000 C   0  0  0  0  0  0  0  0  0  0  0  0
    2.8623   -2.4099    0.0000 O   0  0  0  0  0  0  0  0  0  0  0  0
    3.5768   -1.9974    0.0000 C   0  0  0  0  0  0  0  0  0  0  0  0
    2.8623   -0.7599    0.0000 O   0  0  0  0  0  0  0  0  0  0  0  0
  2  1  2  0  0  0  0
  2  3  1  0  0  0  0
  4  2  1  0  0  0  0
  4  5  1  0  0  0  0
  6  4  2  0  0  0  0
  6  7  1  0  0  0  0
  8  6  1  0  0  0  0
  8  9  1  0  0  0  0
 10  8  2  0  0  0  0
  1 10  1  0  0  0  0
 10 11  1  0  0  0  0
 11 12  1  0  0  0  0
  1 13  1  0  0  0  0
M  END
> <ChemID>
100487

> <CAS>
2539-17-5

> <Original_SMILES>
COc1c(O)c(Cl)c(Cl)c(Cl)c1Cl

> <preferred_name>
3,4,5,6-Tetrachloroguaiacol

> <dsstox_substance_id>
DTXSID0044155

> <dsstox_compound_id>
DTXCID8024155

> <qc_level>
DSSTox_Low

> <Canonical_QSARr>
COC1C(O)=C(Cl)C(Cl)=C(Cl)C=1Cl

> <InChI_Code_QSARr>
InChI=1S/C7H4Cl4O2/c1-13-7-5(11)3(9)2(8)4(10)6(7)12/h12H,1H3

> <InChI Key_QSARr>
YZZVKLJKDFFSFL-UHFFFAOYSA-N

> <Salt_Solvent>


> <Salt_Solvent_ID>
0

> <MPID>
98410

> <LogBCF>
3.08

> <Tr_1_Tst_0>
0

$$$$
100488
  Mrv171c012241911322D          

 11 11  0  0  0  0            999 V2000
    0.9743    0.4875    0.0000 C   0  0  0  0  0  0  0  0  0  0  0  0
    0.9743   -0.3375    0.0000 N   0  3  0  0  0  0  0  0  0  0  0  0
    0.2598   -0.7500    0.0000 O   0  5  0  0  0  0  0  0  0  0  0  0
    1.6887   -0.7500    0.0000 O   0  0  0  0  0  0  0  0  0  0  0  0
    1.6887    0.9000    0.0000 C   0  0  0  0  0  0  0  0  0  0  0  0
    1.6887    1.7250    0.0000 C   0  0  0  0  0  0  0  0  0  0  0  0
    0.9743    2.1375    0.0000 C   0  0  0  0  0  0  0  0  0  0  0  0
    0.9743    2.9625    0.0000 O   0  0  0  0  0  0  0  0  0  0  0  0
    0.2598    1.7250    0.0000 C   0  0  0  0  0  0  0  0  0  0  0  0
    0.2598    0.9000    0.0000 C   0  0  0  0  0  0  0  0  0  0  0  0
   -0.4547    0.4875    0.0000 C   0  0  0  0  0  0  0  0  0  0  0  0
  1  2  1  0  0  0  0
  2  3  1  0  0  0  0
  2  4  2  0  0  0  0
  5  1  1  0  0  0  0
  6  5  2  0  0  0  0
  7  6  1  0  0  0  0
  7  8  1  0  0  0  0
  9  7  2  0  0  0  0
 10  9  1  0  0  0  0
  1 10  2  0  0  0  0
 10 11  1  0  0  0  0
M  CHG  2   2   1   3  -1
M  END
> <ChemID>
100488

> <CAS>
2581-34-2

> <Original_SMILES>
Cc1cc(O)ccc1[N+]([O-])=O

> <preferred_name>
4-Nitro-m-cresol

> <dsstox_substance_id>
DTXSID2062535

> <dsstox_compound_id>
DTXCID2037398

> <qc_level>
Public_High

> <Canonical_QSARr>
CC1C=C(O)C=CC=1[N+]([O-])=O

> <InChI_Code_QSARr>
InChI=1S/C7H7NO3/c1-5-4-6(9)2-3-7(5)8(10)11/h2-4,9H,1H3

> <InChI Key_QSARr>
PIIZYNQECPTVEO-UHFFFAOYSA-N

> <Salt_Solvent>


> <Salt_Solvent_ID>
0

> <MPID>
98411

> <LogBCF>
1.06

> <Tr_1_Tst_0>
1

$$$$
100489
  Mrv171c012241911322D          

 19 19  0  0  0  0            999 V2000
    2.8679   -2.0669    0.0000 C   0  0  0  0  0  0  0  0  0  0  0  0
    2.8679   -1.2419    0.0000 C   0  0  0  0  0  0  0  0  0  0  0  0
    3.5824   -0.8294    0.0000 S   0  0  0  0  0  0  0  0  0  0  0  0
    4.2969   -1.2419    0.0000 P   0  0  0  0  0  0  0  0  0  0  0  0
    3.8844   -1.9564    0.0000 S   0  0  0  0  0  0  0  0  0  0  0  0
    5.0113   -1.6544    0.0000 O   0  0  0  0  0  0  0  0  0  0  0  0
    5.7258   -1.2419    0.0000 C   0  0  0  0  0  0  0  0  0  0  0  0
    4.7094   -0.5274    0.0000 O   0  0  0  0  0  0  0  0  0  0  0  0
    5.5344   -0.5274    0.0000 C   0  0  0  0  0  0  0  0  0  0  0  0
    2.1534   -0.8294    0.0000 C   0  0  0  0  0  0  0  0  0  0  0  0
    1.4390   -1.2419    0.0000 O   0  0  0  0  0  0  0  0  0  0  0  0
    0.7245   -0.8294    0.0000 C   0  0  0  0  0  0  0  0  0  0  0  0
    0.0100   -1.2419    0.0000 C   0  0  0  0  0  0  0  0  0  0  0  0
    2.1534   -0.0044    0.0000 O   0  0  0  0  0  0  0  0  0  0  0  0
    2.1534   -2.4794    0.0000 C   0  0  0  0  0  0  0  0  0  0  0  0
    2.1534   -3.3044    0.0000 C   0  0  0  0  0  0  0  0  0  0  0  0
    2.8679   -3.7169    0.0000 C   0  0  0  0  0  0  0  0  0  0  0  0
    3.5824   -3.3044    0.0000 C   0  0  0  0  0  0  0  0  0  0  0  0
    3.5824   -2.4794    0.0000 C   0  0  0  0  0  0  0  0  0  0  0  0
  1  2  1  0  0  0  0
  2  3  1  0  0  0  0
  3  4  1  0  0  0  0
  4  5  2  0  0  0  0
  4  6  1  0  0  0  0
  6  7  1  0  0  0  0
  4  8  1  0  0  0  0
  8  9  1  0  0  0  0
  2 10  1  0  0  0  0
 10 11  1  0  0  0  0
 11 12  1  0  0  0  0
 12 13  1  0  0  0  0
 10 14  2  0  0  0  0
 15  1  2  0  0  0  0
 16 15  1  0  0  0  0
 17 16  2  0  0  0  0
 18 17  1  0  0  0  0
 19 18  2  0  0  0  0
  1 19  1  0  0  0  0
M  END
> <ChemID>
100489

> <CAS>
2597-03-7

> <Original_SMILES>
CCOC(=O)C(SP(=S)(OC)OC)c1ccccc1

> <preferred_name>
Phenthoate

> <dsstox_substance_id>
DTXSID6042280

> <dsstox_compound_id>
DTXCID4022280

> <qc_level>
DSSTox_Low

> <Canonical_QSARr>
CCOC(=O)C(SP(=S)(OC)OC)C1C=CC=CC=1

> <InChI_Code_QSARr>
InChI=1S/C12H17O4PS2/c1-4-16-12(13)11(10-8-6-5-7-9-10)19-17(18,14-2)15-3/h5-9,11H,4H2,1-3H3

> <InChI Key_QSARr>
XAMUDJHXFNRLCY-UHFFFAOYSA-N

> <Salt_Solvent>


> <Salt_Solvent_ID>
0

> <MPID>
98412

> <LogBCF>
1.69

> <Tr_1_Tst_0>
1

$$$$
100490
  Mrv171c012241911322D          

 14 14  0  0  0  0            999 V2000
    0.2756   -2.2800    0.0000 C   0  0  0  0  0  0  0  0  0  0  0  0
   -0.4388   -1.8675    0.0000 N   0  0  0  0  0  0  0  0  0  0  0  0
   -0.4388   -1.0425    0.0000 C   0  0  0  0  0  0  0  0  0  0  0  0
    0.9901   -1.8675    0.0000 O   0  0  0  0  0  0  0  0  0  0  0  0
    1.7046   -2.2800    0.0000 C   0  0  0  0  0  0  0  0  0  0  0  0
    1.7046   -3.1050    0.0000 C   0  0  0  0  0  0  0  0  0  0  0  0
    2.4190   -3.5175    0.0000 C   0  0  0  0  0  0  0  0  0  0  0  0
    3.1335   -3.1050    0.0000 C   0  0  0  0  0  0  0  0  0  0  0  0
    3.1335   -2.2800    0.0000 C   0  0  0  0  0  0  0  0  0  0  0  0
    2.4190   -1.8675    0.0000 C   0  0  0  0  0  0  0  0  0  0  0  0
    2.4190   -1.0425    0.0000 C   0  0  0  0  0  0  0  0  0  0  0  0
    1.7046   -0.6300    0.0000 C   0  0  0  0  0  0  0  0  0  0  0  0
    3.1335   -0.6300    0.0000 C   0  0  0  0  0  0  0  0  0  0  0  0
    0.2756   -3.1050    0.0000 O   0  0  0  0  0  0  0  0  0  0  0  0
  1  2  1  0  0  0  0
  2  3  1  0  0  0  0
  1  4  1  0  0  0  0
  4  5  1  0  0  0  0
  6  5  1  0  0  0  0
  7  6  2  0  0  0  0
  8  7  1  0  0  0  0
  9  8  2  0  0  0  0
 10  9  1  0  0  0  0
  5 10  2  0  0  0  0
 10 11  1  0  0  0  0
 11 12  1  0  0  0  0
 11 13  1  0  0  0  0
  1 14  2  0  0  0  0
M  END
> <ChemID>
100490

> <CAS>
2631-40-5

> <Original_SMILES>
CNC(=O)Oc1ccccc1C(C)C

> <preferred_name>
Isoprocarb

> <dsstox_substance_id>
DTXSID6042072

> <dsstox_compound_id>
DTXCID4022072

> <qc_level>
DSSTox_Low

> <Canonical_QSARr>
CNC(=O)OC1C=CC=CC=1C(C)C

> <InChI_Code_QSARr>
InChI=1S/C11H15NO2/c1-8(2)9-6-4-5-7-10(9)14-11(13)12-3/h4-8H,1-3H3,(H,12,13)

> <InChI Key_QSARr>
QBSJMKIUCUGGNG-UHFFFAOYSA-N

> <Salt_Solvent>


> <Salt_Solvent_ID>
0

> <MPID>
98413

> <LogBCF>
0.95

> <Tr_1_Tst_0>
1

$$$$
100491
  Mrv171c012241911322D          

 15 15  0  0  0  0            999 V2000
    2.0776   -2.3588    0.0000 P   0  0  0  0  0  0  0  0  0  0  0  0
    1.3631   -2.7713    0.0000 O   0  0  0  0  0  0  0  0  0  0  0  0
    1.3631   -3.5963    0.0000 C   0  0  0  0  0  0  0  0  0  0  0  0
    2.4901   -3.0733    0.0000 O   0  0  0  0  0  0  0  0  0  0  0  0
    3.3151   -3.0733    0.0000 C   0  0  0  0  0  0  0  0  0  0  0  0
    2.7920   -1.9463    0.0000 O   0  0  0  0  0  0  0  0  0  0  0  0
    2.7920   -1.1213    0.0000 C   0  0  0  0  0  0  0  0  0  0  0  0
    3.5065   -0.7088    0.0000 C   0  0  0  0  0  0  0  0  0  0  0  0
    3.5065    0.1162    0.0000 C   0  0  0  0  0  0  0  0  0  0  0  0
    2.7920    0.5287    0.0000 C   0  0  0  0  0  0  0  0  0  0  0  0
    2.7920    1.3537    0.0000 C   0  0  0  0  0  0  0  0  0  0  0  0
    2.7920    2.1787    0.0000 N   0  0  0  0  0  0  0  0  0  0  0  0
    2.0776    0.1162    0.0000 C   0  0  0  0  0  0  0  0  0  0  0  0
    2.0776   -0.7088    0.0000 C   0  0  0  0  0  0  0  0  0  0  0  0
    1.6651   -1.6444    0.0000 S   0  0  0  0  0  0  0  0  0  0  0  0
  1  2  1  0  0  0  0
  2  3  1  0  0  0  0
  1  4  1  0  0  0  0
  4  5  1  0  0  0  0
  1  6  1  0  0  0  0
  6  7  1  0  0  0  0
  8  7  2  0  0  0  0
  9  8  1  0  0  0  0
 10  9  2  0  0  0  0
 10 11  1  0  0  0  0
 11 12  3  0  0  0  0
 13 10  1  0  0  0  0
 14 13  2  0  0  0  0
  7 14  1  0  0  0  0
  1 15  2  0  0  0  0
M  END
> <ChemID>
100491

> <CAS>
2636-26-2

> <Original_SMILES>
COP(=S)(Oc1ccc(cc1)C#N)OC

> <preferred_name>
Cyanophos

> <dsstox_substance_id>
DTXSID0041806

> <dsstox_compound_id>
DTXCID8021806

> <qc_level>
DSSTox_Low

> <Canonical_QSARr>
COP(=S)(OC1C=CC(=CC=1)C#N)OC

> <InChI_Code_QSARr>
InChI=1S/C9H10NO3PS/c1-11-14(15,12-2)13-9-5-3-8(7-10)4-6-9/h3-6H,1-2H3

> <InChI Key_QSARr>
SCKHCCSZFPSHGR-UHFFFAOYSA-N

> <Salt_Solvent>


> <Salt_Solvent_ID>
0

> <MPID>
98414

> <LogBCF>
1.56

> <Tr_1_Tst_0>
0

$$$$
100492
  Mrv171c012241911322D          

 13 13  0  0  0  0            999 V2000
    4.2990   -2.6885    0.0000 C   0  0  0  0  0  0  0  0  0  0  0  0
    3.5845   -2.2760    0.0000 C   0  0  0  0  0  0  0  0  0  0  0  0
    3.5845   -1.4510    0.0000 C   0  0  0  0  0  0  0  0  0  0  0  0
    2.8701   -1.0385    0.0000 C   0  0  0  0  0  0  0  0  0  0  0  0
    2.8701   -0.2135    0.0000 O   0  0  0  0  0  0  0  0  0  0  0  0
    2.1556    0.1990    0.0000 C   0  0  0  0  0  0  0  0  0  0  0  0
    1.4411   -0.2135    0.0000 O   0  0  0  0  0  0  0  0  0  0  0  0
    2.1556    1.0240    0.0000 N   0  0  0  0  0  0  0  0  0  0  0  0
    1.4411    1.4365    0.0000 C   0  0  0  0  0  0  0  0  0  0  0  0
    2.1556   -1.4510    0.0000 C   0  0  0  0  0  0  0  0  0  0  0  0
    2.1556   -2.2760    0.0000 C   0  0  0  0  0  0  0  0  0  0  0  0
    1.4411   -2.6885    0.0000 C   0  0  0  0  0  0  0  0  0  0  0  0
    2.8701   -2.6885    0.0000 C   0  0  0  0  0  0  0  0  0  0  0  0
  1  2  1  0  0  0  0
  3  2  1  0  0  0  0
  4  3  2  0  0  0  0
  4  5  1  0  0  0  0
  5  6  1  0  0  0  0
  6  7  2  0  0  0  0
  6  8  1  0  0  0  0
  8  9  1  0  0  0  0
 10  4  1  0  0  0  0
 11 10  2  0  0  0  0
 11 12  1  0  0  0  0
 13 11  1  0  0  0  0
  2 13  2  0  0  0  0
M  END
> <ChemID>
100492

> <CAS>
2655-14-3

> <Original_SMILES>
CNC(=O)Oc1cc(C)cc(C)c1

> <preferred_name>
XMC

> <dsstox_substance_id>
DTXSID7058042

> <dsstox_compound_id>
DTXCID3031810

> <qc_level>
DSSTox_High

> <Canonical_QSARr>
CC1=CC(=CC(C)=C1)OC(=O)NC

> <InChI_Code_QSARr>
InChI=1S/C10H13NO2/c1-7-4-8(2)6-9(5-7)13-10(12)11-3/h4-6H,1-3H3,(H,11,12)

> <InChI Key_QSARr>
CVQODEWAPZVVBU-UHFFFAOYSA-N

> <Salt_Solvent>


> <Salt_Solvent_ID>
0

> <MPID>
98415

> <LogBCF>
0.4

> <Tr_1_Tst_0>
1

$$$$
100493
  Mrv171c012241911322D          

 12 12  0  0  0  0            999 V2000
    2.1870    0.6071    0.0000 C   0  0  0  0  0  0  0  0  0  0  0  0
    1.4725    1.0196    0.0000 O   0  0  0  0  0  0  0  0  0  0  0  0
    0.7581    0.6071    0.0000 C   0  0  0  0  0  0  0  0  0  0  0  0
    0.0436    1.0196    0.0000 C   0  0  0  0  0  0  0  0  0  0  0  0
    0.0436    1.8446    0.0000 O   0  0  0  0  0  0  0  0  0  0  0  0
   -0.6709    0.6071    0.0000 C   0  0  0  0  0  0  0  0  0  0  0  0
   -1.3854    1.0196    0.0000 Cl  0  0  0  0  0  0  0  0  0  0  0  0
   -0.6709   -0.2179    0.0000 C   0  0  0  0  0  0  0  0  0  0  0  0
   -1.3854   -0.6304    0.0000 Cl  0  0  0  0  0  0  0  0  0  0  0  0
    0.0436   -0.6304    0.0000 C   0  0  0  0  0  0  0  0  0  0  0  0
    0.0436   -1.4554    0.0000 Cl  0  0  0  0  0  0  0  0  0  0  0  0
    0.7581   -0.2179    0.0000 C   0  0  0  0  0  0  0  0  0  0  0  0
  1  2  1  0  0  0  0
  2  3  1  0  0  0  0
  4  3  2  0  0  0  0
  4  5  1  0  0  0  0
  6  4  1  0  0  0  0
  6  7  1  0  0  0  0
  8  6  2  0  0  0  0
  8  9  1  0  0  0  0
 10  8  1  0  0  0  0
 10 11  1  0  0  0  0
 12 10  2  0  0  0  0
  3 12  1  0  0  0  0
M  END
> <ChemID>
100493

> <CAS>
2668-24-8

> <Original_SMILES>
COc1cc(Cl)c(Cl)c(Cl)c1O

> <preferred_name>
4,5,6-Trichloroguaiacol

> <dsstox_substance_id>
DTXSID00858745

> <dsstox_compound_id>
DTXCID80809477

> <qc_level>
DSSTox_Low

> <Canonical_QSARr>
COC1C=C(Cl)C(Cl)=C(Cl)C=1O

> <InChI_Code_QSARr>
InChI=1S/C7H5Cl3O2/c1-12-4-2-3(8)5(9)6(10)7(4)11/h2,11H,1H3

> <InChI Key_QSARr>
NIAJPNQTKGWEOI-UHFFFAOYSA-N

> <Salt_Solvent>


> <Salt_Solvent_ID>
0

> <MPID>
98416

> <LogBCF>
1.97

> <Tr_1_Tst_0>
1

$$$$
100494
  Mrv171c012241911322D          

 21 22  0  0  0  0            999 V2000
    1.1908    2.3375    0.0000 C   0  0  0  0  0  0  0  0  0  0  0  0
    1.1908    3.1625    0.0000 C   0  0  0  0  0  0  0  0  0  0  0  0
    0.4763    3.5750    0.0000 C   0  0  0  0  0  0  0  0  0  0  0  0
    0.4763    4.4000    0.0000 C   0  0  0  0  0  0  0  0  0  0  0  0
    0.4763    5.2250    0.0000 C   0  0  0  0  0  0  0  0  0  0  0  0
   -0.3487    4.4000    0.0000 C   0  0  0  0  0  0  0  0  0  0  0  0
    1.3013    4.4000    0.0000 C   0  0  0  0  0  0  0  0  0  0  0  0
   -0.2382    3.1625    0.0000 C   0  0  0  0  0  0  0  0  0  0  0  0
   -0.9526    3.5750    0.0000 O   0  0  0  0  0  0  0  0  0  0  0  0
   -0.2382    2.3375    0.0000 C   0  0  0  0  0  0  0  0  0  0  0  0
   -0.9526    1.9250    0.0000 C   0  0  0  0  0  0  0  0  0  0  0  0
   -1.6671    1.5125    0.0000 C   0  0  0  0  0  0  0  0  0  0  0  0
   -0.5401    1.2105    0.0000 C   0  0  0  0  0  0  0  0  0  0  0  0
   -1.3651    2.6395    0.0000 C   0  0  0  0  0  0  0  0  0  0  0  0
    0.4763    1.9250    0.0000 C   0  0  0  0  0  0  0  0  0  0  0  0
    1.9053    1.9250    0.0000 C   0  0  0  0  0  0  0  0  0  0  0  0
    1.9053    1.1000    0.0000 C   0  0  0  0  0  0  0  0  0  0  0  0
    2.6197    0.6875    0.0000 C   0  0  0  0  0  0  0  0  0  0  0  0
    3.3342    1.1000    0.0000 C   0  0  0  0  0  0  0  0  0  0  0  0
    3.3342    1.9250    0.0000 C   0  0  0  0  0  0  0  0  0  0  0  0
    2.6197    2.3375    0.0000 C   0  0  0  0  0  0  0  0  0  0  0  0
  2  1  1  0  0  0  0
  3  2  2  0  0  0  0
  3  4  1  0  0  0  0
  4  5  1  0  0  0  0
  4  6  1  0  0  0  0
  4  7  1  0  0  0  0
  8  3  1  0  0  0  0
  8  9  1  0  0  0  0
 10  8  2  0  0  0  0
 10 11  1  0  0  0  0
 11 12  1  0  0  0  0
 11 13  1  0  0  0  0
 11 14  1  0  0  0  0
 15 10  1  0  0  0  0
  1 15  2  0  0  0  0
  1 16  1  0  0  0  0
 17 16  1  0  0  0  0
 18 17  2  0  0  0  0
 19 18  1  0  0  0  0
 20 19  2  0  0  0  0
 21 20  1  0  0  0  0
 16 21  2  0  0  0  0
M  END
> <ChemID>
100494

> <CAS>
2668-47-5

> <Original_SMILES>
CC(C)(C)c1cc(cc(c1O)C(C)(C)C)-c1ccccc1

> <preferred_name>
[1,1'-Biphenyl]-4-ol, 3,5-bis(1,1-dimethylethyl)-

> <dsstox_substance_id>
DTXSID7062582

> <dsstox_compound_id>
DTXCID8037544

> <qc_level>
Public_High

> <Canonical_QSARr>
CC(C)(C)C1=CC(=CC(=C1O)C(C)(C)C)C1C=CC=CC=1

> <InChI_Code_QSARr>
InChI=1S/C20H26O/c1-19(2,3)16-12-15(14-10-8-7-9-11-14)13-17(18(16)21)20(4,5)6/h7-13,21H,1-6H3

> <InChI Key_QSARr>
JIEWQZNTUPWNMX-UHFFFAOYSA-N

> <Salt_Solvent>


> <Salt_Solvent_ID>
0

> <MPID>
98417

> <LogBCF>
3.78

> <Tr_1_Tst_0>
1

$$$$
100495
  Mrv171c012241911322D          

 20 20  0  0  0  0            999 V2000
    3.2179   -2.1400    0.0000 N   0  0  0  0  0  0  0  0  0  0  0  0
    4.0429   -2.1400    0.0000 N   0  3  0  0  0  0  0  0  0  0  0  0
    4.4554   -2.8544    0.0000 O   0  0  0  0  0  0  0  0  0  0  0  0
    4.4554   -1.4255    0.0000 O   0  5  0  0  0  0  0  0  0  0  0  0
    2.9022   -1.3778    0.0000 C   0  0  0  0  0  0  0  0  0  0  0  0
    2.1400   -1.0621    0.0000 N   0  0  0  0  0  0  0  0  0  0  0  0
    2.1400   -0.2371    0.0000 N   0  3  0  0  0  0  0  0  0  0  0  0
    1.4255    0.1754    0.0000 O   0  0  0  0  0  0  0  0  0  0  0  0
    2.8544    0.1754    0.0000 O   0  5  0  0  0  0  0  0  0  0  0  0
    1.3778   -1.3778    0.0000 C   0  0  0  0  0  0  0  0  0  0  0  0
    1.0621   -2.1400    0.0000 N   0  0  0  0  0  0  0  0  0  0  0  0
    0.2371   -2.1400    0.0000 N   0  3  0  0  0  0  0  0  0  0  0  0
   -0.1754   -2.8544    0.0000 O   0  0  0  0  0  0  0  0  0  0  0  0
   -0.1754   -1.4255    0.0000 O   0  5  0  0  0  0  0  0  0  0  0  0
    1.3778   -2.9022    0.0000 C   0  0  0  0  0  0  0  0  0  0  0  0
    2.1400   -3.2179    0.0000 N   0  0  0  0  0  0  0  0  0  0  0  0
    2.1400   -4.0429    0.0000 N   0  3  0  0  0  0  0  0  0  0  0  0
    2.8544   -4.4554    0.0000 O   0  0  0  0  0  0  0  0  0  0  0  0
    1.4255   -4.4554    0.0000 O   0  5  0  0  0  0  0  0  0  0  0  0
    2.9022   -2.9022    0.0000 C   0  0  0  0  0  0  0  0  0  0  0  0
  1  2  1  0  0  0  0
  2  3  2  0  0  0  0
  2  4  1  0  0  0  0
  5  1  1  0  0  0  0
  6  5  1  0  0  0  0
  6  7  1  0  0  0  0
  7  8  2  0  0  0  0
  7  9  1  0  0  0  0
 10  6  1  0  0  0  0
 11 10  1  0  0  0  0
 11 12  1  0  0  0  0
 12 13  2  0  0  0  0
 12 14  1  0  0  0  0
 15 11  1  0  0  0  0
 16 15  1  0  0  0  0
 16 17  1  0  0  0  0
 17 18  2  0  0  0  0
 17 19  1  0  0  0  0
 20 16  1  0  0  0  0
  1 20  1  0  0  0  0
M  CHG  8   2   1   4  -1   7   1   9  -1  12   1  14  -1  17   1  19  -1
M  END
> <ChemID>
100495

> <CAS>
2691-41-0

> <Original_SMILES>
[O-][N+](=O)N1CN(CN(CN(C1)[N+]([O-])=O)[N+]([O-])=O)[N+]([O-])=O

> <preferred_name>
Cyclotetramethylenetetranitramine

> <dsstox_substance_id>
DTXSID3024237

> <dsstox_compound_id>
DTXCID504237

> <qc_level>
DSSTox_Low

> <Canonical_QSARr>
[O-][N+](=O)N1CN(CN(CN(C1)[N+]([O-])=O)[N+]([O-])=O)[N+]([O-])=O

> <InChI_Code_QSARr>
InChI=1S/C4H8N8O8/c13-9(14)5-1-6(10(15)16)3-8(12(19)20)4-7(2-5)11(17)18/h1-4H2

> <InChI Key_QSARr>
UZGLIIJVICEWHF-UHFFFAOYSA-N

> <Salt_Solvent>


> <Salt_Solvent_ID>
0

> <MPID>
98418

> <LogBCF>
-0.3

> <Tr_1_Tst_0>
0

$$$$
100496
  Mrv171c012241911322D          

 11 11  0  0  0  0            999 V2000
    1.1645    0.0375    0.0000 N   0  0  0  0  0  0  0  0  0  0  0  0
    0.4500    0.4500    0.0000 C   0  0  0  0  0  0  0  0  0  0  0  0
    0.4500    1.2750    0.0000 C   0  0  0  0  0  0  0  0  0  0  0  0
    1.1645    1.6875    0.0000 C   0  0  0  0  0  0  0  0  0  0  0  0
   -0.2645    1.6875    0.0000 C   0  0  0  0  0  0  0  0  0  0  0  0
   -0.2645    0.0375    0.0000 N   0  0  0  0  0  0  0  0  0  0  0  0
   -0.2645   -0.7875    0.0000 C   0  0  0  0  0  0  0  0  0  0  0  0
   -0.9789   -1.2000    0.0000 O   0  0  0  0  0  0  0  0  0  0  0  0
    0.4500   -1.2000    0.0000 C   0  0  0  0  0  0  0  0  0  0  0  0
    1.1645   -0.7875    0.0000 C   0  0  0  0  0  0  0  0  0  0  0  0
    1.8790   -1.2000    0.0000 C   0  0  0  0  0  0  0  0  0  0  0  0
  2  1  1  0  0  0  0
  2  3  1  0  0  0  0
  3  4  1  0  0  0  0
  3  5  1  0  0  0  0
  6  2  2  0  0  0  0
  7  6  1  0  0  0  0
  7  8  2  0  0  0  0
  9  7  1  0  0  0  0
 10  9  1  0  0  0  0
  1 10  2  0  0  0  0
 10 11  1  0  0  0  0
M  END
> <ChemID>
100496

> <CAS>
2814-20-2

> <Original_SMILES>
CC1=CC(=O)N=C(N1)C(C)C

> <preferred_name>
2-Isopropyl-6-methyl-4-pyrimidone

> <dsstox_substance_id>
DTXSID1027502

> <dsstox_compound_id>
DTXCID507502

> <qc_level>
DSSTox_Low

> <Canonical_QSARr>
CC1CC(=O)N=C(N=1)C(C)C

> <InChI_Code_QSARr>
InChI=1S/C8H12N2O/c1-5(2)8-9-6(3)4-7(11)10-8/h5H,4H2,1-3H3

> <InChI Key_QSARr>
JSAKSKHTLVSNQJ-UHFFFAOYSA-N

> <Salt_Solvent>


> <Salt_Solvent_ID>
0

> <MPID>
98419

> <LogBCF>
0.26

> <Tr_1_Tst_0>
1

$$$$
100498
  Mrv171c012241911322D          

 18 18  0  0  0  0            999 V2000
    2.9781   -2.2291    0.0000 S   0  0  0  0  0  0  0  0  0  0  0  0
    3.3906   -1.5147    0.0000 P   0  0  0  0  0  0  0  0  0  0  0  0
    4.1050   -1.9272    0.0000 O   0  0  0  0  0  0  0  0  0  0  0  0
    4.8195   -1.5147    0.0000 C   0  0  0  0  0  0  0  0  0  0  0  0
    5.5340   -1.9272    0.0000 C   0  0  0  0  0  0  0  0  0  0  0  0
    3.8031   -0.8002    0.0000 O   0  0  0  0  0  0  0  0  0  0  0  0
    4.6281   -0.8002    0.0000 C   0  0  0  0  0  0  0  0  0  0  0  0
    5.0406   -0.0857    0.0000 C   0  0  0  0  0  0  0  0  0  0  0  0
    2.6761   -1.1022    0.0000 O   0  0  0  0  0  0  0  0  0  0  0  0
    1.9616   -1.5147    0.0000 C   0  0  0  0  0  0  0  0  0  0  0  0
    1.2471   -1.1022    0.0000 C   0  0  0  0  0  0  0  0  0  0  0  0
    1.2471   -0.2772    0.0000 Cl  0  0  0  0  0  0  0  0  0  0  0  0
    0.5327   -1.5147    0.0000 C   0  0  0  0  0  0  0  0  0  0  0  0
    0.5327   -2.3397    0.0000 C   0  0  0  0  0  0  0  0  0  0  0  0
   -0.1818   -2.7522    0.0000 Cl  0  0  0  0  0  0  0  0  0  0  0  0
    1.2471   -2.7522    0.0000 C   0  0  0  0  0  0  0  0  0  0  0  0
    1.2471   -3.5772    0.0000 Cl  0  0  0  0  0  0  0  0  0  0  0  0
    1.9616   -2.3397    0.0000 N   0  0  0  0  0  0  0  0  0  0  0  0
  1  2  2  0  0  0  0
  2  3  1  0  0  0  0
  3  4  1  0  0  0  0
  4  5  1  0  0  0  0
  2  6  1  0  0  0  0
  6  7  1  0  0  0  0
  7  8  1  0  0  0  0
  2  9  1  0  0  0  0
  9 10  1  0  0  0  0
 11 10  1  0  0  0  0
 11 12  1  0  0  0  0
 13 11  2  0  0  0  0
 14 13  1  0  0  0  0
 14 15  1  0  0  0  0
 16 14  2  0  0  0  0
 16 17  1  0  0  0  0
 18 16  1  0  0  0  0
 10 18  2  0  0  0  0
M  END
> <ChemID>
100498

> <CAS>
2921-88-2

> <Original_SMILES>
CCOP(=S)(Oc1[n]c(Cl)c(Cl)cc1Cl)OCC

> <preferred_name>
Chlorpyrifos

> <dsstox_substance_id>
DTXSID4020458

> <dsstox_compound_id>
DTXCID80458

> <qc_level>
DSSTox_Low

> <Canonical_QSARr>
CCOP(=S)(OC1=NC(Cl)=C(Cl)C=C1Cl)OCC

> <InChI_Code_QSARr>
InChI=1S/C9H11Cl3NO3PS/c1-3-14-17(18,15-4-2)16-9-7(11)5-6(10)8(12)13-9/h5H,3-4H2,1-2H3

> <InChI Key_QSARr>
SBPBAQFWLVIOKP-UHFFFAOYSA-N

> <Salt_Solvent>


> <Salt_Solvent_ID>
0

> <MPID>
98420

> <LogBCF>
3.18

> <Tr_1_Tst_0>
1

$$$$
100499
  Mrv171c012241911322D          

 27 27  0  0  0  0            999 V2000
    4.4014   -3.9039    0.0000 N   0  0  0  0  0  0  0  0  0  0  0  0
    4.4014   -3.0789    0.0000 C   0  0  0  0  0  0  0  0  0  0  0  0
    5.1159   -2.6664    0.0000 N   0  0  0  0  0  0  0  0  0  0  0  0
    5.8304   -3.0789    0.0000 C   0  0  0  0  0  0  0  0  0  0  0  0
    6.5448   -2.6664    0.0000 O   0  0  0  0  0  0  0  0  0  0  0  0
    7.2593   -3.0789    0.0000 C   0  0  0  0  0  0  0  0  0  0  0  0
    5.1159   -1.8414    0.0000 C   0  0  0  0  0  0  0  0  0  0  0  0
    4.4014   -1.4289    0.0000 O   0  0  0  0  0  0  0  0  0  0  0  0
    4.4014   -0.6039    0.0000 C   0  0  0  0  0  0  0  0  0  0  0  0
    3.6870   -2.6664    0.0000 N   0  0  0  0  0  0  0  0  0  0  0  0
    2.9725   -3.0789    0.0000 C   0  0  0  0  0  0  0  0  0  0  0  0
    2.2580   -2.6664    0.0000 N   0  0  0  0  0  0  0  0  0  0  0  0
    1.5435   -3.0789    0.0000 C   0  0  0  0  0  0  0  0  0  0  0  0
    0.8291   -2.6664    0.0000 O   0  0  0  0  0  0  0  0  0  0  0  0
    0.1146   -3.0789    0.0000 C   0  0  0  0  0  0  0  0  0  0  0  0
    2.2580   -1.8414    0.0000 C   0  0  0  0  0  0  0  0  0  0  0  0
    1.5435   -1.4289    0.0000 O   0  0  0  0  0  0  0  0  0  0  0  0
    1.5435   -0.6039    0.0000 C   0  0  0  0  0  0  0  0  0  0  0  0
    2.9725   -3.9039    0.0000 N   0  0  0  0  0  0  0  0  0  0  0  0
    3.6870   -4.3164    0.0000 C   0  0  0  0  0  0  0  0  0  0  0  0
    3.6870   -5.1414    0.0000 N   0  0  0  0  0  0  0  0  0  0  0  0
    2.9725   -5.5539    0.0000 C   0  0  0  0  0  0  0  0  0  0  0  0
    2.2580   -5.1414    0.0000 O   0  0  0  0  0  0  0  0  0  0  0  0
    1.5435   -5.5539    0.0000 C   0  0  0  0  0  0  0  0  0  0  0  0
    4.4014   -5.5539    0.0000 C   0  0  0  0  0  0  0  0  0  0  0  0
    5.1159   -5.1414    0.0000 O   0  0  0  0  0  0  0  0  0  0  0  0
    5.8304   -5.5539    0.0000 C   0  0  0  0  0  0  0  0  0  0  0  0
  2  1  1  0  0  0  0
  2  3  1  0  0  0  0
  3  4  1  0  0  0  0
  4  5  1  0  0  0  0
  5  6  1  0  0  0  0
  3  7  1  0  0  0  0
  7  8  1  0  0  0  0
  8  9  1  0  0  0  0
 10  2  2  0  0  0  0
 11 10  1  0  0  0  0
 11 12  1  0  0  0  0
 12 13  1  0  0  0  0
 13 14  1  0  0  0  0
 14 15  1  0  0  0  0
 12 16  1  0  0  0  0
 16 17  1  0  0  0  0
 17 18  1  0  0  0  0
 19 11  2  0  0  0  0
 20 19  1  0  0  0  0
  1 20  2  0  0  0  0
 20 21  1  0  0  0  0
 21 22  1  0  0  0  0
 22 23  1  0  0  0  0
 23 24  1  0  0  0  0
 21 25  1  0  0  0  0
 25 26  1  0  0  0  0
 26 27  1  0  0  0  0
M  END
> <ChemID>
100499

> <CAS>
3089-11-0

> <Original_SMILES>
COCN(COC)c1[n]c([n]c([n]1)N(COC)COC)N(COC)COC

> <preferred_name>
N,N,N',N',N'',N''-Hexakis(methoxymethyl)-1,3,5-triazine-2,4,6-triamine

> <dsstox_substance_id>
DTXSID9027520

> <dsstox_compound_id>
DTXCID307520

> <qc_level>
DSSTox_Low

> <Canonical_QSARr>
COCN(COC)C1N=C(N=C(N=1)N(COC)COC)N(COC)COC

> <InChI_Code_QSARr>
InChI=1S/C15H30N6O6/c1-22-7-19(8-23-2)13-16-14(20(9-24-3)10-25-4)18-15(17-13)21(11-26-5)12-27-6/h7-12H2,1-6H3

> <InChI Key_QSARr>
BNCADMBVWNPPIZ-UHFFFAOYSA-N

> <Salt_Solvent>


> <Salt_Solvent_ID>
0

> <MPID>
98421

> <LogBCF>
0.54

> <Tr_1_Tst_0>
1

$$$$
100500
  Mrv171c012241911322D          

 11 11  0  0  0  0            999 V2000
    2.4539   -0.8309    0.0000 N   0  3  0  0  0  0  0  0  0  0  0  0
    1.7395   -1.2434    0.0000 C   0  0  0  0  0  0  0  0  0  0  0  0
    1.0250   -0.8309    0.0000 C   0  0  0  0  0  0  0  0  0  0  0  0
    1.0250   -0.0059    0.0000 Cl  0  0  0  0  0  0  0  0  0  0  0  0
    0.3105   -1.2434    0.0000 C   0  0  0  0  0  0  0  0  0  0  0  0
   -0.4039   -0.8309    0.0000 Cl  0  0  0  0  0  0  0  0  0  0  0  0
    0.3105   -2.0684    0.0000 C   0  0  0  0  0  0  0  0  0  0  0  0
    1.0250   -2.4809    0.0000 C   0  0  0  0  0  0  0  0  0  0  0  0
    1.7395   -2.0684    0.0000 C   0  0  0  0  0  0  0  0  0  0  0  0
    2.4539   -0.0059    0.0000 O   0  5  0  0  0  0  0  0  0  0  0  0
    3.1684   -1.2434    0.0000 O   0  0  0  0  0  0  0  0  0  0  0  0
  1  2  1  0  0  0  0
  3  2  1  0  0  0  0
  3  4  1  0  0  0  0
  5  3  2  0  0  0  0
  5  6  1  0  0  0  0
  7  5  1  0  0  0  0
  8  7  2  0  0  0  0
  9  8  1  0  0  0  0
  2  9  2  0  0  0  0
  1 10  1  0  0  0  0
  1 11  2  0  0  0  0
M  CHG  2   1   1  10  -1
M  END
> <ChemID>
100500

> <CAS>
3209-22-1

> <Original_SMILES>
[O-][N+](=O)c1cccc(Cl)c1Cl

> <preferred_name>
2,3-Dichloronitrobenzene

> <dsstox_substance_id>
DTXSID8024997

> <dsstox_compound_id>
DTXCID704997

> <qc_level>
DSSTox_Low

> <Canonical_QSARr>
[O-][N+](=O)C1=CC=CC(Cl)=C1Cl

> <InChI_Code_QSARr>
InChI=1S/C6H3Cl2NO2/c7-4-2-1-3-5(6(4)8)9(10)11/h1-3H

> <InChI Key_QSARr>
CMVQZRLQEOAYSW-UHFFFAOYSA-N

> <Salt_Solvent>


> <Salt_Solvent_ID>
0

> <MPID>
98422

> <LogBCF>
2.16

> <Tr_1_Tst_0>
0

$$$$
100501
  Mrv171c012241911322D          

  9  8  0  0  0  0            999 V2000
    2.6664    0.7145    0.0000 Br  0  0  0  0  0  0  0  0  0  0  0  0
    1.9520    0.3020    0.0000 C   0  0  0  0  0  0  0  0  0  0  0  0
    1.2375    0.7145    0.0000 C   0  0  0  0  0  0  0  0  0  0  0  0
    0.5230    1.1270    0.0000 C   0  0  0  0  0  0  0  0  0  0  0  0
   -0.1915    0.7145    0.0000 Br  0  0  0  0  0  0  0  0  0  0  0  0
    1.6500    1.4289    0.0000 C   0  0  0  0  0  0  0  0  0  0  0  0
    1.2375    2.1434    0.0000 Br  0  0  0  0  0  0  0  0  0  0  0  0
    0.8250   -0.0000    0.0000 C   0  0  0  0  0  0  0  0  0  0  0  0
   -0.0000   -0.0000    0.0000 Br  0  0  0  0  0  0  0  0  0  0  0  0
  1  2  1  0  0  0  0
  2  3  1  0  0  0  0
  3  4  1  0  0  0  0
  4  5  1  0  0  0  0
  3  6  1  0  0  0  0
  6  7  1  0  0  0  0
  3  8  1  0  0  0  0
  8  9  1  0  0  0  0
M  END
> <ChemID>
100501

> <CAS>
3229-00-3

> <Original_SMILES>
BrCC(CBr)(CBr)CBr

> <preferred_name>
Propane, 1,3-dibromo-2,2-bis(bromomethyl)-

> <dsstox_substance_id>
DTXSID1062916

> <dsstox_compound_id>
DTXCID9038478

> <qc_level>
Public_High

> <Canonical_QSARr>
BrCC(CBr)(CBr)CBr

> <InChI_Code_QSARr>
InChI=1S/C5H8Br4/c6-1-5(2-7,3-8)4-9/h1-4H2

> <InChI Key_QSARr>
OYSVBCSOQFXYHK-UHFFFAOYSA-N

> <Salt_Solvent>


> <Salt_Solvent_ID>
0

> <MPID>
98423

> <LogBCF>
1.94

> <Tr_1_Tst_0>
1

$$$$
100502
  Mrv171c012241911322D          

 22 24  0  0  0  0            999 V2000
    1.4307   -3.2990    0.0000 Cl  0  0  0  0  0  0  0  0  0  0  0  0
    1.4307   -2.4740    0.0000 C   0  0  0  0  0  0  0  0  0  0  0  0
    2.1451   -2.0615    0.0000 C   0  0  0  0  0  0  0  0  0  0  0  0
    2.8596   -2.4740    0.0000 O   0  0  0  0  0  0  0  0  0  0  0  0
    3.5741   -2.0615    0.0000 C   0  0  0  0  0  0  0  0  0  0  0  0
    4.2885   -2.4740    0.0000 C   0  0  0  0  0  0  0  0  0  0  0  0
    4.2885   -3.2990    0.0000 Cl  0  0  0  0  0  0  0  0  0  0  0  0
    5.0030   -2.0615    0.0000 C   0  0  0  0  0  0  0  0  0  0  0  0
    5.7175   -2.4740    0.0000 Cl  0  0  0  0  0  0  0  0  0  0  0  0
    5.0030   -1.2365    0.0000 C   0  0  0  0  0  0  0  0  0  0  0  0
    5.7175   -0.8240    0.0000 Cl  0  0  0  0  0  0  0  0  0  0  0  0
    4.2885   -0.8240    0.0000 C   0  0  0  0  0  0  0  0  0  0  0  0
    4.2885    0.0010    0.0000 Cl  0  0  0  0  0  0  0  0  0  0  0  0
    3.5741   -1.2365    0.0000 C   0  0  0  0  0  0  0  0  0  0  0  0
    2.8596   -0.8240    0.0000 O   0  0  0  0  0  0  0  0  0  0  0  0
    2.1451   -1.2365    0.0000 C   0  0  0  0  0  0  0  0  0  0  0  0
    1.4307   -0.8240    0.0000 C   0  0  0  0  0  0  0  0  0  0  0  0
    1.4307    0.0010    0.0000 Cl  0  0  0  0  0  0  0  0  0  0  0  0
    0.7162   -1.2365    0.0000 C   0  0  0  0  0  0  0  0  0  0  0  0
    0.0017   -0.8240    0.0000 Cl  0  0  0  0  0  0  0  0  0  0  0  0
    0.7162   -2.0615    0.0000 C   0  0  0  0  0  0  0  0  0  0  0  0
    0.0017   -2.4740    0.0000 Cl  0  0  0  0  0  0  0  0  0  0  0  0
  1  2  1  0  0  0  0
  3  2  1  0  0  0  0
  3  4  1  0  0  0  0
  4  5  1  0  0  0  0
  6  5  2  0  0  0  0
  6  7  1  0  0  0  0
  8  6  1  0  0  0  0
  8  9  1  0  0  0  0
 10  8  2  0  0  0  0
 10 11  1  0  0  0  0
 12 10  1  0  0  0  0
 12 13  1  0  0  0  0
 14 12  2  0  0  0  0
  5 14  1  0  0  0  0
 14 15  1  0  0  0  0
 15 16  1  0  0  0  0
 16  3  2  0  0  0  0
 17 16  1  0  0  0  0
 17 18  1  0  0  0  0
 19 17  2  0  0  0  0
 19 20  1  0  0  0  0
 21 19  1  0  0  0  0
  2 21  2  0  0  0  0
 21 22  1  0  0  0  0
M  END
> <ChemID>
100502

> <CAS>
3268-87-9

> <Original_SMILES>
Clc1c2Oc3c(Oc2c(Cl)c(Cl)c1Cl)c(Cl)c(Cl)c(Cl)c3Cl

> <preferred_name>
Octachlorodibenzo-p-dioxin

> <dsstox_substance_id>
DTXSID4025799

> <dsstox_compound_id>
DTXCID205799

> <qc_level>
DSSTox_Low

> <Canonical_QSARr>
ClC1C2OC3C(OC=2C(Cl)=C(Cl)C=1Cl)=C(Cl)C(Cl)=C(Cl)C=3Cl

> <InChI_Code_QSARr>
InChI=1S/C12Cl8O2/c13-1-2(14)6(18)10-9(5(1)17)21-11-7(19)3(15)4(16)8(20)12(11)22-10

> <InChI Key_QSARr>
FOIBFBMSLDGNHL-UHFFFAOYSA-N

> <Salt_Solvent>


> <Salt_Solvent_ID>
0

> <MPID>
98424

> <LogBCF>
3.12

> <Tr_1_Tst_0>
1

$$$$
100503
  Mrv171c012241911322D          

  9  8  0  0  0  0            999 V2000
    2.8051   -1.4772    0.0000 O   0  0  0  0  0  0  0  0  0  0  0  0
    2.0907   -1.8897    0.0000 C   0  0  0  0  0  0  0  0  0  0  0  0
    1.3762   -1.4772    0.0000 C   0  0  0  0  0  0  0  0  0  0  0  0
    0.6617   -1.0647    0.0000 C   0  0  0  0  0  0  0  0  0  0  0  0
   -0.0527   -1.4772    0.0000 Br  0  0  0  0  0  0  0  0  0  0  0  0
    1.7887   -0.7627    0.0000 C   0  0  0  0  0  0  0  0  0  0  0  0
    1.3762   -0.0482    0.0000 Br  0  0  0  0  0  0  0  0  0  0  0  0
    0.9637   -2.1917    0.0000 C   0  0  0  0  0  0  0  0  0  0  0  0
    0.1387   -2.1917    0.0000 O   0  0  0  0  0  0  0  0  0  0  0  0
  1  2  1  0  0  0  0
  2  3  1  0  0  0  0
  3  4  1  0  0  0  0
  4  5  1  0  0  0  0
  3  6  1  0  0  0  0
  6  7  1  0  0  0  0
  3  8  1  0  0  0  0
  8  9  1  0  0  0  0
M  END
> <ChemID>
100503

> <CAS>
3296-90-0

> <Original_SMILES>
OCC(CBr)(CBr)CO

> <preferred_name>
2,2-Bis(bromomethyl)-1,3-propanediol

> <dsstox_substance_id>
DTXSID9020164

> <dsstox_compound_id>
DTXCID50164

> <qc_level>
DSSTox_Low

> <Canonical_QSARr>
OCC(CBr)(CBr)CO

> <InChI_Code_QSARr>
InChI=1S/C5H10Br2O2/c6-1-5(2-7,3-8)4-9/h8-9H,1-4H2

> <InChI Key_QSARr>
CHUGKEQJSLOLHL-UHFFFAOYSA-N

> <Salt_Solvent>


> <Salt_Solvent_ID>
0

> <MPID>
98425

> <LogBCF>
0.68

> <Tr_1_Tst_0>
1

$$$$
100504
  Mrv171c012241911322D          

 39 39  0  0  0  0            999 V2000
    5.5499   -6.3155    0.0000 O   0  0  0  0  0  0  0  0  0  0  0  0
    5.5499   -5.4905    0.0000 C   0  0  0  0  0  0  0  0  0  0  0  0
    4.8355   -5.0780    0.0000 C   0  0  0  0  0  0  0  0  0  0  0  0
    4.8355   -4.2530    0.0000 C   0  0  0  0  0  0  0  0  0  0  0  0
    4.1210   -3.8405    0.0000 C   0  0  0  0  0  0  0  0  0  0  0  0
    4.1210   -3.0155    0.0000 C   0  0  0  0  0  0  0  0  0  0  0  0
    4.8355   -2.6030    0.0000 O   0  0  0  0  0  0  0  0  0  0  0  0
    4.8355   -1.7780    0.0000 C   0  0  0  0  0  0  0  0  0  0  0  0
    5.5499   -1.3655    0.0000 C   0  0  0  0  0  0  0  0  0  0  0  0
    6.2644   -1.7780    0.0000 C   0  0  0  0  0  0  0  0  0  0  0  0
    6.9789   -1.3655    0.0000 C   0  0  0  0  0  0  0  0  0  0  0  0
    5.5499   -0.5405    0.0000 C   0  0  0  0  0  0  0  0  0  0  0  0
    6.2644   -0.1280    0.0000 C   0  0  0  0  0  0  0  0  0  0  0  0
    6.2644    0.6970    0.0000 C   0  0  0  0  0  0  0  0  0  0  0  0
    6.9789    1.1095    0.0000 C   0  0  0  0  0  0  0  0  0  0  0  0
    3.4065   -2.6030    0.0000 O   0  0  0  0  0  0  0  0  0  0  0  0
    3.4065   -4.2530    0.0000 C   0  0  0  0  0  0  0  0  0  0  0  0
    2.6921   -3.8405    0.0000 C   0  0  0  0  0  0  0  0  0  0  0  0
    1.9776   -4.2530    0.0000 O   0  0  0  0  0  0  0  0  0  0  0  0
    1.2631   -3.8405    0.0000 C   0  0  0  0  0  0  0  0  0  0  0  0
    0.5486   -4.2530    0.0000 C   0  0  0  0  0  0  0  0  0  0  0  0
    0.5486   -5.0780    0.0000 C   0  0  0  0  0  0  0  0  0  0  0  0
   -0.1658   -5.4905    0.0000 C   0  0  0  0  0  0  0  0  0  0  0  0
   -0.1658   -3.8405    0.0000 C   0  0  0  0  0  0  0  0  0  0  0  0
   -0.8803   -4.2530    0.0000 C   0  0  0  0  0  0  0  0  0  0  0  0
   -1.5948   -3.8405    0.0000 C   0  0  0  0  0  0  0  0  0  0  0  0
   -2.3092   -4.2530    0.0000 C   0  0  0  0  0  0  0  0  0  0  0  0
    2.6921   -3.0155    0.0000 O   0  0  0  0  0  0  0  0  0  0  0  0
    3.4065   -5.0780    0.0000 C   0  0  0  0  0  0  0  0  0  0  0  0
    4.1210   -5.4905    0.0000 C   0  0  0  0  0  0  0  0  0  0  0  0
    6.2644   -5.0780    0.0000 O   0  0  0  0  0  0  0  0  0  0  0  0
    6.9789   -5.4905    0.0000 C   0  0  0  0  0  0  0  0  0  0  0  0
    7.6933   -5.0780    0.0000 C   0  0  0  0  0  0  0  0  0  0  0  0
    7.6933   -4.2530    0.0000 C   0  0  0  0  0  0  0  0  0  0  0  0
    8.4078   -3.8405    0.0000 C   0  0  0  0  0  0  0  0  0  0  0  0
    8.4078   -5.4905    0.0000 C   0  0  0  0  0  0  0  0  0  0  0  0
    9.1223   -5.0780    0.0000 C   0  0  0  0  0  0  0  0  0  0  0  0
    9.8368   -5.4905    0.0000 C   0  0  0  0  0  0  0  0  0  0  0  0
   10.5512   -5.0780    0.0000 C   0  0  0  0  0  0  0  0  0  0  0  0
  1  2  2  0  0  0  0
  2  3  1  0  0  0  0
  4  3  1  0  0  0  0
  5  4  2  0  0  0  0
  5  6  1  0  0  0  0
  6  7  1  0  0  0  0
  7  8  1  0  0  0  0
  8  9  1  0  0  0  0
  9 10  1  0  0  0  0
 10 11  1  0  0  0  0
  9 12  1  0  0  0  0
 12 13  1  0  0  0  0
 13 14  1  0  0  0  0
 14 15  1  0  0  0  0
  6 16  2  0  0  0  0
 17  5  1  0  0  0  0
 17 18  1  0  0  0  0
 18 19  1  0  0  0  0
 19 20  1  0  0  0  0
 20 21  1  0  0  0  0
 21 22  1  0  0  0  0
 22 23  1  0  0  0  0
 21 24  1  0  0  0  0
 24 25  1  0  0  0  0
 25 26  1  0  0  0  0
 26 27  1  0  0  0  0
 18 28  2  0  0  0  0
 29 17  2  0  0  0  0
 30 29  1  0  0  0  0
  3 30  2  0  0  0  0
  2 31  1  0  0  0  0
 31 32  1  0  0  0  0
 32 33  1  0  0  0  0
 33 34  1  0  0  0  0
 34 35  1  0  0  0  0
 33 36  1  0  0  0  0
 36 37  1  0  0  0  0
 37 38  1  0  0  0  0
 38 39  1  0  0  0  0
M  END
> <ChemID>
100504

> <CAS>
3319-31-1

> <Original_SMILES>
CCCCC(COC(=O)c1ccc(cc1C(=O)OCC(CCCC)CC)C(=O)OCC(CCCC)CC)CC

> <preferred_name>
Tris(2-ethylhexyl) trimellitate

> <dsstox_substance_id>
DTXSID9026265

> <dsstox_compound_id>
DTXCID806265

> <qc_level>
DSSTox_Low

> <Canonical_QSARr>
CCCCC(COC(=O)C1=CC=C(C=C1C(=O)OCC(CCCC)CC)C(=O)OCC(CCCC)CC)CC

> <InChI_Code_QSARr>
InChI=1S/C33H54O6/c1-7-13-16-25(10-4)22-37-31(34)28-19-20-29(32(35)38-23-26(11-5)17-14-8-2)30(21-28)33(36)39-24-27(12-6)18-15-9-3/h19-21,25-27H,7-18,22-24H2,1-6H3

> <InChI Key_QSARr>
KRADHMIOFJQKEZ-UHFFFAOYSA-N

> <Salt_Solvent>


> <Salt_Solvent_ID>
0

> <MPID>
98426

> <LogBCF>
1.17

> <Tr_1_Tst_0>
0

$$$$
100505
  Mrv171c012241911322D          

 17 18  0  0  0  0            999 V2000
    2.1895   -1.9816    0.0000 O   0  0  0  0  0  0  0  0  0  0  0  0
    2.1895   -1.1566    0.0000 C   0  0  0  0  0  0  0  0  0  0  0  0
    2.9039   -0.7441    0.0000 C   0  0  0  0  0  0  0  0  0  0  0  0
    2.9039    0.0809    0.0000 C   0  0  0  0  0  0  0  0  0  0  0  0
    2.1895    0.4934    0.0000 C   0  0  0  0  0  0  0  0  0  0  0  0
    2.1895    1.3184    0.0000 Cl  0  0  0  0  0  0  0  0  0  0  0  0
    1.4750    0.0809    0.0000 C   0  0  0  0  0  0  0  0  0  0  0  0
    1.4750   -0.7441    0.0000 C   0  0  0  0  0  0  0  0  0  0  0  0
    0.7605   -1.1566    0.0000 O   0  0  0  0  0  0  0  0  0  0  0  0
    2.9039   -2.3941    0.0000 C   0  0  0  0  0  0  0  0  0  0  0  0
    2.9039   -3.2191    0.0000 C   0  0  0  0  0  0  0  0  0  0  0  0
    3.6184   -3.6316    0.0000 C   0  0  0  0  0  0  0  0  0  0  0  0
    4.3329   -3.2191    0.0000 C   0  0  0  0  0  0  0  0  0  0  0  0
    5.0473   -3.6316    0.0000 Cl  0  0  0  0  0  0  0  0  0  0  0  0
    4.3329   -2.3941    0.0000 C   0  0  0  0  0  0  0  0  0  0  0  0
    3.6184   -1.9816    0.0000 C   0  0  0  0  0  0  0  0  0  0  0  0
    3.6184   -1.1566    0.0000 Cl  0  0  0  0  0  0  0  0  0  0  0  0
  1  2  1  0  0  0  0
  3  2  1  0  0  0  0
  4  3  2  0  0  0  0
  5  4  1  0  0  0  0
  5  6  1  0  0  0  0
  7  5  2  0  0  0  0
  8  7  1  0  0  0  0
  2  8  2  0  0  0  0
  8  9  1  0  0  0  0
  1 10  1  0  0  0  0
 11 10  2  0  0  0  0
 12 11  1  0  0  0  0
 13 12  2  0  0  0  0
 13 14  1  0  0  0  0
 15 13  1  0  0  0  0
 16 15  2  0  0  0  0
 10 16  1  0  0  0  0
 16 17  1  0  0  0  0
M  END
> <ChemID>
100505

> <CAS>
3380-34-5

> <Original_SMILES>
Oc1cc(Cl)ccc1Oc1ccc(Cl)cc1Cl

> <preferred_name>
Triclosan

> <dsstox_substance_id>
DTXSID5032498

> <dsstox_compound_id>
DTXCID3012498

> <qc_level>
DSSTox_Low

> <Canonical_QSARr>
OC1C=C(Cl)C=CC=1OC1=CC=C(Cl)C=C1Cl

> <InChI_Code_QSARr>
InChI=1S/C12H7Cl3O2/c13-7-1-3-11(9(15)5-7)17-12-4-2-8(14)6-10(12)16/h1-6,16H

> <InChI Key_QSARr>
XEFQLINVKFYRCS-UHFFFAOYSA-N

> <Salt_Solvent>


> <Salt_Solvent_ID>
0

> <MPID>
98427

> <LogBCF>
1.72

> <Tr_1_Tst_0>
1

$$$$
100506
  Mrv171c012241911322D          

 13 14  0  0  0  0            999 V2000
   -0.0139   -1.3173    0.0000 C   0  0  0  0  0  0  0  0  0  0  0  0
    0.8177   -0.8831    0.0000 C   0  0  0  0  0  0  0  0  0  0  0  0
    1.0005   -0.0229    0.0000 Cl  0  0  0  0  0  0  0  0  0  0  0  0
    1.0156   -1.7101    0.0000 C   0  0  0  0  0  0  0  0  0  0  0  0
    0.3430   -0.9107    0.0000 Cl  0  0  0  0  0  0  0  0  0  0  0  0
    0.2673   -1.7014    0.0000 Cl  0  0  0  0  0  0  0  0  0  0  0  0
    0.8010   -2.5330    0.0000 C   0  0  0  0  0  0  0  0  0  0  0  0
    0.8815   -3.3921    0.0000 Cl  0  0  0  0  0  0  0  0  0  0  0  0
    1.5196   -2.1278    0.0000 C   0  0  0  0  0  0  0  0  0  0  0  0
    2.2661   -2.5577    0.0000 Cl  0  0  0  0  0  0  0  0  0  0  0  0
    1.5280   -1.3028    0.0000 C   0  0  0  0  0  0  0  0  0  0  0  0
    2.2879   -0.8910    0.0000 Cl  0  0  0  0  0  0  0  0  0  0  0  0
    0.0907   -2.1132    0.0000 C   0  0  0  0  0  0  0  0  0  0  0  0
  2  1  1  0  0  0  0
  2  3  1  0  0  0  0
  2  4  1  0  0  0  0
  4  5  1  0  0  0  0
  4  6  1  0  0  0  0
  4  7  1  0  0  0  0
  7  8  1  0  0  0  0
  7  9  1  0  0  0  0
  9 10  1  0  0  0  0
  9 11  2  0  0  0  0
 11  2  1  0  0  0  0
 11 12  1  0  0  0  0
 13  7  1  0  0  0  0
  1 13  2  0  0  0  0
M  END
> <ChemID>
100506

> <CAS>
3389-71-7

> <Original_SMILES>
ClC1(Cl)C2(Cl)C=CC1(Cl)C(Cl)=C2Cl

> <preferred_name>


> <dsstox_substance_id>
DTXSID00875710

> <dsstox_compound_id>
DTXCID401013830

> <qc_level>


> <Canonical_QSARr>
ClC1(Cl)C2(Cl)C=CC1(Cl)C(Cl)=C2Cl

> <InChI_Code_QSARr>
InChI=1S/C7H2Cl6/c8-3-4(9)6(11)2-1-5(3,10)7(6,12)13/h1-2H

> <InChI Key_QSARr>
IHAXIFZOERJWDF-UHFFFAOYSA-N

> <Salt_Solvent>


> <Salt_Solvent_ID>
0

> <MPID>
98428

> <LogBCF>
3.81

> <Tr_1_Tst_0>
1

$$$$
100507
  Mrv171c012241911322D          

 11 11  0  0  0  0            999 V2000
    2.8003   -0.6797    0.0000 N   0  0  0  0  0  0  0  0  0  0  0  0
    2.0858   -1.0922    0.0000 C   0  0  0  0  0  0  0  0  0  0  0  0
    1.3713   -0.6797    0.0000 C   0  0  0  0  0  0  0  0  0  0  0  0
    1.3713    0.1453    0.0000 Cl  0  0  0  0  0  0  0  0  0  0  0  0
    0.6569   -1.0922    0.0000 C   0  0  0  0  0  0  0  0  0  0  0  0
   -0.0576   -0.6797    0.0000 Cl  0  0  0  0  0  0  0  0  0  0  0  0
    0.6569   -1.9172    0.0000 C   0  0  0  0  0  0  0  0  0  0  0  0
    1.3713   -2.3297    0.0000 C   0  0  0  0  0  0  0  0  0  0  0  0
    1.3713   -3.1547    0.0000 Cl  0  0  0  0  0  0  0  0  0  0  0  0
    2.0858   -1.9172    0.0000 C   0  0  0  0  0  0  0  0  0  0  0  0
    2.8003   -2.3297    0.0000 Cl  0  0  0  0  0  0  0  0  0  0  0  0
  1  2  1  0  0  0  0
  3  2  1  0  0  0  0
  3  4  1  0  0  0  0
  5  3  2  0  0  0  0
  5  6  1  0  0  0  0
  7  5  1  0  0  0  0
  8  7  2  0  0  0  0
  8  9  1  0  0  0  0
 10  8  1  0  0  0  0
  2 10  2  0  0  0  0
 10 11  1  0  0  0  0
M  END
> <ChemID>
100507

> <CAS>
3481-20-7

> <Original_SMILES>
Nc1c(Cl)c(Cl)cc(Cl)c1Cl

> <preferred_name>
2,3,5,6-Tetrachloroaniline

> <dsstox_substance_id>
DTXSID2022208

> <dsstox_compound_id>
DTXCID802208

> <qc_level>
DSSTox_Low

> <Canonical_QSARr>
NC1=C(Cl)C(Cl)=CC(Cl)=C1Cl

> <InChI_Code_QSARr>
InChI=1S/C6H3Cl4N/c7-2-1-3(8)5(10)6(11)4(2)9/h1H,11H2

> <InChI Key_QSARr>
YTDHEFNWWHSXSU-UHFFFAOYSA-N

> <Salt_Solvent>


> <Salt_Solvent_ID>
0

> <MPID>
98429

> <LogBCF>
2.52

> <Tr_1_Tst_0>
1

$$$$
100508
  Mrv171c012241911322D          

 17 17  0  0  0  0            999 V2000
    3.8224   -0.9224    0.0000 C   0  0  0  0  0  0  0  0  0  0  0  0
    3.1079   -1.3349    0.0000 C   0  0  0  0  0  0  0  0  0  0  0  0
    2.3935   -0.9224    0.0000 C   0  0  0  0  0  0  0  0  0  0  0  0
    2.3935   -0.0974    0.0000 S   0  0  0  0  0  0  0  0  0  0  0  0
    1.6790    0.3151    0.0000 O   0  0  0  0  0  0  0  0  0  0  0  0
    3.1079    0.3151    0.0000 C   0  0  0  0  0  0  0  0  0  0  0  0
    1.6790   -1.3349    0.0000 C   0  0  0  0  0  0  0  0  0  0  0  0
    1.6790   -2.1599    0.0000 C   0  0  0  0  0  0  0  0  0  0  0  0
    2.3935   -2.5724    0.0000 C   0  0  0  0  0  0  0  0  0  0  0  0
    2.3935   -3.3974    0.0000 O   0  0  0  0  0  0  0  0  0  0  0  0
    1.6790   -3.8099    0.0000 P   0  0  0  0  0  0  0  0  0  0  0  0
    1.2665   -3.0955    0.0000 S   0  0  0  0  0  0  0  0  0  0  0  0
    0.9645   -4.2224    0.0000 O   0  0  0  0  0  0  0  0  0  0  0  0
    0.9645   -5.0474    0.0000 C   0  0  0  0  0  0  0  0  0  0  0  0
    2.0915   -4.5244    0.0000 O   0  0  0  0  0  0  0  0  0  0  0  0
    1.6790   -5.2389    0.0000 C   0  0  0  0  0  0  0  0  0  0  0  0
    3.1079   -2.1599    0.0000 C   0  0  0  0  0  0  0  0  0  0  0  0
  1  2  1  0  0  0  0
  3  2  2  0  0  0  0
  3  4  1  0  0  0  0
  4  5  2  0  0  0  0
  4  6  1  0  0  0  0
  7  3  1  0  0  0  0
  8  7  2  0  0  0  0
  9  8  1  0  0  0  0
  9 10  1  0  0  0  0
 10 11  1  0  0  0  0
 11 12  2  0  0  0  0
 11 13  1  0  0  0  0
 13 14  1  0  0  0  0
 11 15  1  0  0  0  0
 15 16  1  0  0  0  0
 17  9  2  0  0  0  0
  2 17  1  0  0  0  0
M  END
> <ChemID>
100508

> <CAS>
3761-41-9

> <Original_SMILES>
Cc1cc(ccc1S(C)=O)OP(=S)(OC)OC

> <preferred_name>
Mesulfenfos

> <dsstox_substance_id>
DTXSID9058076

> <dsstox_compound_id>
DTXCID5031844

> <qc_level>
DSSTox_High

> <Canonical_QSARr>
CC1C=C(C=CC=1S(C)=O)OP(=S)(OC)OC

> <InChI_Code_QSARr>
InChI=1S/C10H15O4PS2/c1-8-7-9(5-6-10(8)17(4)11)14-15(16,12-2)13-3/h5-7H,1-4H3

> <InChI Key_QSARr>
DLAPIMGBBDILHJ-UHFFFAOYSA-N

> <Salt_Solvent>


> <Salt_Solvent_ID>
0

> <MPID>
98430

> <LogBCF>
0.12

> <Tr_1_Tst_0>
0

$$$$
100509
  Mrv171c012241911322D          

 18 18  0  0  0  0            999 V2000
    3.5767   -3.1836    0.0000 S   0  0  0  0  0  0  0  0  0  0  0  0
    3.9892   -3.8981    0.0000 P   0  0  0  0  0  0  0  0  0  0  0  0
    3.2747   -4.3106    0.0000 O   0  0  0  0  0  0  0  0  0  0  0  0
    3.2747   -5.1356    0.0000 C   0  0  0  0  0  0  0  0  0  0  0  0
    4.4017   -4.6126    0.0000 O   0  0  0  0  0  0  0  0  0  0  0  0
    3.9892   -5.3271    0.0000 C   0  0  0  0  0  0  0  0  0  0  0  0
    4.7037   -3.4856    0.0000 O   0  0  0  0  0  0  0  0  0  0  0  0
    4.7037   -2.6606    0.0000 C   0  0  0  0  0  0  0  0  0  0  0  0
    5.4182   -2.2481    0.0000 C   0  0  0  0  0  0  0  0  0  0  0  0
    5.4182   -1.4231    0.0000 C   0  0  0  0  0  0  0  0  0  0  0  0
    4.7037   -1.0106    0.0000 C   0  0  0  0  0  0  0  0  0  0  0  0
    4.7037   -0.1856    0.0000 S   0  0  0  0  0  0  0  0  0  0  0  0
    4.7037    0.6394    0.0000 O   0  0  0  0  0  0  0  0  0  0  0  0
    5.5287   -0.1856    0.0000 O   0  0  0  0  0  0  0  0  0  0  0  0
    3.8787   -0.1856    0.0000 C   0  0  0  0  0  0  0  0  0  0  0  0
    3.9892   -1.4231    0.0000 C   0  0  0  0  0  0  0  0  0  0  0  0
    3.2747   -1.0106    0.0000 C   0  0  0  0  0  0  0  0  0  0  0  0
    3.9892   -2.2481    0.0000 C   0  0  0  0  0  0  0  0  0  0  0  0
  1  2  2  0  0  0  0
  2  3  1  0  0  0  0
  3  4  1  0  0  0  0
  2  5  1  0  0  0  0
  5  6  1  0  0  0  0
  2  7  1  0  0  0  0
  7  8  1  0  0  0  0
  9  8  1  0  0  0  0
 10  9  2  0  0  0  0
 11 10  1  0  0  0  0
 11 12  1  0  0  0  0
 12 13  2  0  0  0  0
 12 14  2  0  0  0  0
 12 15  1  0  0  0  0
 16 11  2  0  0  0  0
 16 17  1  0  0  0  0
 18 16  1  0  0  0  0
  8 18  2  0  0  0  0
M  END
> <ChemID>
100509

> <CAS>
3761-42-0

> <Original_SMILES>
Cc1cc(ccc1S(C)(=O)=O)OP(=S)(OC)OC

> <preferred_name>
Fenthion sulfone

> <dsstox_substance_id>
DTXSID6041975

> <dsstox_compound_id>
DTXCID4021975

> <qc_level>
DSSTox_High

> <Canonical_QSARr>
CC1C=C(C=CC=1S(C)(=O)=O)OP(=S)(OC)OC

> <InChI_Code_QSARr>
InChI=1S/C10H15O5PS2/c1-8-7-9(15-16(17,13-2)14-3)5-6-10(8)18(4,11)12/h5-7H,1-4H3

> <InChI Key_QSARr>
ZDHYERRNXRANLI-UHFFFAOYSA-N

> <Salt_Solvent>


> <Salt_Solvent_ID>
0

> <MPID>
98431

> <LogBCF>
0.51

> <Tr_1_Tst_0>
1

$$$$
100510
  Mrv171c012241911322D          

 15 15  0  0  0  0            999 V2000
    4.8220   -2.1478    0.0000 C   0  0  0  0  0  0  0  0  0  0  0  0
    4.1075   -2.5603    0.0000 C   0  0  0  0  0  0  0  0  0  0  0  0
    3.3931   -2.1478    0.0000 C   0  0  0  0  0  0  0  0  0  0  0  0
    2.6786   -2.5603    0.0000 C   0  0  0  0  0  0  0  0  0  0  0  0
    1.9641   -2.1478    0.0000 C   0  0  0  0  0  0  0  0  0  0  0  0
    1.9641   -1.3228    0.0000 O   0  0  0  0  0  0  0  0  0  0  0  0
    1.2497   -0.9103    0.0000 C   0  0  0  0  0  0  0  0  0  0  0  0
    0.5352   -1.3228    0.0000 O   0  0  0  0  0  0  0  0  0  0  0  0
    1.2497   -0.0853    0.0000 N   0  0  0  0  0  0  0  0  0  0  0  0
    0.5352    0.3272    0.0000 C   0  0  0  0  0  0  0  0  0  0  0  0
    1.2497   -2.5603    0.0000 C   0  0  0  0  0  0  0  0  0  0  0  0
    1.2497   -3.3853    0.0000 C   0  0  0  0  0  0  0  0  0  0  0  0
    1.9641   -3.7978    0.0000 C   0  0  0  0  0  0  0  0  0  0  0  0
    2.6786   -3.3853    0.0000 C   0  0  0  0  0  0  0  0  0  0  0  0
    3.3931   -1.3228    0.0000 C   0  0  0  0  0  0  0  0  0  0  0  0
  1  2  1  0  0  0  0
  2  3  1  0  0  0  0
  3  4  1  0  0  0  0
  5  4  1  0  0  0  0
  5  6  1  0  0  0  0
  6  7  1  0  0  0  0
  7  8  2  0  0  0  0
  7  9  1  0  0  0  0
  9 10  1  0  0  0  0
 11  5  2  0  0  0  0
 12 11  1  0  0  0  0
 13 12  2  0  0  0  0
 14 13  1  0  0  0  0
  4 14  2  0  0  0  0
  3 15  1  0  0  0  0
M  END
> <ChemID>
100510

> <CAS>
3766-81-2

> <Original_SMILES>
CCC(C)c1ccccc1OC(=O)NC

> <preferred_name>
Fenobucarb

> <dsstox_substance_id>
DTXSID4058077

> <dsstox_compound_id>
DTXCID0031845

> <qc_level>
DSSTox_High

> <Canonical_QSARr>
CCC(C)C1=CC=CC=C1OC(=O)NC

> <InChI_Code_QSARr>
InChI=1S/C12H17NO2/c1-4-9(2)10-7-5-6-8-11(10)15-12(14)13-3/h5-9H,4H2,1-3H3,(H,13,14)

> <InChI Key_QSARr>
DIRFUJHNVNOBMY-UHFFFAOYSA-N

> <Salt_Solvent>


> <Salt_Solvent_ID>
0

> <MPID>
98432

> <LogBCF>
1.41

> <Tr_1_Tst_0>
1

$$$$
100511
  Mrv171c012241911322D          

 13 14  0  0  0  0            999 V2000
    1.6343   -0.3601    0.0000 O   0  0  0  0  0  0  0  0  0  0  0  0
    2.3488   -0.7726    0.0000 C   0  0  0  0  0  0  0  0  0  0  0  0
    3.0633   -0.3601    0.0000 C   0  0  0  0  0  0  0  0  0  0  0  0
    3.7777   -0.7726    0.0000 C   0  0  0  0  0  0  0  0  0  0  0  0
    3.7777   -1.5976    0.0000 C   0  0  0  0  0  0  0  0  0  0  0  0
    3.0633   -2.0101    0.0000 C   0  0  0  0  0  0  0  0  0  0  0  0
    2.3488   -1.5976    0.0000 C   0  0  0  0  0  0  0  0  0  0  0  0
    1.6343   -2.0101    0.0000 C   0  0  0  0  0  0  0  0  0  0  0  0
    0.9199   -1.5976    0.0000 O   0  0  0  0  0  0  0  0  0  0  0  0
    0.9199   -0.7726    0.0000 P   0  0  0  0  0  0  0  0  0  0  0  0
    0.0954   -0.7438    0.0000 O   0  0  0  0  0  0  0  0  0  0  0  0
   -0.3418   -1.4434    0.0000 C   0  0  0  0  0  0  0  0  0  0  0  0
    0.4827   -0.0729    0.0000 S   0  0  0  0  0  0  0  0  0  0  0  0
  2  1  1  0  0  0  0
  2  3  2  0  0  0  0
  3  4  1  0  0  0  0
  4  5  2  0  0  0  0
  5  6  1  0  0  0  0
  6  7  2  0  0  0  0
  7  2  1  0  0  0  0
  8  7  1  0  0  0  0
  9  8  1  0  0  0  0
 10  9  1  0  0  0  0
  1 10  1  0  0  0  0
 10 11  1  0  0  0  0
 11 12  1  0  0  0  0
 10 13  2  0  0  0  0
M  END
> <ChemID>
100511

> <CAS>
3811-49-2

> <Original_SMILES>
COP1(=S)OCc2ccccc2O1

> <preferred_name>
Dioxabenzofos

> <dsstox_substance_id>
DTXSID7041885

> <dsstox_compound_id>
DTXCID5021885

> <qc_level>
DSSTox_Low

> <Canonical_QSARr>
COP1(=S)OCC2=CC=CC=C2O1

> <InChI_Code_QSARr>
InChI=1S/C8H9O3PS/c1-9-12(13)10-6-7-4-2-3-5-8(7)11-12/h2-5H,6H2,1H3

> <InChI Key_QSARr>
OUNSASXJZHBGAI-UHFFFAOYSA-N

> <Salt_Solvent>


> <Salt_Solvent_ID>
0

> <MPID>
98433

> <LogBCF>
1.31

> <Tr_1_Tst_0>
1

$$$$
100513
  Mrv171c012241911322D          

 25 27  0  0  0  0            999 V2000
    2.3444   -1.9241    0.0000 C   0  0  0  0  0  0  0  0  0  0  0  0
    1.5194   -1.9241    0.0000 C   0  0  0  0  0  0  0  0  0  0  0  0
    1.1069   -1.2096    0.0000 C   0  0  0  0  0  0  0  0  0  0  0  0
    0.6944   -0.4952    0.0000 C   0  0  0  0  0  0  0  0  0  0  0  0
    0.3924   -1.6221    0.0000 C   0  0  0  0  0  0  0  0  0  0  0  0
    1.8213   -0.7971    0.0000 C   0  0  0  0  0  0  0  0  0  0  0  0
    1.1069   -2.6386    0.0000 C   0  0  0  0  0  0  0  0  0  0  0  0
    1.5194   -3.3530    0.0000 C   0  0  0  0  0  0  0  0  0  0  0  0
    1.1069   -4.0675    0.0000 C   0  0  0  0  0  0  0  0  0  0  0  0
    0.6944   -4.7820    0.0000 C   0  0  0  0  0  0  0  0  0  0  0  0
    1.8213   -4.4800    0.0000 C   0  0  0  0  0  0  0  0  0  0  0  0
    0.3924   -3.6550    0.0000 C   0  0  0  0  0  0  0  0  0  0  0  0
    2.3444   -3.3530    0.0000 C   0  0  0  0  0  0  0  0  0  0  0  0
    2.7569   -2.6386    0.0000 C   0  0  0  0  0  0  0  0  0  0  0  0
    3.5819   -2.6386    0.0000 N   0  0  0  0  0  0  0  0  0  0  0  0
    4.0668   -1.9711    0.0000 N   0  0  0  0  0  0  0  0  0  0  0  0
    4.8514   -2.2261    0.0000 C   0  0  0  0  0  0  0  0  0  0  0  0
    5.5659   -1.8136    0.0000 C   0  0  0  0  0  0  0  0  0  0  0  0
    6.2804   -2.2261    0.0000 C   0  0  0  0  0  0  0  0  0  0  0  0
    6.2804   -3.0511    0.0000 C   0  0  0  0  0  0  0  0  0  0  0  0
    6.9948   -3.4636    0.0000 Cl  0  0  0  0  0  0  0  0  0  0  0  0
    5.5659   -3.4636    0.0000 C   0  0  0  0  0  0  0  0  0  0  0  0
    4.8514   -3.0511    0.0000 C   0  0  0  0  0  0  0  0  0  0  0  0
    4.0668   -3.3060    0.0000 N   0  0  0  0  0  0  0  0  0  0  0  0
    2.7569   -1.2096    0.0000 O   0  0  0  0  0  0  0  0  0  0  0  0
  2  1  1  0  0  0  0
  2  3  1  0  0  0  0
  3  4  1  0  0  0  0
  3  5  1  0  0  0  0
  3  6  1  0  0  0  0
  7  2  2  0  0  0  0
  8  7  1  0  0  0  0
  8  9  1  0  0  0  0
  9 10  1  0  0  0  0
  9 11  1  0  0  0  0
  9 12  1  0  0  0  0
 13  8  2  0  0  0  0
 14 13  1  0  0  0  0
  1 14  2  0  0  0  0
 14 15  1  0  0  0  0
 16 15  1  0  0  0  0
 17 16  2  0  0  0  0
 17 18  1  0  0  0  0
 18 19  2  0  0  0  0
 19 20  1  0  0  0  0
 20 21  1  0  0  0  0
 20 22  2  0  0  0  0
 22 23  1  0  0  0  0
 23 17  1  0  0  0  0
 24 23  2  0  0  0  0
 15 24  1  0  0  0  0
  1 25  1  0  0  0  0
M  END
> <ChemID>
100513

> <CAS>
3864-99-1

> <Original_SMILES>
CC(C)(C)c1cc(cc(c1O)-[n]1[n]c2ccc(Cl)cc2[n]1)C(C)(C)C

> <preferred_name>
Phenol, 2-(5-chloro-2H-benzotriazol-2-yl)-4,6-bis(1,1-dimethylethyl)-

> <dsstox_substance_id>
DTXSID4038893

> <dsstox_compound_id>
DTXCID2018893

> <qc_level>
DSSTox_Low

> <Canonical_QSARr>
CC(C)(C)C1C=C(C(O)=C(C=1)N1N=C2C=CC(Cl)=CC2=N1)C(C)(C)C

> <InChI_Code_QSARr>
InChI=1S/C20H24ClN3O/c1-19(2,3)12-9-14(20(4,5)6)18(25)17(10-12)24-22-15-8-7-13(21)11-16(15)23-24/h7-11,25H,1-6H3

> <InChI Key_QSARr>
UWSMKYBKUPAEJQ-UHFFFAOYSA-N

> <Salt_Solvent>


> <Salt_Solvent_ID>
0

> <MPID>
98434

> <LogBCF>
3.57

> <Tr_1_Tst_0>
0

$$$$
100515
  Mrv171c012241911322D          

 17 17  0  0  0  0            999 V2000
    2.6156   -1.0137    0.0000 C   0  0  0  0  0  0  0  0  0  0  0  0
    1.9011   -0.6012    0.0000 C   0  0  0  0  0  0  0  0  0  0  0  0
    1.9011    0.2238    0.0000 C   0  0  0  0  0  0  0  0  0  0  0  0
    1.9011    1.0488    0.0000 C   0  0  0  0  0  0  0  0  0  0  0  0
    1.0761    0.2238    0.0000 C   0  0  0  0  0  0  0  0  0  0  0  0
    2.7261    0.2238    0.0000 C   0  0  0  0  0  0  0  0  0  0  0  0
    1.1867   -1.0137    0.0000 C   0  0  0  0  0  0  0  0  0  0  0  0
    1.1867   -1.8387    0.0000 C   0  0  0  0  0  0  0  0  0  0  0  0
    0.4722   -2.2512    0.0000 C   0  0  0  0  0  0  0  0  0  0  0  0
    0.4722   -3.0762    0.0000 C   0  0  0  0  0  0  0  0  0  0  0  0
    1.9011   -2.2512    0.0000 C   0  0  0  0  0  0  0  0  0  0  0  0
    2.6156   -1.8387    0.0000 C   0  0  0  0  0  0  0  0  0  0  0  0
    3.3301   -2.2512    0.0000 C   0  0  0  0  0  0  0  0  0  0  0  0
    4.0445   -2.6637    0.0000 C   0  0  0  0  0  0  0  0  0  0  0  0
    3.7426   -1.5367    0.0000 C   0  0  0  0  0  0  0  0  0  0  0  0
    2.9176   -2.9657    0.0000 C   0  0  0  0  0  0  0  0  0  0  0  0
    3.3301   -0.6012    0.0000 O   0  0  0  0  0  0  0  0  0  0  0  0
  2  1  1  0  0  0  0
  2  3  1  0  0  0  0
  3  4  1  0  0  0  0
  3  5  1  0  0  0  0
  3  6  1  0  0  0  0
  7  2  2  0  0  0  0
  8  7  1  0  0  0  0
  8  9  1  0  0  0  0
  9 10  1  0  0  0  0
 11  8  2  0  0  0  0
 12 11  1  0  0  0  0
  1 12  2  0  0  0  0
 12 13  1  0  0  0  0
 13 14  1  0  0  0  0
 13 15  1  0  0  0  0
 13 16  1  0  0  0  0
  1 17  1  0  0  0  0
M  END
> <ChemID>
100515

> <CAS>
4130-42-1

> <Original_SMILES>
CCc1cc(c(O)c(c1)C(C)(C)C)C(C)(C)C

> <preferred_name>
2,6-Di-tert-butyl-4-ethylphenol

> <dsstox_substance_id>
DTXSID0029262

> <dsstox_compound_id>
DTXCID909262

> <qc_level>
DSSTox_Low

> <Canonical_QSARr>
CCC1=CC(=C(O)C(=C1)C(C)(C)C)C(C)(C)C

> <InChI_Code_QSARr>
InChI=1S/C16H26O/c1-8-11-9-12(15(2,3)4)14(17)13(10-11)16(5,6)7/h9-10,17H,8H2,1-7H3

> <InChI Key_QSARr>
BVUXDWXKPROUDO-UHFFFAOYSA-N

> <Salt_Solvent>


> <Salt_Solvent_ID>
0

> <MPID>
98435

> <LogBCF>
3.46

> <Tr_1_Tst_0>
1

$$$$
100516
  Mrv171c012241911322D          

 16 15  0  0  0  0            999 V2000
    3.3973    0.6451    0.0000 C   0  0  0  0  0  0  0  0  0  0  0  0
    2.9848    1.3595    0.0000 C   0  0  0  0  0  0  0  0  0  0  0  0
    2.5723    2.0740    0.0000 C   0  0  0  0  0  0  0  0  0  0  0  0
    2.2704    0.9470    0.0000 C   0  0  0  0  0  0  0  0  0  0  0  0
    3.6993    1.7720    0.0000 C   0  0  0  0  0  0  0  0  0  0  0  0
    2.9848   -0.0694    0.0000 C   0  0  0  0  0  0  0  0  0  0  0  0
    3.3973   -0.7839    0.0000 C   0  0  0  0  0  0  0  0  0  0  0  0
    2.9848   -1.4984    0.0000 C   0  0  0  0  0  0  0  0  0  0  0  0
    2.2704   -1.0859    0.0000 C   0  0  0  0  0  0  0  0  0  0  0  0
    3.6993   -1.9109    0.0000 C   0  0  0  0  0  0  0  0  0  0  0  0
    2.5723   -2.2128    0.0000 C   0  0  0  0  0  0  0  0  0  0  0  0
    2.9848   -2.9273    0.0000 C   0  0  0  0  0  0  0  0  0  0  0  0
    3.3973   -3.6418    0.0000 C   0  0  0  0  0  0  0  0  0  0  0  0
    2.2704   -3.3398    0.0000 C   0  0  0  0  0  0  0  0  0  0  0  0
    3.6993   -2.5148    0.0000 C   0  0  0  0  0  0  0  0  0  0  0  0
    2.1598   -0.0694    0.0000 C   0  0  0  0  0  0  0  0  0  0  0  0
  1  2  1  0  0  0  0
  2  3  1  0  0  0  0
  2  4  1  0  0  0  0
  2  5  1  0  0  0  0
  1  6  1  0  0  0  0
  6  7  1  0  0  0  0
  7  8  1  0  0  0  0
  8  9  1  0  0  0  0
  8 10  1  0  0  0  0
  8 11  1  0  0  0  0
 11 12  1  0  0  0  0
 12 13  1  0  0  0  0
 12 14  1  0  0  0  0
 12 15  1  0  0  0  0
  6 16  1  0  0  0  0
M  END
> <ChemID>
100516

> <CAS>
4390-04-9

> <Original_SMILES>
CC(CC(C)(C)C)CC(C)(C)CC(C)(C)C

> <preferred_name>
2,2,4,4,6,8,8-Heptamethylnonane

> <dsstox_substance_id>
DTXSID7052101

> <dsstox_compound_id>
DTXCID5030668

> <qc_level>
DSSTox_High

> <Canonical_QSARr>
CC(CC(C)(C)C)CC(C)(C)CC(C)(C)C

> <InChI_Code_QSARr>
InChI=1S/C16H34/c1-13(10-14(2,3)4)11-16(8,9)12-15(5,6)7/h13H,10-12H2,1-9H3

> <InChI Key_QSARr>
VCLJODPNBNEBKW-UHFFFAOYSA-N

> <Salt_Solvent>


> <Salt_Solvent_ID>
0

> <MPID>
98436

> <LogBCF>
3.82

> <Tr_1_Tst_0>
1

$$$$
100517
  Mrv171c012241911322D          

 19 21  0  0  0  0            999 V2000
    5.1848    0.6405    0.0000 O   0  0  0  0  0  0  0  0  0  0  0  0
    4.4703    0.2280    0.0000 C   0  0  0  0  0  0  0  0  0  0  0  0
    3.7558    0.6405    0.0000 C   0  0  0  0  0  0  0  0  0  0  0  0
    3.7558    1.4655    0.0000 C   0  0  0  0  0  0  0  0  0  0  0  0
    4.4703    1.8780    0.0000 C   0  0  0  0  0  0  0  0  0  0  0  0
    4.4703    2.7030    0.0000 C   0  0  0  0  0  0  0  0  0  0  0  0
    3.7558    3.1155    0.0000 C   0  0  0  0  0  0  0  0  0  0  0  0
    3.0414    2.7030    0.0000 C   0  0  0  0  0  0  0  0  0  0  0  0
    3.0414    1.8780    0.0000 C   0  0  0  0  0  0  0  0  0  0  0  0
    3.0414    0.2280    0.0000 C   0  0  0  0  0  0  0  0  0  0  0  0
    3.0414   -0.5970    0.0000 C   0  0  0  0  0  0  0  0  0  0  0  0
    3.7558   -1.0095    0.0000 C   0  0  0  0  0  0  0  0  0  0  0  0
    4.4703   -0.5970    0.0000 C   0  0  0  0  0  0  0  0  0  0  0  0
    5.1848   -1.0095    0.0000 C   0  0  0  0  0  0  0  0  0  0  0  0
    5.1848   -1.8345    0.0000 C   0  0  0  0  0  0  0  0  0  0  0  0
    5.8993   -2.2470    0.0000 C   0  0  0  0  0  0  0  0  0  0  0  0
    6.6137   -1.8345    0.0000 C   0  0  0  0  0  0  0  0  0  0  0  0
    6.6137   -1.0095    0.0000 C   0  0  0  0  0  0  0  0  0  0  0  0
    5.8993   -0.5970    0.0000 C   0  0  0  0  0  0  0  0  0  0  0  0
  1  2  1  0  0  0  0
  3  2  1  0  0  0  0
  3  4  1  0  0  0  0
  5  4  1  0  0  0  0
  6  5  1  0  0  0  0
  7  6  1  0  0  0  0
  8  7  1  0  0  0  0
  9  8  1  0  0  0  0
  4  9  1  0  0  0  0
 10  3  2  0  0  0  0
 11 10  1  0  0  0  0
 12 11  2  0  0  0  0
 13 12  1  0  0  0  0
  2 13  2  0  0  0  0
 13 14  1  0  0  0  0
 15 14  1  0  0  0  0
 16 15  1  0  0  0  0
 17 16  1  0  0  0  0
 18 17  1  0  0  0  0
 19 18  1  0  0  0  0
 14 19  1  0  0  0  0
M  END
> <ChemID>
100517

> <CAS>
4821-19-6

> <Original_SMILES>
Oc1c(cccc1C1CCCCC1)C1CCCCC1

> <preferred_name>
2,6-Dicyclohexylphenol

> <dsstox_substance_id>
DTXSID60197465

> <dsstox_compound_id>
DTXCID70119956

> <qc_level>
Public_Medium

> <Canonical_QSARr>
OC1C(=CC=CC=1C1CCCCC1)C1CCCCC1

> <InChI_Code_QSARr>
InChI=1S/C18H26O/c19-18-16(14-8-3-1-4-9-14)12-7-13-17(18)15-10-5-2-6-11-15/h7,12-15,19H,1-6,8-11H2

> <InChI Key_QSARr>
AUEZNTKYSSUTGZ-UHFFFAOYSA-N

> <Salt_Solvent>


> <Salt_Solvent_ID>
0

> <MPID>
98437

> <LogBCF>
3.02

> <Tr_1_Tst_0>
1

$$$$
100519
  Mrv171c012241911322D          

 12 12  0  0  0  0            999 V2000
    1.4289    0.8250    0.0000 C   0  0  0  0  0  0  0  0  0  0  0  0
    2.1434    1.2375    0.0000 C   0  0  0  0  0  0  0  0  0  0  0  0
    2.8579    0.8250    0.0000 C   0  0  0  0  0  0  0  0  0  0  0  0
    2.8579   -0.0000    0.0000 C   0  0  0  0  0  0  0  0  0  0  0  0
    2.1434   -0.4125    0.0000 C   0  0  0  0  0  0  0  0  0  0  0  0
    2.1434   -1.2375    0.0000 C   0  0  0  0  0  0  0  0  0  0  0  0
    1.4289   -1.6500    0.0000 C   0  0  0  0  0  0  0  0  0  0  0  0
    0.7145   -1.2375    0.0000 C   0  0  0  0  0  0  0  0  0  0  0  0
    0.7145   -0.4125    0.0000 C   0  0  0  0  0  0  0  0  0  0  0  0
   -0.0000    0.0000    0.0000 C   0  0  0  0  0  0  0  0  0  0  0  0
   -0.0000    0.8250    0.0000 C   0  0  0  0  0  0  0  0  0  0  0  0
    0.7145    1.2375    0.0000 C   0  0  0  0  0  0  0  0  0  0  0  0
  1  2  1  0  0  0  0
  3  2  1  4  0  0  0
  3  4  2  0  0  0  0
  4  5  1  0  0  0  0
  5  6  1  0  0  0  0
  7  6  1  4  0  0  0
  7  8  2  0  0  0  0
  8  9  1  0  0  0  0
  9 10  1  0  0  0  0
 11 10  1  4  0  0  0
 11 12  2  0  0  0  0
  1 12  1  0  0  0  0
M  END
> <ChemID>
100519

> <CAS>
4904-61-4

> <Original_SMILES>
C1CC=CCCC=CCCC=C1

> <preferred_name>
1,5,9-Cyclododecatriene

> <dsstox_substance_id>
DTXSID8027581

> <dsstox_compound_id>
DTXCID5065308

> <qc_level>
DSSTox_Low

> <Canonical_QSARr>
C1CC=CCCC=CCCC=C1

> <InChI_Code_QSARr>
InChI=1S/C12H18/c1-2-4-6-8-10-12-11-9-7-5-3-1/h1-2,7-10H,3-6,11-12H2/b2-1+,9-7+,10-8+

> <InChI Key_QSARr>
ZOLLIQAKMYWTBR-FFWAUJBHSA-N

> <Salt_Solvent>


> <Salt_Solvent_ID>
0

> <MPID>
98438

> <LogBCF>
3.92

> <Tr_1_Tst_0>
0

$$$$
100521
  Mrv171c012241911322D          

 26 28  0  0  0  0            999 V2000
    4.3229   -4.4937    0.0000 C   0  0  0  0  0  0  0  0  0  0  0  0
    3.6085   -4.0812    0.0000 N   0  0  0  0  0  0  0  0  0  0  0  0
    3.6085   -3.2562    0.0000 S   0  0  0  0  0  0  0  0  0  0  0  0
    3.6085   -2.4312    0.0000 C   0  0  0  0  0  0  0  0  0  0  0  0
    2.8940   -2.0187    0.0000 C   0  0  0  0  0  0  0  0  0  0  0  0
    2.8940   -1.1937    0.0000 C   0  0  0  0  0  0  0  0  0  0  0  0
    3.6085   -0.7812    0.0000 C   0  0  0  0  0  0  0  0  0  0  0  0
    3.6085    0.0438    0.0000 N   0  0  0  0  0  0  0  0  0  0  0  0
    2.8940    0.4563    0.0000 C   0  0  0  0  0  0  0  0  0  0  0  0
    2.8940    1.2813    0.0000 C   0  0  0  0  0  0  0  0  0  0  0  0
    2.1795    1.6938    0.0000 C   0  0  0  0  0  0  0  0  0  0  0  0
    1.4650    1.2813    0.0000 C   0  0  0  0  0  0  0  0  0  0  0  0
    1.4650    0.4563    0.0000 C   0  0  0  0  0  0  0  0  0  0  0  0
    2.1795    0.0438    0.0000 C   0  0  0  0  0  0  0  0  0  0  0  0
    4.3229   -1.1937    0.0000 C   0  0  0  0  0  0  0  0  0  0  0  0
    5.0374   -0.7812    0.0000 N   0  3  0  0  0  0  0  0  0  0  0  0
    5.7519   -1.1937    0.0000 O   0  0  0  0  0  0  0  0  0  0  0  0
    5.0374    0.0438    0.0000 O   0  5  0  0  0  0  0  0  0  0  0  0
    4.3229   -2.0187    0.0000 C   0  0  0  0  0  0  0  0  0  0  0  0
    2.7835   -3.2562    0.0000 O   0  0  0  0  0  0  0  0  0  0  0  0
    4.4335   -3.2562    0.0000 O   0  0  0  0  0  0  0  0  0  0  0  0
    4.3229   -5.3187    0.0000 C   0  0  0  0  0  0  0  0  0  0  0  0
    5.0374   -5.7312    0.0000 C   0  0  0  0  0  0  0  0  0  0  0  0
    5.7519   -5.3187    0.0000 C   0  0  0  0  0  0  0  0  0  0  0  0
    5.7519   -4.4937    0.0000 C   0  0  0  0  0  0  0  0  0  0  0  0
    5.0374   -4.0812    0.0000 C   0  0  0  0  0  0  0  0  0  0  0  0
  1  2  1  0  0  0  0
  2  3  1  0  0  0  0
  3  4  1  0  0  0  0
  5  4  2  0  0  0  0
  6  5  1  0  0  0  0
  7  6  2  0  0  0  0
  7  8  1  0  0  0  0
  8  9  1  0  0  0  0
 10  9  2  0  0  0  0
 11 10  1  0  0  0  0
 12 11  2  0  0  0  0
 13 12  1  0  0  0  0
 14 13  2  0  0  0  0
  9 14  1  0  0  0  0
 15  7  1  0  0  0  0
 15 16  1  0  0  0  0
 16 17  2  0  0  0  0
 16 18  1  0  0  0  0
 19 15  2  0  0  0  0
  4 19  1  0  0  0  0
  3 20  2  0  0  0  0
  3 21  2  0  0  0  0
 22  1  2  0  0  0  0
 23 22  1  0  0  0  0
 24 23  2  0  0  0  0
 25 24  1  0  0  0  0
 26 25  2  0  0  0  0
  1 26  1  0  0  0  0
M  CHG  2  16   1  18  -1
M  END
> <ChemID>
100521

> <CAS>
5124-25-4

> <Original_SMILES>
[O-][N+](=O)c1cc(ccc1Nc1ccccc1)S(=O)(=O)Nc1ccccc1

> <preferred_name>
C.I.Disperse Yellow 42

> <dsstox_substance_id>
DTXSID8052148

> <dsstox_compound_id>
DTXCID3030717

> <qc_level>
DSSTox_Low

> <Canonical_QSARr>
[O-][N+](=O)C1=CC(=CC=C1NC1C=CC=CC=1)S(=O)(=O)NC1C=CC=CC=1

> <InChI_Code_QSARr>
InChI=1S/C18H15N3O4S/c22-21(23)18-13-16(26(24,25)20-15-9-5-2-6-10-15)11-12-17(18)19-14-7-3-1-4-8-14/h1-13,19-20H

> <InChI Key_QSARr>
BBFRYSKTTHYWQZ-UHFFFAOYSA-N

> <Salt_Solvent>


> <Salt_Solvent_ID>
0

> <MPID>
98440

> <LogBCF>
1.61

> <Tr_1_Tst_0>
1

$$$$
100523
  Mrv171c012241911322D          

 11 11  0  0  0  0            999 V2000
    1.6887   -0.9000    0.0000 O   0  0  0  0  0  0  0  0  0  0  0  0
    1.6887   -0.0750    0.0000 N   0  3  0  0  0  0  0  0  0  0  0  0
    0.9743    0.3375    0.0000 C   0  0  0  0  0  0  0  0  0  0  0  0
    0.9743    1.1625    0.0000 C   0  0  0  0  0  0  0  0  0  0  0  0
    0.2598    1.5750    0.0000 C   0  0  0  0  0  0  0  0  0  0  0  0
    0.2598    2.4000    0.0000 O   0  0  0  0  0  0  0  0  0  0  0  0
   -0.4547    1.1625    0.0000 C   0  0  0  0  0  0  0  0  0  0  0  0
   -1.1691    1.5750    0.0000 C   0  0  0  0  0  0  0  0  0  0  0  0
   -0.4547    0.3375    0.0000 C   0  0  0  0  0  0  0  0  0  0  0  0
    0.2598   -0.0750    0.0000 C   0  0  0  0  0  0  0  0  0  0  0  0
    2.4032    0.3375    0.0000 O   0  5  0  0  0  0  0  0  0  0  0  0
  1  2  2  0  0  0  0
  2  3  1  0  0  0  0
  4  3  1  0  0  0  0
  5  4  2  0  0  0  0
  5  6  1  0  0  0  0
  7  5  1  0  0  0  0
  7  8  1  0  0  0  0
  9  7  2  0  0  0  0
 10  9  1  0  0  0  0
  3 10  2  0  0  0  0
  2 11  1  0  0  0  0
M  CHG  2   2   1  11  -1
M  END
> <ChemID>
100523

> <CAS>
5428-54-6

> <Original_SMILES>
Cc1ccc(cc1O)[N+]([O-])=O

> <preferred_name>
Phenol, 2-methyl-5-nitro-

> <dsstox_substance_id>
DTXSID4063874

> <dsstox_compound_id>
DTXCID3041661

> <qc_level>
Public_High

> <Canonical_QSARr>
CC1=CC=C(C=C1O)[N+]([O-])=O

> <InChI_Code_QSARr>
InChI=1S/C7H7NO3/c1-5-2-3-6(8(10)11)4-7(5)9/h2-4,9H,1H3

> <InChI Key_QSARr>
UMFDLIXUUJMPSI-UHFFFAOYSA-N

> <Salt_Solvent>


> <Salt_Solvent_ID>
0

> <MPID>
98441

> <LogBCF>
0.85

> <Tr_1_Tst_0>
1

$$$$
100524
  Mrv171c012241911322D          

 20 21  0  0  0  0            999 V2000
   -2.8579   -0.4125    0.0000 O   0  0  0  0  0  0  0  0  0  0  0  0
   -2.1434   -0.0000    0.0000 S   0  0  0  0  0  0  0  0  0  0  0  0
   -1.4289    0.4125    0.0000 C   0  0  0  0  0  0  0  0  0  0  0  0
   -1.4289    1.2375    0.0000 C   0  0  0  0  0  0  0  0  0  0  0  0
   -0.7145    1.6500    0.0000 C   0  0  0  0  0  0  0  0  0  0  0  0
   -0.7145    2.4750    0.0000 N   0  0  0  0  0  0  0  0  0  0  0  0
    0.0000    1.2375    0.0000 C   0  0  0  0  0  0  0  0  0  0  0  0
    0.7145    1.6500    0.0000 C   0  0  0  0  0  0  0  0  0  0  0  0
    1.4289    1.2375    0.0000 C   0  0  0  0  0  0  0  0  0  0  0  0
    1.4289    0.4125    0.0000 C   0  0  0  0  0  0  0  0  0  0  0  0
    0.7145    0.0000    0.0000 C   0  0  0  0  0  0  0  0  0  0  0  0
    0.0000    0.4125    0.0000 C   0  0  0  0  0  0  0  0  0  0  0  0
   -0.7145    0.0000    0.0000 C   0  0  0  0  0  0  0  0  0  0  0  0
    2.1434   -0.0000    0.0000 S   0  0  0  0  0  0  0  0  0  0  0  0
    2.8579   -0.4125    0.0000 O   0  0  0  0  0  0  0  0  0  0  0  0
    1.7309   -0.7145    0.0000 O   0  0  0  0  0  0  0  0  0  0  0  0
    2.5559    0.7145    0.0000 O   0  0  0  0  0  0  0  0  0  0  0  0
    0.7145    2.4750    0.0000 O   0  0  0  0  0  0  0  0  0  0  0  0
   -1.7309   -0.7145    0.0000 O   0  0  0  0  0  0  0  0  0  0  0  0
   -2.5559    0.7145    0.0000 O   0  0  0  0  0  0  0  0  0  0  0  0
  1  2  1  0  0  0  0
  2  3  1  0  0  0  0
  4  3  2  0  0  0  0
  5  4  1  0  0  0  0
  5  6  1  0  0  0  0
  7  5  2  0  0  0  0
  7  8  1  0  0  0  0
  8  9  2  0  0  0  0
  9 10  1  0  0  0  0
 10 11  2  0  0  0  0
 11 12  1  0  0  0  0
 12  7  1  0  0  0  0
 13 12  2  0  0  0  0
  3 13  1  0  0  0  0
 10 14  1  0  0  0  0
 14 15  2  0  0  0  0
 14 16  1  0  0  0  0
 14 17  2  0  0  0  0
  8 18  1  0  0  0  0
  2 19  2  0  0  0  0
  2 20  2  0  0  0  0
M  END
> <ChemID>
100524

> <CAS>
5460-09-3

> <Original_SMILES>
[Na+].Nc1cc(cc2cc(cc(O)c21)S(O)(=O)=O)S([O-])(=O)=O

> <preferred_name>
4-Amino-5-hydroxy-2,7-naphthalenedisulfonic acid monosodium salt

> <dsstox_substance_id>
DTXSID4027600

> <dsstox_compound_id>
DTXCID907600

> <qc_level>
DSSTox_High

> <Canonical_QSARr>
NC1C=C(C=C2C=C(C=C(O)C2=1)S(O)(=O)=O)S(O)(=O)=O

> <InChI_Code_QSARr>
InChI=1S/C10H9NO7S2/c11-8-3-6(19(13,14)15)1-5-2-7(20(16,17)18)4-9(12)10(5)8/h1-4,12H,11H2,(H,13,14,15)(H,16,17,18)

> <InChI Key_QSARr>
APRRQJCCBSJQOQ-UHFFFAOYSA-N

> <Salt_Solvent>
[Na+]

> <Salt_Solvent_ID>
110

> <MPID>
98442

> <LogBCF>
0.46

> <Tr_1_Tst_0>
0

$$$$
100525
  Mrv171c012241911322D          

 15 15  0  0  0  0            999 V2000
    3.0517   -0.9337    0.0000 C   0  0  0  0  0  0  0  0  0  0  0  0
    2.3372   -0.5212    0.0000 C   0  0  0  0  0  0  0  0  0  0  0  0
    2.3372    0.3038    0.0000 C   0  0  0  0  0  0  0  0  0  0  0  0
    3.0517    0.7163    0.0000 C   0  0  0  0  0  0  0  0  0  0  0  0
    1.6227    0.7163    0.0000 C   0  0  0  0  0  0  0  0  0  0  0  0
    1.6227    1.5413    0.0000 C   0  0  0  0  0  0  0  0  0  0  0  0
    1.6227   -0.9337    0.0000 C   0  0  0  0  0  0  0  0  0  0  0  0
    1.6227   -1.7587    0.0000 C   0  0  0  0  0  0  0  0  0  0  0  0
    2.3372   -2.1712    0.0000 C   0  0  0  0  0  0  0  0  0  0  0  0
    3.0517   -1.7587    0.0000 C   0  0  0  0  0  0  0  0  0  0  0  0
    3.7661   -2.1712    0.0000 C   0  0  0  0  0  0  0  0  0  0  0  0
    4.4806   -1.7587    0.0000 C   0  0  0  0  0  0  0  0  0  0  0  0
    3.7661   -2.9962    0.0000 C   0  0  0  0  0  0  0  0  0  0  0  0
    4.4806   -3.4087    0.0000 C   0  0  0  0  0  0  0  0  0  0  0  0
    3.7661   -0.5212    0.0000 O   0  0  0  0  0  0  0  0  0  0  0  0
  2  1  1  0  0  0  0
  2  3  1  0  0  0  0
  3  4  1  0  0  0  0
  3  5  1  0  0  0  0
  5  6  1  0  0  0  0
  7  2  2  0  0  0  0
  8  7  1  0  0  0  0
  9  8  2  0  0  0  0
 10  9  1  0  0  0  0
  1 10  2  0  0  0  0
 10 11  1  0  0  0  0
 11 12  1  0  0  0  0
 11 13  1  0  0  0  0
 13 14  1  0  0  0  0
  1 15  1  0  0  0  0
M  END
> <ChemID>
100525

> <CAS>
5510-99-6

> <Original_SMILES>
CC(CC)c1cccc(C(C)CC)c1O

> <preferred_name>
2,6-Di(butan-2-yl)phenol

> <dsstox_substance_id>
DTXSID0044440

> <dsstox_compound_id>
DTXCID8024440

> <qc_level>
DSSTox_Low

> <Canonical_QSARr>
CC(CC)C1=CC=CC(C(C)CC)=C1O

> <InChI_Code_QSARr>
InChI=1S/C14H22O/c1-5-10(3)12-8-7-9-13(14(12)15)11(4)6-2/h7-11,15H,5-6H2,1-4H3

> <InChI Key_QSARr>
FHTGJZOULSYEOB-UHFFFAOYSA-N

> <Salt_Solvent>


> <Salt_Solvent_ID>
0

> <MPID>
98443

> <LogBCF>
2.39

> <Tr_1_Tst_0>
1

$$$$
100526
  Mrv171c012241911322D          

 18 20  0  0  0  0            999 V2000
    1.4064    0.9634    0.0000 C   0  0  0  0  0  0  0  0  0  0  0  0
    1.8859    0.2921    0.0000 C   0  0  0  0  0  0  0  0  0  0  0  0
    2.6495    0.7421    0.0000 Cl  0  0  0  0  0  0  0  0  0  0  0  0
    2.6129   -0.2075    0.0000 Cl  0  0  0  0  0  0  0  0  0  0  0  0
    1.3955   -0.3714    0.0000 C   0  0  0  0  0  0  0  0  0  0  0  0
    0.5005   -0.0790    0.0000 C   0  0  0  0  0  0  0  0  0  0  0  0
    0.5073    0.7460    0.0000 C   0  0  0  0  0  0  0  0  0  0  0  0
   -0.0914    1.1332    0.0000 C   0  0  0  0  0  0  0  0  0  0  0  0
   -0.8092    0.7265    0.0000 C   0  0  0  0  0  0  0  0  0  0  0  0
   -1.5622    1.1457    0.0000 Cl  0  0  0  0  0  0  0  0  0  0  0  0
   -0.8159   -0.0984    0.0000 C   0  0  0  0  0  0  0  0  0  0  0  0
   -1.5785   -0.5041    0.0000 Cl  0  0  0  0  0  0  0  0  0  0  0  0
   -0.1048   -0.5167    0.0000 C   0  0  0  0  0  0  0  0  0  0  0  0
   -0.3125   -1.3673    0.0000 Cl  0  0  0  0  0  0  0  0  0  0  0  0
    0.1082    0.3066    0.0000 C   0  0  0  0  0  0  0  0  0  0  0  0
    0.7249   -0.5866    0.0000 Cl  0  0  0  0  0  0  0  0  0  0  0  0
    1.0534    0.6543    0.0000 Cl  0  0  0  0  0  0  0  0  0  0  0  0
   -0.2559    1.9829    0.0000 Cl  0  0  0  0  0  0  0  0  0  0  0  0
  2  1  1  0  0  0  0
  2  3  1  0  0  0  0
  2  4  1  0  0  0  0
  5  2  1  0  0  0  0
  6  5  1  0  0  0  0
  6  7  1  0  0  0  0
  1  7  1  0  0  0  0
  7  8  1  0  0  0  0
  9  8  1  0  0  0  0
  9 10  1  0  0  0  0
 11  9  2  0  0  0  0
 11 12  1  0  0  0  0
 13 11  1  0  0  0  0
 13  6  1  0  0  0  0
 13 14  1  0  0  0  0
 15 13  1  0  0  0  0
  8 15  1  0  0  0  0
 15 16  1  0  0  0  0
 15 17  1  0  0  0  0
  8 18  1  0  0  0  0
M  END
> <ChemID>
100526

> <CAS>
5566-34-7

> <Original_SMILES>
ClC1(Cl)CC2C(C1)C1(Cl)C(Cl)=C(Cl)C2(Cl)C1(Cl)Cl

> <preferred_name>
2,2,4,5,6,7,8,8-Octachloro-2,3,3a,4,7,7a-hexahydro-4,7-methano-1H-indene

> <dsstox_substance_id>
DTXSID10858938

> <dsstox_compound_id>
DTXCID10811528

> <qc_level>
DSSTox_Low

> <Canonical_QSARr>
ClC1(Cl)CC2C(C1)C1(Cl)C(Cl)=C(Cl)C2(Cl)C1(Cl)Cl

> <InChI_Code_QSARr>
InChI=1S/C10H6Cl8/c11-5-6(12)9(16)4-2-7(13,14)1-3(4)8(5,15)10(9,17)18/h3-4H,1-2H2

> <InChI Key_QSARr>
JBZJEPYXXVKOKF-UHFFFAOYSA-N

> <Salt_Solvent>


> <Salt_Solvent_ID>
0

> <MPID>
98444

> <LogBCF>
4.3

> <Tr_1_Tst_0>
0

$$$$
100527
  Mrv171c012241911322D          

 14 15  0  0  0  0            999 V2000
    0.7145    2.0626    0.0000 C   0  0  0  0  0  0  0  0  0  0  0  0
    1.4290    2.4751    0.0000 C   0  0  0  0  0  0  0  0  0  0  0  0
    1.4290    3.3001    0.0000 C   0  0  0  0  0  0  0  0  0  0  0  0
    0.7145    3.7126    0.0000 C   0  0  0  0  0  0  0  0  0  0  0  0
    0.7145    4.5376    0.0000 C   0  0  0  0  0  0  0  0  0  0  0  0
    0.0000    4.9501    0.0000 C   0  0  0  0  0  0  0  0  0  0  0  0
    0.0000    3.3001    0.0000 C   0  0  0  0  0  0  0  0  0  0  0  0
    0.0000    2.4751    0.0000 C   0  0  0  0  0  0  0  0  0  0  0  0
    0.7145    1.2376    0.0000 C   0  0  0  0  0  0  0  0  0  0  0  0
    0.0000    0.8251    0.0000 C   0  0  0  0  0  0  0  0  0  0  0  0
    0.0000    0.0001    0.0000 C   0  0  0  0  0  0  0  0  0  0  0  0
    0.7145   -0.4124    0.0000 C   0  0  0  0  0  0  0  0  0  0  0  0
    1.4290    0.0001    0.0000 C   0  0  0  0  0  0  0  0  0  0  0  0
    1.4290    0.8251    0.0000 C   0  0  0  0  0  0  0  0  0  0  0  0
  2  1  1  0  0  0  0
  3  2  2  0  0  0  0
  4  3  1  0  0  0  0
  4  5  1  0  0  0  0
  5  6  1  0  0  0  0
  7  4  2  0  0  0  0
  8  7  1  0  0  0  0
  1  8  2  0  0  0  0
  1  9  1  0  0  0  0
 10  9  1  0  0  0  0
 11 10  2  0  0  0  0
 12 11  1  0  0  0  0
 13 12  2  0  0  0  0
 14 13  1  0  0  0  0
  9 14  2  0  0  0  0
M  END
> <ChemID>
100527

> <CAS>
5707-44-8

> <Original_SMILES>
CCc1ccc(cc1)-c1ccccc1

> <preferred_name>
1,1'-Biphenyl, 4-ethyl-

> <dsstox_substance_id>
DTXSID7073355

> <dsstox_compound_id>
DTXCID0042163

> <qc_level>
Public_High

> <Canonical_QSARr>
CCC1C=CC(=CC=1)C1C=CC=CC=1

> <InChI_Code_QSARr>
InChI=1S/C14H14/c1-2-12-8-10-14(11-9-12)13-6-4-3-5-7-13/h3-11H,2H2,1H3

> <InChI Key_QSARr>
SRQOBNUBCLPPPH-UHFFFAOYSA-N

> <Salt_Solvent>


> <Salt_Solvent_ID>
0

> <MPID>
98445

> <LogBCF>
2.82

> <Tr_1_Tst_0>
1

$$$$
100528
  Mrv171c012241911322D          

 22 24  0  0  0  0            999 V2000
    2.4574   -1.7353    0.0000 C   0  0  0  0  0  0  0  0  0  0  0  0
    2.0449   -1.0208    0.0000 C   0  0  0  0  0  0  0  0  0  0  0  0
    2.8699   -1.0208    0.0000 C   0  0  0  0  0  0  0  0  0  0  0  0
    3.6949   -1.0208    0.0000 C   0  0  0  0  0  0  0  0  0  0  0  0
    4.1074   -1.7353    0.0000 C   0  0  0  0  0  0  0  0  0  0  0  0
    3.6949   -2.4497    0.0000 C   0  0  0  0  0  0  0  0  0  0  0  0
    4.4701   -2.7319    0.0000 C   0  0  0  0  0  0  0  0  0  0  0  0
    3.5516   -3.2622    0.0000 C   0  0  0  0  0  0  0  0  0  0  0  0
    2.7764   -3.5444    0.0000 O   0  0  0  0  0  0  0  0  0  0  0  0
    4.1836   -3.7925    0.0000 O   0  0  0  0  0  0  0  0  0  0  0  0
    2.8699   -2.4497    0.0000 C   0  0  0  0  0  0  0  0  0  0  0  0
    2.4574   -3.1642    0.0000 C   0  0  0  0  0  0  0  0  0  0  0  0
    1.6324   -3.1642    0.0000 C   0  0  0  0  0  0  0  0  0  0  0  0
    1.2199   -2.4497    0.0000 C   0  0  0  0  0  0  0  0  0  0  0  0
    0.3949   -2.4497    0.0000 C   0  0  0  0  0  0  0  0  0  0  0  0
   -0.0176   -1.7353    0.0000 C   0  0  0  0  0  0  0  0  0  0  0  0
   -0.6496   -2.2656    0.0000 C   0  0  0  0  0  0  0  0  0  0  0  0
   -0.5063   -3.0780    0.0000 C   0  0  0  0  0  0  0  0  0  0  0  0
   -0.6496   -1.2050    0.0000 C   0  0  0  0  0  0  0  0  0  0  0  0
    0.3949   -1.0208    0.0000 C   0  0  0  0  0  0  0  0  0  0  0  0
    1.2199   -1.0208    0.0000 C   0  0  0  0  0  0  0  0  0  0  0  0
    1.6324   -1.7353    0.0000 C   0  0  0  0  0  0  0  0  0  0  0  0
  1  2  1  0  0  0  0
  3  1  1  0  0  0  0
  4  3  1  0  0  0  0
  5  4  1  0  0  0  0
  6  5  1  0  0  0  0
  6  7  1  0  0  0  0
  6  8  1  0  0  0  0
  8  9  1  0  0  0  0
  8 10  2  0  0  0  0
 11  6  1  0  0  0  0
 11  1  1  0  0  0  0
 12 11  1  0  0  0  0
 13 12  1  0  0  0  0
 14 13  2  0  0  0  0
 14 15  1  0  0  0  0
 15 16  1  0  0  0  0
 16 17  1  0  0  0  0
 17 18  2  0  0  0  0
 16 19  1  0  0  0  0
 16 20  1  0  0  0  0
 20 21  1  0  0  0  0
 21 22  1  0  0  0  0
  1 22  1  0  0  0  0
 22 14  1  0  0  0  0
M  END
> <ChemID>
100528

> <CAS>
5835-26-7

> <Original_SMILES>
C[C@]1(CCC[C@@]2(C)[C@H]1CC=C1C[C@](C)(CC[C@H]21)C=C)C(O)=O

> <preferred_name>
Isopimaric acid

> <dsstox_substance_id>
DTXSID9022233

> <dsstox_compound_id>
DTXCID702233

> <qc_level>
DSSTox_Low

> <Canonical_QSARr>
CC1(CCCC2(C)C1CC=C1CC(C)(CCC21)C=C)C(O)=O

> <InChI_Code_QSARr>
InChI=1S/C20H30O2/c1-5-18(2)12-9-15-14(13-18)7-8-16-19(15,3)10-6-11-20(16,4)17(21)22/h5,7,15-16H,1,6,8-13H2,2-4H3,(H,21,22)

> <InChI Key_QSARr>
MXYATHGRPJZBNA-UHFFFAOYSA-N

> <Salt_Solvent>


> <Salt_Solvent_ID>
0

> <MPID>
98446

> <LogBCF>
1.63

> <Tr_1_Tst_0>
1

$$$$
100529
  Mrv171c012241911322D          

 15 16  0  0  0  0            999 V2000
    0.2382   -1.1825    0.0000 C   0  0  0  0  0  0  0  0  0  0  0  0
   -0.4763   -0.7700    0.0000 C   0  0  0  0  0  0  0  0  0  0  0  0
   -1.1908   -1.1825    0.0000 C   0  0  0  0  0  0  0  0  0  0  0  0
   -1.1908   -2.0075    0.0000 C   0  0  0  0  0  0  0  0  0  0  0  0
   -0.4763   -2.4200    0.0000 C   0  0  0  0  0  0  0  0  0  0  0  0
    0.2382   -2.0075    0.0000 C   0  0  0  0  0  0  0  0  0  0  0  0
    0.9526   -2.4200    0.0000 C   0  0  0  0  0  0  0  0  0  0  0  0
    0.9526   -3.2450    0.0000 O   0  0  0  0  0  0  0  0  0  0  0  0
    1.6671   -2.0075    0.0000 C   0  0  0  0  0  0  0  0  0  0  0  0
    1.6671   -1.1825    0.0000 C   0  0  0  0  0  0  0  0  0  0  0  0
    0.9526   -0.7700    0.0000 C   0  0  0  0  0  0  0  0  0  0  0  0
    0.9526    0.0550    0.0000 S   0  0  0  0  0  0  0  0  0  0  0  0
    0.9526    0.8800    0.0000 O   0  0  0  0  0  0  0  0  0  0  0  0
    1.7776    0.0550    0.0000 O   0  0  0  0  0  0  0  0  0  0  0  0
    0.1276    0.0550    0.0000 O   0  0  0  0  0  0  0  0  0  0  0  0
  2  1  1  0  0  0  0
  3  2  2  0  0  0  0
  4  3  1  0  0  0  0
  5  4  2  0  0  0  0
  6  5  1  0  0  0  0
  6  1  1  0  0  0  0
  7  6  2  0  0  0  0
  7  8  1  0  0  0  0
  9  7  1  0  0  0  0
 10  9  2  0  0  0  0
 11 10  1  0  0  0  0
  1 11  2  0  0  0  0
 11 12  1  0  0  0  0
 12 13  2  0  0  0  0
 12 14  2  0  0  0  0
 12 15  1  0  0  0  0
M  END
> <ChemID>
100529

> <CAS>
84-87-7

> <Original_SMILES>
Oc1ccc(c2ccccc12)S(O)(=O)=O

> <preferred_name>
1-Naphthalenesulfonic acid, 4-hydroxy-

> <dsstox_substance_id>
DTXSID2058910

> <dsstox_compound_id>
DTXCID6048385

> <qc_level>
Public_High

> <Canonical_QSARr>
OC1C=CC(=C2C=CC=CC=12)S(O)(=O)=O

> <InChI_Code_QSARr>
InChI=1S/C10H8O4S/c11-9-5-6-10(15(12,13)14)8-4-2-1-3-7(8)9/h1-6,11H,(H,12,13,14)

> <InChI Key_QSARr>
HGWQOFDAUWCQDA-UHFFFAOYSA-N

> <Salt_Solvent>


> <Salt_Solvent_ID>
0

> <MPID>
98447

> <LogBCF>
1.11

> <Tr_1_Tst_0>
1

$$$$
100530
  Mrv171c012241911322D          

 11 11  0  0  0  0            999 V2000
    1.2341    0.3375    0.0000 C   0  0  0  0  0  0  0  0  0  0  0  0
    1.9486   -0.0750    0.0000 O   0  0  0  0  0  0  0  0  0  0  0  0
    1.9486   -0.9000    0.0000 C   0  0  0  0  0  0  0  0  0  0  0  0
    1.2341    1.1625    0.0000 C   0  0  0  0  0  0  0  0  0  0  0  0
    0.5196    1.5750    0.0000 C   0  0  0  0  0  0  0  0  0  0  0  0
    0.5196    2.4000    0.0000 Cl  0  0  0  0  0  0  0  0  0  0  0  0
   -0.1949    1.1625    0.0000 C   0  0  0  0  0  0  0  0  0  0  0  0
   -0.9093    1.5750    0.0000 Cl  0  0  0  0  0  0  0  0  0  0  0  0
   -0.1949    0.3375    0.0000 C   0  0  0  0  0  0  0  0  0  0  0  0
    0.5196   -0.0750    0.0000 C   0  0  0  0  0  0  0  0  0  0  0  0
    0.5196   -0.9000    0.0000 Cl  0  0  0  0  0  0  0  0  0  0  0  0
  1  2  1  0  0  0  0
  2  3  1  0  0  0  0
  4  1  1  0  0  0  0
  5  4  2  0  0  0  0
  5  6  1  0  0  0  0
  7  5  1  0  0  0  0
  7  8  1  0  0  0  0
  9  7  2  0  0  0  0
 10  9  1  0  0  0  0
  1 10  2  0  0  0  0
 10 11  1  0  0  0  0
M  END
> <ChemID>
100530

> <CAS>
6130-75-2

> <Original_SMILES>
COc1cc(Cl)c(Cl)cc1Cl

> <preferred_name>
Benzene, 1,2,4-trichloro-5-methoxy-

> <dsstox_substance_id>
DTXSID5064120

> <dsstox_compound_id>
DTXCID4043010

> <qc_level>
Public_High

> <Canonical_QSARr>
COC1C=C(Cl)C(Cl)=CC=1Cl

> <InChI_Code_QSARr>
InChI=1S/C7H5Cl3O/c1-11-7-3-5(9)4(8)2-6(7)10/h2-3H,1H3

> <InChI Key_QSARr>
SXKBHOQOOGRFJF-UHFFFAOYSA-N

> <Salt_Solvent>


> <Salt_Solvent_ID>
0

> <MPID>
98448

> <LogBCF>
2.81

> <Tr_1_Tst_0>
0

$$$$
100531
  Mrv171c012241911322D          

 16 17  0  0  0  0            999 V2000
    1.7139   -3.0679    0.0000 C   0  0  0  0  0  0  0  0  0  0  0  0
    2.4283   -2.6554    0.0000 C   0  0  0  0  0  0  0  0  0  0  0  0
    0.9994   -2.6554    0.0000 C   0  0  0  0  0  0  0  0  0  0  0  0
    0.9994   -1.8304    0.0000 C   0  0  0  0  0  0  0  0  0  0  0  0
    1.7139   -1.4179    0.0000 C   0  0  0  0  0  0  0  0  0  0  0  0
    2.4283   -1.8304    0.0000 C   0  0  0  0  0  0  0  0  0  0  0  0
    3.1428   -1.4179    0.0000 C   0  0  0  0  0  0  0  0  0  0  0  0
    3.1428   -0.5929    0.0000 C   0  0  0  0  0  0  0  0  0  0  0  0
    2.4283   -0.1804    0.0000 C   0  0  0  0  0  0  0  0  0  0  0  0
    1.7139   -0.5929    0.0000 C   0  0  0  0  0  0  0  0  0  0  0  0
    0.2849   -1.4179    0.0000 C   0  0  0  0  0  0  0  0  0  0  0  0
    0.2849   -3.0679    0.0000 C   0  0  0  0  0  0  0  0  0  0  0  0
    0.2849   -3.8929    0.0000 C   0  0  0  0  0  0  0  0  0  0  0  0
   -0.4296   -4.3054    0.0000 C   0  0  0  0  0  0  0  0  0  0  0  0
    0.9994   -4.3054    0.0000 C   0  0  0  0  0  0  0  0  0  0  0  0
    1.7139   -3.8929    0.0000 C   0  0  0  0  0  0  0  0  0  0  0  0
  1  2  1  0  0  0  0
  3  1  1  0  0  0  0
  3  4  1  0  0  0  0
  4  5  1  0  0  0  0
  6  5  1  0  0  0  0
  7  6  2  0  0  0  0
  8  7  1  0  0  0  0
  9  8  2  0  0  0  0
 10  9  1  0  0  0  0
  5 10  2  0  0  0  0
  4 11  1  0  0  0  0
 12  3  2  0  0  0  0
 13 12  1  0  0  0  0
 13 14  1  0  0  0  0
 15 13  2  0  0  0  0
 16 15  1  0  0  0  0
  1 16  2  0  0  0  0
M  END
> <ChemID>
100531

> <CAS>
6165-51-1

> <Original_SMILES>
Cc1cc(C(C)c2ccccc2)c(C)cc1

> <preferred_name>


> <dsstox_substance_id>
DTXSID30879781

> <dsstox_compound_id>
DTXCID101017788

> <qc_level>


> <Canonical_QSARr>
CC1C=C(C(C)C2C=CC=CC=2)C(C)=CC=1

> <InChI_Code_QSARr>
InChI=1S/C16H18/c1-12-9-10-13(2)16(11-12)14(3)15-7-5-4-6-8-15/h4-11,14H,1-3H3

> <InChI Key_QSARr>
FRAOOIFTSMORED-UHFFFAOYSA-N

> <Salt_Solvent>


> <Salt_Solvent_ID>
0

> <MPID>
98449

> <LogBCF>
2.86

> <Tr_1_Tst_0>
1

$$$$
100533
  Mrv171c012241911322D          

 10 10  0  0  0  0            999 V2000
    1.4289   -0.0000    0.0000 C   0  0  0  0  0  0  0  0  0  0  0  0
    2.1434   -0.4125    0.0000 C   0  0  0  0  0  0  0  0  0  0  0  0
    1.4289    0.8250    0.0000 C   0  0  0  0  0  0  0  0  0  0  0  0
    0.7145    1.2375    0.0000 C   0  0  0  0  0  0  0  0  0  0  0  0
    0.7145    2.0625    0.0000 Cl  0  0  0  0  0  0  0  0  0  0  0  0
   -0.0000    0.8250    0.0000 C   0  0  0  0  0  0  0  0  0  0  0  0
   -0.7145    1.2375    0.0000 Cl  0  0  0  0  0  0  0  0  0  0  0  0
   -0.0000    0.0000    0.0000 C   0  0  0  0  0  0  0  0  0  0  0  0
    0.7145   -0.4125    0.0000 C   0  0  0  0  0  0  0  0  0  0  0  0
    0.7145   -1.2375    0.0000 Cl  0  0  0  0  0  0  0  0  0  0  0  0
  1  2  1  0  0  0  0
  3  1  1  0  0  0  0
  4  3  2  0  0  0  0
  4  5  1  0  0  0  0
  6  4  1  0  0  0  0
  6  7  1  0  0  0  0
  8  6  2  0  0  0  0
  9  8  1  0  0  0  0
  1  9  2  0  0  0  0
  9 10  1  0  0  0  0
M  END
> <ChemID>
100533

> <CAS>
6639-30-1

> <Original_SMILES>
Cc1cc(Cl)c(Cl)cc1Cl

> <preferred_name>
2,4,5-Trichlorotoluene

> <dsstox_substance_id>
DTXSID8064434

> <dsstox_compound_id>
DTXCID1044801

> <qc_level>
Public_High

> <Canonical_QSARr>
CC1C=C(Cl)C(Cl)=CC=1Cl

> <InChI_Code_QSARr>
InChI=1S/C7H5Cl3/c1-4-2-6(9)7(10)3-5(4)8/h2-3H,1H3

> <InChI Key_QSARr>
ZCXHZKNWIYVQNC-UHFFFAOYSA-N

> <Salt_Solvent>


> <Salt_Solvent_ID>
0

> <MPID>
98450

> <LogBCF>
3.87

> <Tr_1_Tst_0>
1

$$$$
100534
  Mrv171c012241911322D          

 21 21  0  0  0  0            999 V2000
    3.3262   -3.3825    0.0000 C   0  0  0  0  0  0  0  0  0  0  0  0
    2.6118   -2.9700    0.0000 C   0  0  0  0  0  0  0  0  0  0  0  0
    3.1420   -2.3381    0.0000 O   0  0  0  0  0  0  0  0  0  0  0  0
    3.9545   -2.4813    0.0000 O   0  0  0  0  0  0  0  0  0  0  0  0
    4.4848   -1.8493    0.0000 C   0  0  0  0  0  0  0  0  0  0  0  0
    5.0151   -1.2173    0.0000 C   0  0  0  0  0  0  0  0  0  0  0  0
    3.8528   -1.3190    0.0000 C   0  0  0  0  0  0  0  0  0  0  0  0
    5.1168   -2.3796    0.0000 C   0  0  0  0  0  0  0  0  0  0  0  0
    2.0815   -2.3381    0.0000 O   0  0  0  0  0  0  0  0  0  0  0  0
    2.3636   -1.5628    0.0000 O   0  0  0  0  0  0  0  0  0  0  0  0
    1.8333   -0.9308    0.0000 C   0  0  0  0  0  0  0  0  0  0  0  0
    1.3030   -0.2988    0.0000 C   0  0  0  0  0  0  0  0  0  0  0  0
    2.4653   -0.4005    0.0000 C   0  0  0  0  0  0  0  0  0  0  0  0
    1.2013   -1.4611    0.0000 C   0  0  0  0  0  0  0  0  0  0  0  0
    1.8973   -3.3825    0.0000 C   0  0  0  0  0  0  0  0  0  0  0  0
    1.8973   -4.2075    0.0000 C   0  0  0  0  0  0  0  0  0  0  0  0
    1.0848   -4.0643    0.0000 C   0  0  0  0  0  0  0  0  0  0  0  0
    1.6151   -4.9828    0.0000 C   0  0  0  0  0  0  0  0  0  0  0  0
    2.6118   -4.6200    0.0000 C   0  0  0  0  0  0  0  0  0  0  0  0
    3.3262   -4.2075    0.0000 C   0  0  0  0  0  0  0  0  0  0  0  0
    4.0407   -4.6200    0.0000 C   0  0  0  0  0  0  0  0  0  0  0  0
  2  1  1  0  0  0  0
  2  3  1  0  0  0  0
  3  4  1  0  0  0  0
  4  5  1  0  0  0  0
  5  6  1  0  0  0  0
  5  7  1  0  0  0  0
  5  8  1  0  0  0  0
  2  9  1  0  0  0  0
  9 10  1  0  0  0  0
 10 11  1  0  0  0  0
 11 12  1  0  0  0  0
 11 13  1  0  0  0  0
 11 14  1  0  0  0  0
 15  2  1  0  0  0  0
 16 15  1  0  0  0  0
 16 17  1  0  0  0  0
 16 18  1  0  0  0  0
 19 16  1  0  0  0  0
 20 19  1  0  0  0  0
  1 20  1  0  0  0  0
 20 21  1  0  0  0  0
M  END
> <ChemID>
100534

> <CAS>
6731-36-8

> <Original_SMILES>
CC1(C)CC(C)CC(C1)(OOC(C)(C)C)OOC(C)(C)C

> <preferred_name>
1,1-Bis(tert-butylperoxy)-3,3,5-trimethylcyclohexane

> <dsstox_substance_id>
DTXSID4020165

> <dsstox_compound_id>
DTXCID80165

> <qc_level>
DSSTox_Low

> <Canonical_QSARr>
CC1(C)CC(C)CC(C1)(OOC(C)(C)C)OOC(C)(C)C

> <InChI_Code_QSARr>
InChI=1S/C17H34O4/c1-13-10-16(8,9)12-17(11-13,20-18-14(2,3)4)21-19-15(5,6)7/h13H,10-12H2,1-9H3

> <InChI Key_QSARr>
NALFRYPTRXKZPN-UHFFFAOYSA-N

> <Salt_Solvent>


> <Salt_Solvent_ID>
0

> <MPID>
98451

> <LogBCF>
3.96

> <Tr_1_Tst_0>
1

$$$$
100536
  Mrv171c012241911322D          

 12 12  0  0  0  0            999 V2000
    2.7608   -1.1645    0.0000 C   0  0  0  0  0  0  0  0  0  0  0  0
    3.4753   -0.7520    0.0000 Cl  0  0  0  0  0  0  0  0  0  0  0  0
    2.0463   -0.7520    0.0000 C   0  0  0  0  0  0  0  0  0  0  0  0
    2.0463    0.0730    0.0000 Cl  0  0  0  0  0  0  0  0  0  0  0  0
    1.3318   -1.1645    0.0000 C   0  0  0  0  0  0  0  0  0  0  0  0
    0.6174   -0.7520    0.0000 O   0  0  0  0  0  0  0  0  0  0  0  0
   -0.0971   -1.1645    0.0000 C   0  0  0  0  0  0  0  0  0  0  0  0
    1.3318   -1.9895    0.0000 C   0  0  0  0  0  0  0  0  0  0  0  0
    0.6174   -2.4020    0.0000 Cl  0  0  0  0  0  0  0  0  0  0  0  0
    2.0463   -2.4020    0.0000 C   0  0  0  0  0  0  0  0  0  0  0  0
    2.0463   -3.2270    0.0000 Cl  0  0  0  0  0  0  0  0  0  0  0  0
    2.7608   -1.9895    0.0000 C   0  0  0  0  0  0  0  0  0  0  0  0
  1  2  1  0  0  0  0
  3  1  1  0  0  0  0
  3  4  1  0  0  0  0
  5  3  2  0  0  0  0
  5  6  1  0  0  0  0
  6  7  1  0  0  0  0
  8  5  1  0  0  0  0
  8  9  1  0  0  0  0
 10  8  2  0  0  0  0
 10 11  1  0  0  0  0
 12 10  1  0  0  0  0
  1 12  2  0  0  0  0
M  END
> <ChemID>
100536

> <CAS>
6936-40-9

> <Original_SMILES>
COc1c(Cl)c(Cl)cc(Cl)c1Cl

> <preferred_name>


> <dsstox_substance_id>
DTXSID30863963

> <dsstox_compound_id>
DTXCID00812529

> <qc_level>


> <Canonical_QSARr>
COC1=C(Cl)C(Cl)=CC(Cl)=C1Cl

> <InChI_Code_QSARr>
InChI=1S/C7H4Cl4O/c1-12-7-5(10)3(8)2-4(9)6(7)11/h2H,1H3

> <InChI Key_QSARr>
WMMFIDNWZNCBCT-UHFFFAOYSA-N

> <Salt_Solvent>


> <Salt_Solvent_ID>
0

> <MPID>
98452

> <LogBCF>
3.69

> <Tr_1_Tst_0>
0

$$$$
100540
  Mrv171c012241911322D          

 10 10  0  0  0  0            999 V2000
    2.5074   -1.4437    0.0000 O   0  0  0  0  0  0  0  0  0  0  0  0
    3.2218   -1.0312    0.0000 C   0  0  0  0  0  0  0  0  0  0  0  0
    3.2218   -0.2062    0.0000 C   0  0  0  0  0  0  0  0  0  0  0  0
    2.5074    0.2063    0.0000 N   0  0  0  0  0  0  0  0  0  0  0  0
    2.5074    1.0313    0.0000 C   0  0  0  0  0  0  0  0  0  0  0  0
    3.2218    1.4438    0.0000 C   0  0  0  0  0  0  0  0  0  0  0  0
    3.2218    2.2688    0.0000 C   0  0  0  0  0  0  0  0  0  0  0  0
    3.9363    1.0313    0.0000 C   0  0  0  0  0  0  0  0  0  0  0  0
    1.7929   -0.2062    0.0000 C   0  0  0  0  0  0  0  0  0  0  0  0
    1.7929   -1.0312    0.0000 C   0  0  0  0  0  0  0  0  0  0  0  0
  2  1  1  0  0  0  0
  3  2  1  0  0  0  0
  4  3  1  0  0  0  0
  4  5  1  0  0  0  0
  5  6  1  0  0  0  0
  6  7  1  0  0  0  0
  6  8  1  0  0  0  0
  9  4  1  0  0  0  0
 10  9  1  0  0  0  0
  1 10  1  0  0  0  0
M  END
> <ChemID>
100540

> <CAS>
10315-98-7

> <Original_SMILES>
CC(C)CN1CCOCC1

> <preferred_name>
4-Isobutylmorpholine

> <dsstox_substance_id>
DTXSID30145675

> <dsstox_compound_id>
DTXCID9068166

> <qc_level>
Public_Medium

> <Canonical_QSARr>
CC(C)CN1CCOCC1

> <InChI_Code_QSARr>
InChI=1S/C8H17NO/c1-8(2)7-9-3-5-10-6-4-9/h8H,3-7H2,1-2H3

> <InChI Key_QSARr>
QKVSMSABRNCNRS-UHFFFAOYSA-N

> <Salt_Solvent>


> <Salt_Solvent_ID>
0

> <MPID>
98453

> <LogBCF>
0.25

> <Tr_1_Tst_0>
1

$$$$
100541
  Mrv171c012241911322D          

 23 26  0  0  0  0            999 V2000
    3.8199   -1.4540    0.0000 C   0  0  0  0  0  0  0  0  0  0  0  0
    2.9949   -1.4540    0.0000 C   0  0  0  0  0  0  0  0  0  0  0  0
    2.5824   -2.1685    0.0000 C   0  0  0  0  0  0  0  0  0  0  0  0
    2.9949   -2.8830    0.0000 O   0  0  0  0  0  0  0  0  0  0  0  0
    1.7574   -2.1685    0.0000 C   0  0  0  0  0  0  0  0  0  0  0  0
    1.3449   -2.8830    0.0000 Br  0  0  0  0  0  0  0  0  0  0  0  0
    1.3449   -1.4540    0.0000 C   0  0  0  0  0  0  0  0  0  0  0  0
    0.5199   -1.4540    0.0000 C   0  0  0  0  0  0  0  0  0  0  0  0
    0.1074   -0.7396    0.0000 C   0  0  0  0  0  0  0  0  0  0  0  0
    0.5199   -0.0251    0.0000 C   0  0  0  0  0  0  0  0  0  0  0  0
    1.3449   -0.0251    0.0000 C   0  0  0  0  0  0  0  0  0  0  0  0
    1.7574   -0.7396    0.0000 C   0  0  0  0  0  0  0  0  0  0  0  0
    2.5824   -0.7396    0.0000 N   0  0  0  0  0  0  0  0  0  0  0  0
    4.3049   -0.7866    0.0000 C   0  0  0  0  0  0  0  0  0  0  0  0
    4.0499   -0.0020    0.0000 O   0  0  0  0  0  0  0  0  0  0  0  0
    5.0895   -1.0415    0.0000 C   0  0  0  0  0  0  0  0  0  0  0  0
    5.8040   -0.6290    0.0000 C   0  0  0  0  0  0  0  0  0  0  0  0
    6.5184   -1.0415    0.0000 C   0  0  0  0  0  0  0  0  0  0  0  0
    6.5184   -1.8665    0.0000 C   0  0  0  0  0  0  0  0  0  0  0  0
    5.8040   -2.2790    0.0000 C   0  0  0  0  0  0  0  0  0  0  0  0
    5.0895   -1.8665    0.0000 C   0  0  0  0  0  0  0  0  0  0  0  0
    4.3049   -2.1215    0.0000 C   0  0  0  0  0  0  0  0  0  0  0  0
    4.0499   -2.9061    0.0000 O   0  0  0  0  0  0  0  0  0  0  0  0
  1  2  1  0  0  0  0
  3  2  2  0  0  0  0
  3  4  1  0  0  0  0
  5  3  1  0  0  0  0
  5  6  1  0  0  0  0
  7  5  2  0  0  0  0
  7  8  1  0  0  0  0
  8  9  2  0  0  0  0
  9 10  1  0  0  0  0
 10 11  2  0  0  0  0
 11 12  1  0  0  0  0
 12  7  1  0  0  0  0
 13 12  2  0  0  0  0
  2 13  1  0  0  0  0
 14  1  1  0  0  0  0
 14 15  2  0  0  0  0
 16 14  1  0  0  0  0
 16 17  1  0  0  0  0
 17 18  2  0  0  0  0
 18 19  1  0  0  0  0
 19 20  2  0  0  0  0
 20 21  1  0  0  0  0
 21 16  2  0  0  0  0
 22 21  1  0  0  0  0
  1 22  1  0  0  0  0
 22 23  2  0  0  0  0
M  END
> <ChemID>
100541

> <CAS>
10319-14-9

> <Original_SMILES>
Oc1c(Br)c2ccccc2[n]c1C1C(=O)c2ccccc2C1=O

> <preferred_name>
C.I. Disperse Yellow 64

> <dsstox_substance_id>
DTXSID2044503

> <dsstox_compound_id>
DTXCID0024503

> <qc_level>
DSSTox_High

> <Canonical_QSARr>
OC1C(Br)=C2C=CC=CC2=NC=1C1C(=O)C2C=CC=CC=2C1=O

> <InChI_Code_QSARr>
InChI=1S/C18H10BrNO3/c19-14-11-7-3-4-8-12(11)20-15(18(14)23)13-16(21)9-5-1-2-6-10(9)17(13)22/h1-8,13,23H

> <InChI Key_QSARr>
DVBLPJWQXDCAKU-UHFFFAOYSA-N

> <Salt_Solvent>


> <Salt_Solvent_ID>
0

> <MPID>
98454

> <LogBCF>
1.14

> <Tr_1_Tst_0>
1

$$$$
100542
  Mrv171c012241911322D          

 11 11  0  0  0  0            999 V2000
   -0.0000   -2.0250    0.0000 C   0  0  0  0  0  0  0  0  0  0  0  0
    0.7145   -1.6125    0.0000 N   0  0  0  0  0  0  0  0  0  0  0  0
    0.7145   -0.7875    0.0000 C   0  0  0  0  0  0  0  0  0  0  0  0
    1.4289   -0.3750    0.0000 C   0  0  0  0  0  0  0  0  0  0  0  0
    1.4289    0.4500    0.0000 C   0  0  0  0  0  0  0  0  0  0  0  0
    0.7145    0.8625    0.0000 C   0  0  0  0  0  0  0  0  0  0  0  0
    0.7145    1.6875    0.0000 C   0  0  0  0  0  0  0  0  0  0  0  0
   -0.0000    2.1000    0.0000 O   0  0  0  0  0  0  0  0  0  0  0  0
    1.4289    2.1000    0.0000 O   0  0  0  0  0  0  0  0  0  0  0  0
   -0.0000    0.4500    0.0000 C   0  0  0  0  0  0  0  0  0  0  0  0
   -0.0000   -0.3750    0.0000 C   0  0  0  0  0  0  0  0  0  0  0  0
  1  2  1  0  0  0  0
  2  3  1  0  0  0  0
  4  3  1  0  0  0  0
  5  4  2  0  0  0  0
  6  5  1  0  0  0  0
  6  7  1  0  0  0  0
  7  8  2  0  0  0  0
  7  9  1  0  0  0  0
 10  6  2  0  0  0  0
 11 10  1  0  0  0  0
  3 11  2  0  0  0  0
M  END
> <ChemID>
100542

> <CAS>
10541-83-0

> <Original_SMILES>
CNc1ccc(cc1)C(O)=O

> <preferred_name>
Benzoic acid, 4-(methylamino)-

> <dsstox_substance_id>
DTXSID8065117

> <dsstox_compound_id>
DTXCID4032956

> <qc_level>
Public_High

> <Canonical_QSARr>
CNC1C=CC(=CC=1)C(O)=O

> <InChI_Code_QSARr>
InChI=1S/C8H9NO2/c1-9-7-4-2-6(3-5-7)8(10)11/h2-5,9H,1H3,(H,10,11)

> <InChI Key_QSARr>
ZVIDMSBTYRSMAR-UHFFFAOYSA-N

> <Salt_Solvent>


> <Salt_Solvent_ID>
0

> <MPID>
98455

> <LogBCF>
0.38

> <Tr_1_Tst_0>
1

$$$$
100543
  Mrv171c012241911322D          

 14 15  0  0  0  0            999 V2000
    1.0943   -0.7248    0.0000 N   0  0  0  0  0  0  0  0  0  0  0  0
    1.9193   -0.7248    0.0000 C   0  0  0  0  0  0  0  0  0  0  0  0
    2.4042   -0.0574    0.0000 N   0  0  0  0  0  0  0  0  0  0  0  0
    3.1888   -0.3123    0.0000 C   0  0  0  0  0  0  0  0  0  0  0  0
    3.9033    0.1002    0.0000 C   0  0  0  0  0  0  0  0  0  0  0  0
    4.6177   -0.3123    0.0000 C   0  0  0  0  0  0  0  0  0  0  0  0
    4.6177   -1.1373    0.0000 C   0  0  0  0  0  0  0  0  0  0  0  0
    3.9033   -1.5498    0.0000 C   0  0  0  0  0  0  0  0  0  0  0  0
    3.1888   -1.1373    0.0000 C   0  0  0  0  0  0  0  0  0  0  0  0
    2.4042   -1.3923    0.0000 N   0  0  0  0  0  0  0  0  0  0  0  0
    0.6818   -1.4393    0.0000 C   0  0  0  0  0  0  0  0  0  0  0  0
   -0.1432   -1.4393    0.0000 O   0  0  0  0  0  0  0  0  0  0  0  0
   -0.5557   -2.1538    0.0000 C   0  0  0  0  0  0  0  0  0  0  0  0
    1.0943   -2.1538    0.0000 O   0  0  0  0  0  0  0  0  0  0  0  0
  1  2  1  0  0  0  0
  3  2  1  0  0  0  0
  4  3  1  0  0  0  0
  4  5  2  0  0  0  0
  5  6  1  0  0  0  0
  6  7  2  0  0  0  0
  7  8  1  0  0  0  0
  8  9  2  0  0  0  0
  9  4  1  0  0  0  0
 10  9  1  0  0  0  0
  2 10  2  0  0  0  0
  1 11  1  0  0  0  0
 11 12  1  0  0  0  0
 12 13  1  0  0  0  0
 11 14  2  0  0  0  0
M  END
> <ChemID>
100543

> <CAS>
10605-21-7

> <Original_SMILES>
COC(=O)Nc1[nH]c2ccccc2[n]1

> <preferred_name>
Carbendazim

> <dsstox_substance_id>
DTXSID4024729

> <dsstox_compound_id>
DTXCID004729

> <qc_level>
DSSTox_High

> <Canonical_QSARr>
COC(=O)NC1NC2=CC=CC=C2N=1

> <InChI_Code_QSARr>
InChI=1S/C9H9N3O2/c1-14-9(13)12-8-10-6-4-2-3-5-7(6)11-8/h2-5H,1H3,(H2,10,11,12,13)

> <InChI Key_QSARr>
TWFZGCMQGLPBSX-UHFFFAOYSA-N

> <Salt_Solvent>


> <Salt_Solvent_ID>
0

> <MPID>
98456

> <LogBCF>
0.4

> <Tr_1_Tst_0>
0

$$$$
100546
  Mrv171c012241911322D          

  7  6  0  0  0  0            999 V2000
    1.6467   -1.5359    0.0000 C   0  0  0  0  0  0  0  0  0  0  0  0
    2.4717   -1.5359    0.0000 Cl  0  0  0  0  0  0  0  0  0  0  0  0
    1.2342   -0.8214    0.0000 C   0  0  0  0  0  0  0  0  0  0  0  0
    1.9487   -0.4089    0.0000 Cl  0  0  0  0  0  0  0  0  0  0  0  0
    0.5197   -1.2339    0.0000 Cl  0  0  0  0  0  0  0  0  0  0  0  0
    0.8217   -0.1069    0.0000 C   0  0  0  0  0  0  0  0  0  0  0  0
   -0.0033   -0.1069    0.0000 Cl  0  0  0  0  0  0  0  0  0  0  0  0
  1  2  1  0  0  0  0
  1  3  1  0  0  0  0
  3  4  1  0  0  0  0
  3  5  1  0  0  0  0
  3  6  1  0  0  0  0
  6  7  1  0  0  0  0
M  END
> <ChemID>
100546

> <CAS>
13116-53-5

> <Original_SMILES>
ClC(Cl)(CCl)CCl

> <preferred_name>
1,2,2,3-Tetrachloropropane

> <dsstox_substance_id>
DTXSID5051656

> <dsstox_compound_id>
DTXCID9030208

> <qc_level>
DSSTox_Low

> <Canonical_QSARr>
ClC(Cl)(CCl)CCl

> <InChI_Code_QSARr>
InChI=1S/C3H4Cl4/c4-1-3(6,7)2-5/h1-2H2

> <InChI Key_QSARr>
UDPHJTAYHSSOQB-UHFFFAOYSA-N

> <Salt_Solvent>


> <Salt_Solvent_ID>
0

> <MPID>
98458

> <LogBCF>
1.57

> <Tr_1_Tst_0>
1

$$$$
100547
  Mrv171c012241911322D          

 25 27  0  0  0  0            999 V2000
    0.9742   -3.0434    0.0000 C   0  0  0  0  0  0  0  0  0  0  0  0
    0.9742   -3.8684    0.0000 C   0  0  0  0  0  0  0  0  0  0  0  0
    0.2598   -4.2809    0.0000 C   0  0  0  0  0  0  0  0  0  0  0  0
    1.6887   -4.2809    0.0000 C   0  0  0  0  0  0  0  0  0  0  0  0
    0.2598   -2.6309    0.0000 C   0  0  0  0  0  0  0  0  0  0  0  0
    0.2598   -1.8059    0.0000 C   0  0  0  0  0  0  0  0  0  0  0  0
    0.9742   -1.3934    0.0000 C   0  0  0  0  0  0  0  0  0  0  0  0
    0.9742   -0.5684    0.0000 C   0  0  0  0  0  0  0  0  0  0  0  0
    0.8367   -1.9434    0.0000 C   0  0  0  0  0  0  0  0  0  0  0  0
    0.8367   -2.4934    0.0000 C   0  0  0  0  0  0  0  0  0  0  0  0
    1.6887   -1.8059    0.0000 C   0  0  0  0  0  0  0  0  0  0  0  0
    2.4733   -1.5509    0.0000 C   0  0  0  0  0  0  0  0  0  0  0  0
    2.7283   -0.7663    0.0000 O   0  0  0  0  0  0  0  0  0  0  0  0
    2.9582   -2.2184    0.0000 N   0  0  0  0  0  0  0  0  0  0  0  0
    3.7832   -2.2184    0.0000 C   0  0  0  0  0  0  0  0  0  0  0  0
    4.1957   -1.5039    0.0000 C   0  0  0  0  0  0  0  0  0  0  0  0
    3.7832   -0.7894    0.0000 C   0  0  0  0  0  0  0  0  0  0  0  0
    4.1957   -0.0750    0.0000 C   0  0  0  0  0  0  0  0  0  0  0  0
    5.0207   -1.5039    0.0000 C   0  0  0  0  0  0  0  0  0  0  0  0
    5.4332   -0.7894    0.0000 C   0  0  0  0  0  0  0  0  0  0  0  0
    6.2582   -0.7894    0.0000 C   0  0  0  0  0  0  0  0  0  0  0  0
    6.6707   -0.0750    0.0000 C   0  0  0  0  0  0  0  0  0  0  0  0
    2.4733   -2.8858    0.0000 C   0  0  0  0  0  0  0  0  0  0  0  0
    2.7283   -3.6704    0.0000 O   0  0  0  0  0  0  0  0  0  0  0  0
    1.6887   -2.6309    0.0000 C   0  0  0  0  0  0  0  0  0  0  0  0
  1  2  1  0  0  0  0
  2  3  1  0  0  0  0
  2  4  1  0  0  0  0
  5  1  1  0  0  0  0
  6  5  2  0  0  0  0
  7  6  1  0  0  0  0
  7  8  1  0  0  0  0
  7  9  1  0  0  0  0
  9 10  1  0  0  0  0
 10  1  1  0  0  0  0
 11  7  1  0  0  0  0
 11 12  1  0  0  0  0
 12 13  2  0  0  0  0
 12 14  1  0  0  0  0
 14 15  1  0  0  0  0
 15 16  1  0  0  0  0
 16 17  1  0  0  0  0
 17 18  1  0  0  0  0
 16 19  1  0  0  0  0
 19 20  1  0  0  0  0
 20 21  1  0  0  0  0
 21 22  1  0  0  0  0
 14 23  1  0  0  0  0
 23 24  2  0  0  0  0
 23 25  1  0  0  0  0
  1 25  1  0  0  0  0
 25 11  1  0  0  0  0
M  END
> <ChemID>
100547

> <CAS>
13358-11-7

> <Original_SMILES>
CC12CCC(C=C1)(C1C2C(=O)N(CC(CCCC)CC)C1=O)C(C)C

> <preferred_name>
N-(2-Ethylhexyl)-1-isopropyl-4-methylbiclyclo[2:2:2]oct-5-ene-2,3-dicarboximide

> <dsstox_substance_id>
DTXSID9042176

> <dsstox_compound_id>
DTXCID7022176

> <qc_level>
DSSTox_Low

> <Canonical_QSARr>
CC12CCC(C=C1)(C1C2C(=O)N(CC(CCCC)CC)C1=O)C(C)C

> <InChI_Code_QSARr>
InChI=1S/C22H35NO2/c1-6-8-9-16(7-2)14-23-19(24)17-18(20(23)25)22(15(3)4)12-10-21(17,5)11-13-22/h10,12,15-18H,6-9,11,13-14H2,1-5H3

> <InChI Key_QSARr>
MVKYQJHRHHQPDM-UHFFFAOYSA-N

> <Salt_Solvent>


> <Salt_Solvent_ID>
0

> <MPID>
98459

> <LogBCF>
2.97

> <Tr_1_Tst_0>
1

$$$$
100548
  Mrv171c012241911322D          

 12 11  0  0  0  0            999 V2000
    0.7159   -2.5464    0.0000 C   0  0  0  0  0  0  0  0  0  0  0  0
    1.4304   -2.1339    0.0000 C   0  0  0  0  0  0  0  0  0  0  0  0
    1.8429   -2.8484    0.0000 C   0  0  0  0  0  0  0  0  0  0  0  0
    1.0179   -1.4195    0.0000 C   0  0  0  0  0  0  0  0  0  0  0  0
    2.1449   -1.7214    0.0000 C   0  0  0  0  0  0  0  0  0  0  0  0
    2.1449   -0.8964    0.0000 C   0  0  0  0  0  0  0  0  0  0  0  0
    1.4304   -0.4839    0.0000 C   0  0  0  0  0  0  0  0  0  0  0  0
    2.8593   -0.4839    0.0000 C   0  0  0  0  0  0  0  0  0  0  0  0
    2.8593    0.3411    0.0000 C   0  0  0  0  0  0  0  0  0  0  0  0
    2.8593    1.1661    0.0000 C   0  0  0  0  0  0  0  0  0  0  0  0
    3.6843    0.3411    0.0000 C   0  0  0  0  0  0  0  0  0  0  0  0
    2.0343    0.3411    0.0000 C   0  0  0  0  0  0  0  0  0  0  0  0
  1  2  1  0  0  0  0
  2  3  1  0  0  0  0
  2  4  1  0  0  0  0
  2  5  1  0  0  0  0
  5  6  1  0  0  0  0
  6  7  1  0  0  0  0
  6  8  1  0  0  0  0
  8  9  1  0  0  0  0
  9 10  1  0  0  0  0
  9 11  1  0  0  0  0
  9 12  1  0  0  0  0
M  END
> <ChemID>
100548

> <CAS>
13475-82-6

> <Original_SMILES>
CC(CC(C)(C)C)CC(C)(C)C

> <preferred_name>
2,2,4,6,6-Pentamethylheptane

> <dsstox_substance_id>
DTXSID0042034

> <dsstox_compound_id>
DTXCID8022034

> <qc_level>
DSSTox_Low

> <Canonical_QSARr>
CC(CC(C)(C)C)CC(C)(C)C

> <InChI_Code_QSARr>
InChI=1S/C12H26/c1-10(8-11(2,3)4)9-12(5,6)7/h10H,8-9H2,1-7H3

> <InChI Key_QSARr>
VKPSKYDESGTTFR-UHFFFAOYSA-N

> <Salt_Solvent>


> <Salt_Solvent_ID>
0

> <MPID>
98460

> <LogBCF>
2.94

> <Tr_1_Tst_0>
1

$$$$
100549
  Mrv171c012241911322D          

 15 16  0  0  0  0            999 V2000
    3.1266   -0.4950    0.0000 C   0  0  0  0  0  0  0  0  0  0  0  0
    3.1266    0.3300    0.0000 C   0  0  0  0  0  0  0  0  0  0  0  0
    2.4122    0.7425    0.0000 C   0  0  0  0  0  0  0  0  0  0  0  0
    2.4122    1.5675    0.0000 C   0  0  0  0  0  0  0  0  0  0  0  0
    1.6977    0.3300    0.0000 C   0  0  0  0  0  0  0  0  0  0  0  0
    1.6977   -0.4950    0.0000 C   0  0  0  0  0  0  0  0  0  0  0  0
    2.4122   -0.9075    0.0000 C   0  0  0  0  0  0  0  0  0  0  0  0
    2.4122   -1.7325    0.0000 C   0  0  0  0  0  0  0  0  0  0  0  0
    3.8411   -0.9075    0.0000 C   0  0  0  0  0  0  0  0  0  0  0  0
    4.5556   -0.4950    0.0000 C   0  0  0  0  0  0  0  0  0  0  0  0
    5.2701   -0.9075    0.0000 C   0  0  0  0  0  0  0  0  0  0  0  0
    5.9845   -0.4950    0.0000 C   0  0  0  0  0  0  0  0  0  0  0  0
    5.9845    0.3300    0.0000 C   0  0  0  0  0  0  0  0  0  0  0  0
    5.2701    0.7425    0.0000 C   0  0  0  0  0  0  0  0  0  0  0  0
    4.5556    0.3300    0.0000 C   0  0  0  0  0  0  0  0  0  0  0  0
  2  1  1  0  0  0  0
  3  2  2  0  0  0  0
  3  4  1  0  0  0  0
  5  3  1  0  0  0  0
  6  5  2  0  0  0  0
  7  6  1  0  0  0  0
  1  7  2  0  0  0  0
  7  8  1  0  0  0  0
  1  9  1  0  0  0  0
  9 10  1  0  0  0  0
 11 10  1  0  0  0  0
 12 11  2  0  0  0  0
 13 12  1  0  0  0  0
 14 13  2  0  0  0  0
 15 14  1  0  0  0  0
 10 15  2  0  0  0  0
M  END
> <ChemID>
100549

> <CAS>
13540-50-6

> <Original_SMILES>
Cc1cc(Cc2ccccc2)c(C)cc1

> <preferred_name>
2,5-Dimethyldiphenylmethane

> <dsstox_substance_id>
DTXSID10159331

> <dsstox_compound_id>
DTXCID2081822

> <qc_level>
Public_Medium

> <Canonical_QSARr>
CC1C=CC(C)=CC=1CC1C=CC=CC=1

> <InChI_Code_QSARr>
InChI=1S/C15H16/c1-12-8-9-13(2)15(10-12)11-14-6-4-3-5-7-14/h3-10H,11H2,1-2H3

> <InChI Key_QSARr>
LJBGURBFHJJQQU-UHFFFAOYSA-N

> <Salt_Solvent>


> <Salt_Solvent_ID>
0

> <MPID>
98461

> <LogBCF>
3.14

> <Tr_1_Tst_0>
0

$$$$
100550
  Mrv171c012241911322D          

 17 16  0  0  0  0            999 V2000
    2.7303   -2.0944    0.0000 O   0  0  0  0  0  0  0  0  0  0  0  0
    2.3178   -2.8089    0.0000 P   0  0  0  0  0  0  0  0  0  0  0  0
    1.6034   -2.3964    0.0000 O   0  0  0  0  0  0  0  0  0  0  0  0
    1.6034   -1.5714    0.0000 C   0  0  0  0  0  0  0  0  0  0  0  0
    0.8889   -1.1589    0.0000 C   0  0  0  0  0  0  0  0  0  0  0  0
    2.3178   -1.1589    0.0000 C   0  0  0  0  0  0  0  0  0  0  0  0
    2.3178   -0.3339    0.0000 Cl  0  0  0  0  0  0  0  0  0  0  0  0
    3.0323   -3.2214    0.0000 O   0  0  0  0  0  0  0  0  0  0  0  0
    3.7468   -2.8089    0.0000 C   0  0  0  0  0  0  0  0  0  0  0  0
    3.7468   -1.9839    0.0000 C   0  0  0  0  0  0  0  0  0  0  0  0
    4.4612   -3.2214    0.0000 C   0  0  0  0  0  0  0  0  0  0  0  0
    5.1757   -2.8089    0.0000 Cl  0  0  0  0  0  0  0  0  0  0  0  0
    1.9053   -3.5234    0.0000 O   0  0  0  0  0  0  0  0  0  0  0  0
    1.0803   -3.5234    0.0000 C   0  0  0  0  0  0  0  0  0  0  0  0
    0.6678   -2.8089    0.0000 C   0  0  0  0  0  0  0  0  0  0  0  0
    0.6678   -4.2379    0.0000 C   0  0  0  0  0  0  0  0  0  0  0  0
   -0.1572   -4.2379    0.0000 Cl  0  0  0  0  0  0  0  0  0  0  0  0
  1  2  2  0  0  0  0
  2  3  1  0  0  0  0
  3  4  1  0  0  0  0
  4  5  1  0  0  0  0
  4  6  1  0  0  0  0
  6  7  1  0  0  0  0
  2  8  1  0  0  0  0
  8  9  1  0  0  0  0
  9 10  1  0  0  0  0
  9 11  1  0  0  0  0
 11 12  1  0  0  0  0
  2 13  1  0  0  0  0
 13 14  1  0  0  0  0
 14 15  1  0  0  0  0
 14 16  1  0  0  0  0
 16 17  1  0  0  0  0
M  END
> <ChemID>
100550

> <CAS>
13674-84-5

> <Original_SMILES>
CC(CCl)OP(=O)(OC(C)CCl)OC(C)CCl

> <preferred_name>
Tris(2-chloroisopropyl)phosphate

> <dsstox_substance_id>
DTXSID5026259

> <dsstox_compound_id>
DTXCID106259

> <qc_level>
DSSTox_High

> <Canonical_QSARr>
CC(CCl)OP(=O)(OC(C)CCl)OC(C)CCl

> <InChI_Code_QSARr>
InChI=1S/C9H18Cl3O4P/c1-7(4-10)14-17(13,15-8(2)5-11)16-9(3)6-12/h7-9H,4-6H2,1-3H3

> <InChI Key_QSARr>
KVMPUXDNESXNOH-UHFFFAOYSA-N

> <Salt_Solvent>


> <Salt_Solvent_ID>
0

> <MPID>
98462

> <LogBCF>
0.9

> <Tr_1_Tst_0>
1

$$$$
100551
  Mrv171c012241911322D          

 20 19  0  0  0  0            999 V2000
    4.5936   -3.9095    0.0000 O   0  0  0  0  0  0  0  0  0  0  0  0
    4.1811   -4.6240    0.0000 P   0  0  0  0  0  0  0  0  0  0  0  0
    3.4667   -4.2115    0.0000 O   0  0  0  0  0  0  0  0  0  0  0  0
    3.4667   -3.3865    0.0000 C   0  0  0  0  0  0  0  0  0  0  0  0
    4.1811   -2.9740    0.0000 C   0  0  0  0  0  0  0  0  0  0  0  0
    4.1811   -2.1490    0.0000 Cl  0  0  0  0  0  0  0  0  0  0  0  0
    2.7522   -2.9740    0.0000 C   0  0  0  0  0  0  0  0  0  0  0  0
    2.7522   -2.1490    0.0000 Cl  0  0  0  0  0  0  0  0  0  0  0  0
    4.8956   -5.0365    0.0000 O   0  0  0  0  0  0  0  0  0  0  0  0
    5.6101   -4.6240    0.0000 C   0  0  0  0  0  0  0  0  0  0  0  0
    6.3245   -5.0365    0.0000 C   0  0  0  0  0  0  0  0  0  0  0  0
    7.0390   -4.6240    0.0000 Cl  0  0  0  0  0  0  0  0  0  0  0  0
    5.6101   -3.7990    0.0000 C   0  0  0  0  0  0  0  0  0  0  0  0
    6.3245   -3.3865    0.0000 Cl  0  0  0  0  0  0  0  0  0  0  0  0
    3.7686   -5.3385    0.0000 O   0  0  0  0  0  0  0  0  0  0  0  0
    2.9436   -5.3385    0.0000 C   0  0  0  0  0  0  0  0  0  0  0  0
    2.5311   -4.6240    0.0000 C   0  0  0  0  0  0  0  0  0  0  0  0
    2.9436   -3.9095    0.0000 Cl  0  0  0  0  0  0  0  0  0  0  0  0
    2.5311   -6.0530    0.0000 C   0  0  0  0  0  0  0  0  0  0  0  0
    1.7061   -6.0530    0.0000 Cl  0  0  0  0  0  0  0  0  0  0  0  0
  1  2  2  0  0  0  0
  2  3  1  0  0  0  0
  3  4  1  0  0  0  0
  4  5  1  0  0  0  0
  5  6  1  0  0  0  0
  4  7  1  0  0  0  0
  7  8  1  0  0  0  0
  2  9  1  0  0  0  0
  9 10  1  0  0  0  0
 10 11  1  0  0  0  0
 11 12  1  0  0  0  0
 10 13  1  0  0  0  0
 13 14  1  0  0  0  0
  2 15  1  0  0  0  0
 15 16  1  0  0  0  0
 16 17  1  0  0  0  0
 17 18  1  0  0  0  0
 16 19  1  0  0  0  0
 19 20  1  0  0  0  0
M  END
> <ChemID>
100551

> <CAS>
13674-87-8

> <Original_SMILES>
O=P(OC(CCl)CCl)(OC(CCl)CCl)OC(CCl)CCl

> <preferred_name>
TDCPP

> <dsstox_substance_id>
DTXSID9026261

> <dsstox_compound_id>
DTXCID206261

> <qc_level>
DSSTox_High

> <Canonical_QSARr>
O=P(OC(CCl)CCl)(OC(CCl)CCl)OC(CCl)CCl

> <InChI_Code_QSARr>
InChI=1S/C9H15Cl6O4P/c10-1-7(2-11)17-20(16,18-8(3-12)4-13)19-9(5-14)6-15/h7-9H,1-6H2

> <InChI Key_QSARr>
ASLWPAWFJZFCKF-UHFFFAOYSA-N

> <Salt_Solvent>


> <Salt_Solvent_ID>
0

> <MPID>
98463

> <LogBCF>
1.08

> <Tr_1_Tst_0>
1

$$$$
100552
  Mrv171c012241911322D          

 21 23  0  0  0  0            999 V2000
    0.7145   -4.2232    0.0000 C   0  0  0  0  0  0  0  0  0  0  0  0
    1.4289   -4.6357    0.0000 C   0  0  0  0  0  0  0  0  0  0  0  0
    2.1434   -4.2232    0.0000 C   0  0  0  0  0  0  0  0  0  0  0  0
    2.8579   -4.6357    0.0000 C   0  0  0  0  0  0  0  0  0  0  0  0
    3.5723   -4.2232    0.0000 C   0  0  0  0  0  0  0  0  0  0  0  0
    4.2868   -4.6357    0.0000 C   0  0  0  0  0  0  0  0  0  0  0  0
    5.0013   -4.2232    0.0000 C   0  0  0  0  0  0  0  0  0  0  0  0
    5.7158   -4.6357    0.0000 C   0  0  0  0  0  0  0  0  0  0  0  0
    2.1434   -3.3982    0.0000 C   0  0  0  0  0  0  0  0  0  0  0  0
    1.4289   -2.9857    0.0000 C   0  0  0  0  0  0  0  0  0  0  0  0
    0.7145   -3.3982    0.0000 C   0  0  0  0  0  0  0  0  0  0  0  0
   -0.0000   -2.9857    0.0000 C   0  0  0  0  0  0  0  0  0  0  0  0
   -0.0000   -2.1607    0.0000 O   0  0  0  0  0  0  0  0  0  0  0  0
   -0.7145   -3.3982    0.0000 C   0  0  0  0  0  0  0  0  0  0  0  0
   -0.7145   -4.2232    0.0000 C   0  0  0  0  0  0  0  0  0  0  0  0
   -1.4289   -4.6357    0.0000 C   0  0  0  0  0  0  0  0  0  0  0  0
   -2.1434   -4.2232    0.0000 C   0  0  0  0  0  0  0  0  0  0  0  0
   -2.1434   -3.3982    0.0000 C   0  0  0  0  0  0  0  0  0  0  0  0
   -1.4289   -2.9857    0.0000 C   0  0  0  0  0  0  0  0  0  0  0  0
   -0.0000   -4.6357    0.0000 C   0  0  0  0  0  0  0  0  0  0  0  0
   -0.0000   -5.4607    0.0000 O   0  0  0  0  0  0  0  0  0  0  0  0
  2  1  1  0  0  0  0
  3  2  2  0  0  0  0
  3  4  1  0  0  0  0
  4  5  1  0  0  0  0
  5  6  1  0  0  0  0
  6  7  1  0  0  0  0
  7  8  1  0  0  0  0
  9  3  1  0  0  0  0
 10  9  2  0  0  0  0
 11 10  1  0  0  0  0
 11  1  2  0  0  0  0
 12 11  1  0  0  0  0
 12 13  2  0  0  0  0
 14 12  1  0  0  0  0
 14 15  1  0  0  0  0
 15 16  2  0  0  0  0
 16 17  1  0  0  0  0
 17 18  2  0  0  0  0
 18 19  1  0  0  0  0
 19 14  2  0  0  0  0
 20 15  1  0  0  0  0
  1 20  1  0  0  0  0
 20 21  2  0  0  0  0
M  END
> <ChemID>
100552

> <CAS>
13936-21-5

> <Original_SMILES>
CCCCCc1cc2c(cc1)C(=O)c1ccccc1C2=O

> <preferred_name>
9,10-Anthracenedione, 2-pentyl-

> <dsstox_substance_id>
DTXSID1065681

> <dsstox_compound_id>
DTXCID0034518

> <qc_level>
Public_High

> <Canonical_QSARr>
CCCCCC1=CC2=C(C=C1)C(=O)C1=CC=CC=C1C2=O

> <InChI_Code_QSARr>
InChI=1S/C19H18O2/c1-2-3-4-7-13-10-11-16-17(12-13)19(21)15-9-6-5-8-14(15)18(16)20/h5-6,8-12H,2-4,7H2,1H3

> <InChI Key_QSARr>
UMWZLYTVXQBTTE-UHFFFAOYSA-N

> <Salt_Solvent>


> <Salt_Solvent_ID>
0

> <MPID>
98464

> <LogBCF>
2.94

> <Tr_1_Tst_0>
1

$$$$
100553
  Mrv171c012241911322D          

 19 19  0  0  0  0            999 V2000
    3.5724    5.3625    0.0000 C   0  0  0  0  0  0  0  0  0  0  0  0
    2.8579    4.9500    0.0000 C   0  0  0  0  0  0  0  0  0  0  0  0
    2.8579    4.1250    0.0000 O   0  0  0  0  0  0  0  0  0  0  0  0
    2.1434    3.7125    0.0000 P   0  0  0  0  0  0  0  0  0  0  0  0
    1.7309    4.4270    0.0000 S   0  0  0  0  0  0  0  0  0  0  0  0
    1.4289    3.3000    0.0000 O   0  0  0  0  0  0  0  0  0  0  0  0
    1.4289    2.4750    0.0000 N   0  0  0  0  0  0  0  0  0  0  0  0
    0.7145    2.0625    0.0000 C   0  0  0  0  0  0  0  0  0  0  0  0
    0.0000    2.4750    0.0000 C   0  0  0  0  0  0  0  0  0  0  0  0
   -0.7145    2.8875    0.0000 N   0  0  0  0  0  0  0  0  0  0  0  0
    0.7145    1.2375    0.0000 C   0  0  0  0  0  0  0  0  0  0  0  0
    1.4289    0.8250    0.0000 C   0  0  0  0  0  0  0  0  0  0  0  0
    1.4289   -0.0000    0.0000 C   0  0  0  0  0  0  0  0  0  0  0  0
    0.7145   -0.4125    0.0000 C   0  0  0  0  0  0  0  0  0  0  0  0
    0.0000    0.0000    0.0000 C   0  0  0  0  0  0  0  0  0  0  0  0
    0.0000    0.8250    0.0000 C   0  0  0  0  0  0  0  0  0  0  0  0
    2.5559    2.9980    0.0000 O   0  0  0  0  0  0  0  0  0  0  0  0
    2.1434    2.2836    0.0000 C   0  0  0  0  0  0  0  0  0  0  0  0
    2.5559    1.5691    0.0000 C   0  0  0  0  0  0  0  0  0  0  0  0
  1  2  1  0  0  0  0
  2  3  1  0  0  0  0
  3  4  1  0  0  0  0
  4  5  2  0  0  0  0
  4  6  1  0  0  0  0
  7  6  1  4  0  0  0
  7  8  2  0  0  0  0
  8  9  1  0  0  0  0
  9 10  3  0  0  0  0
  8 11  1  0  0  0  0
 11 12  1  0  0  0  0
 12 13  2  0  0  0  0
 13 14  1  0  0  0  0
 14 15  2  0  0  0  0
 15 16  1  0  0  0  0
 11 16  2  0  0  0  0
  4 17  1  0  0  0  0
 17 18  1  0  0  0  0
 18 19  1  0  0  0  0
M  END
> <ChemID>
100553

> <CAS>
14816-18-3

> <Original_SMILES>
CCOP(=S)(O/N=C(\C#N)/c1ccccc1)OCC

> <preferred_name>
Phoxim

> <dsstox_substance_id>
DTXSID8034324

> <dsstox_compound_id>
DTXCID6014324

> <qc_level>
DSSTox_Low

> <Canonical_QSARr>
CCOP(=S)(ON=C(C#N)C1C=CC=CC=1)OCC

> <InChI_Code_QSARr>
InChI=1S/C12H15N2O3PS/c1-3-15-18(19,16-4-2)17-14-12(10-13)11-8-6-5-7-9-11/h5-9H,3-4H2,1-2H3

> <InChI Key_QSARr>
ATROHALUCMTWTB-UHFFFAOYSA-N

> <Salt_Solvent>


> <Salt_Solvent_ID>
0

> <MPID>
98465

> <LogBCF>
2.91

> <Tr_1_Tst_0>
0

$$$$
100555
  Mrv171c012241911322D          

 10 10  0  0  0  0            999 V2000
    2.2215   -1.3695    0.0000 Cl  0  0  0  0  0  0  0  0  0  0  0  0
    2.9360   -0.9570    0.0000 C   0  0  0  0  0  0  0  0  0  0  0  0
    3.6504   -1.3695    0.0000 C   0  0  0  0  0  0  0  0  0  0  0  0
    4.3649   -0.9570    0.0000 C   0  0  0  0  0  0  0  0  0  0  0  0
    4.3649   -0.1320    0.0000 C   0  0  0  0  0  0  0  0  0  0  0  0
    3.6504    0.2805    0.0000 C   0  0  0  0  0  0  0  0  0  0  0  0
    3.6504    1.1055    0.0000 Cl  0  0  0  0  0  0  0  0  0  0  0  0
    2.9360   -0.1320    0.0000 C   0  0  0  0  0  0  0  0  0  0  0  0
    2.2215    0.2805    0.0000 C   0  0  0  0  0  0  0  0  0  0  0  0
    1.5070   -0.1320    0.0000 O   0  0  0  0  0  0  0  0  0  0  0  0
  1  2  1  0  0  0  0
  3  2  1  0  0  0  0
  4  3  2  0  0  0  0
  5  4  1  0  0  0  0
  6  5  2  0  0  0  0
  6  7  1  0  0  0  0
  8  6  1  0  0  0  0
  2  8  2  0  0  0  0
  8  9  1  0  0  0  0
  9 10  1  0  0  0  0
M  END
> <ChemID>
100555

> <CAS>
15258-73-8

> <Original_SMILES>
OCc1c(Cl)cccc1Cl

> <preferred_name>
Benzenemethanol, 2,6-dichloro- (9CI)

> <dsstox_substance_id>
DTXSID30165075

> <dsstox_compound_id>
DTXCID1087566

> <qc_level>
Public_Medium

> <Canonical_QSARr>
OCC1C(Cl)=CC=CC=1Cl

> <InChI_Code_QSARr>
InChI=1S/C7H6Cl2O/c8-6-2-1-3-7(9)5(6)4-10/h1-3,10H,4H2

> <InChI Key_QSARr>
WKKHCCZLKYKUDN-UHFFFAOYSA-N

> <Salt_Solvent>


> <Salt_Solvent_ID>
0

> <MPID>
98466

> <LogBCF>
0.47

> <Tr_1_Tst_0>
1

$$$$
100556
  Mrv171c012241911322D          

 15 16  0  0  0  0            999 V2000
    0.6668    2.0350    0.0000 C   0  0  0  0  0  0  0  0  0  0  0  0
    0.6668    2.8600    0.0000 C   0  0  0  0  0  0  0  0  0  0  0  0
   -0.0476    3.2725    0.0000 C   0  0  0  0  0  0  0  0  0  0  0  0
   -0.0476    4.0975    0.0000 Cl  0  0  0  0  0  0  0  0  0  0  0  0
   -0.7621    2.8600    0.0000 C   0  0  0  0  0  0  0  0  0  0  0  0
   -1.4766    3.2725    0.0000 Cl  0  0  0  0  0  0  0  0  0  0  0  0
   -0.7621    2.0350    0.0000 C   0  0  0  0  0  0  0  0  0  0  0  0
   -0.0476    1.6225    0.0000 C   0  0  0  0  0  0  0  0  0  0  0  0
   -0.0476    0.7975    0.0000 Cl  0  0  0  0  0  0  0  0  0  0  0  0
    1.3813    1.6225    0.0000 C   0  0  0  0  0  0  0  0  0  0  0  0
    1.3813    0.7975    0.0000 C   0  0  0  0  0  0  0  0  0  0  0  0
    2.0958    0.3850    0.0000 C   0  0  0  0  0  0  0  0  0  0  0  0
    2.8102    0.7975    0.0000 C   0  0  0  0  0  0  0  0  0  0  0  0
    2.8102    1.6225    0.0000 C   0  0  0  0  0  0  0  0  0  0  0  0
    2.0958    2.0350    0.0000 C   0  0  0  0  0  0  0  0  0  0  0  0
  2  1  1  0  0  0  0
  3  2  2  0  0  0  0
  3  4  1  0  0  0  0
  5  3  1  0  0  0  0
  5  6  1  0  0  0  0
  7  5  2  0  0  0  0
  8  7  1  0  0  0  0
  1  8  2  0  0  0  0
  8  9  1  0  0  0  0
  1 10  1  0  0  0  0
 11 10  1  0  0  0  0
 12 11  2  0  0  0  0
 13 12  1  0  0  0  0
 14 13  2  0  0  0  0
 15 14  1  0  0  0  0
 10 15  2  0  0  0  0
M  END
> <ChemID>
100556

> <CAS>
15862-07-4

> <Original_SMILES>
Clc1cc(-c2ccccc2)c(Cl)cc1Cl

> <preferred_name>
2,4,5-Trichlorobiphenyl

> <dsstox_substance_id>
DTXSID0073405

> <dsstox_compound_id>
DTXCID6035100

> <qc_level>
Public_High

> <Canonical_QSARr>
ClC1C=C(Cl)C(Cl)=CC=1C1C=CC=CC=1

> <InChI_Code_QSARr>
InChI=1S/C12H7Cl3/c13-10-7-12(15)11(14)6-9(10)8-4-2-1-3-5-8/h1-7H

> <InChI Key_QSARr>
VGVIKVCCUATMNG-UHFFFAOYSA-N

> <Salt_Solvent>


> <Salt_Solvent_ID>
0

> <MPID>
98467

> <LogBCF>
3.78

> <Tr_1_Tst_0>
1

$$$$
100557
  Mrv171c012241911322D          

 19 20  0  0  0  0            999 V2000
   -1.6546   -0.9553    0.0000 O   0  0  0  0  0  0  0  0  0  0  0  0
   -0.9401   -0.5428    0.0000 S   0  0  0  0  0  0  0  0  0  0  0  0
   -0.2256   -0.1303    0.0000 C   0  0  0  0  0  0  0  0  0  0  0  0
    0.4889   -0.5428    0.0000 C   0  0  0  0  0  0  0  0  0  0  0  0
    1.2033   -0.1303    0.0000 C   0  0  0  0  0  0  0  0  0  0  0  0
    1.2033    0.6947    0.0000 C   0  0  0  0  0  0  0  0  0  0  0  0
    1.9178    1.1072    0.0000 C   0  0  0  0  0  0  0  0  0  0  0  0
    2.6323    0.6947    0.0000 C   0  0  0  0  0  0  0  0  0  0  0  0
    3.3467    1.1072    0.0000 O   0  0  0  0  0  0  0  0  0  0  0  0
    2.6323   -0.1303    0.0000 C   0  0  0  0  0  0  0  0  0  0  0  0
    3.3467   -0.5428    0.0000 S   0  0  0  0  0  0  0  0  0  0  0  0
    4.0612   -0.9553    0.0000 O   0  0  0  0  0  0  0  0  0  0  0  0
    2.9342   -1.2572    0.0000 O   0  0  0  0  0  0  0  0  0  0  0  0
    3.7592    0.1717    0.0000 O   0  0  0  0  0  0  0  0  0  0  0  0
    1.9178   -0.5428    0.0000 C   0  0  0  0  0  0  0  0  0  0  0  0
    0.4889    1.1072    0.0000 C   0  0  0  0  0  0  0  0  0  0  0  0
   -0.2256    0.6947    0.0000 C   0  0  0  0  0  0  0  0  0  0  0  0
   -0.5276   -1.2572    0.0000 O   0  0  0  0  0  0  0  0  0  0  0  0
   -1.3526    0.1717    0.0000 O   0  0  0  0  0  0  0  0  0  0  0  0
  1  2  1  0  0  0  0
  2  3  1  0  0  0  0
  4  3  2  0  0  0  0
  5  4  1  0  0  0  0
  5  6  1  0  0  0  0
  6  7  2  0  0  0  0
  7  8  1  0  0  0  0
  8  9  1  0  0  0  0
  8 10  2  0  0  0  0
 10 11  1  0  0  0  0
 11 12  2  0  0  0  0
 11 13  2  0  0  0  0
 11 14  1  0  0  0  0
 10 15  1  0  0  0  0
 15  5  2  0  0  0  0
 16  6  1  0  0  0  0
 17 16  2  0  0  0  0
  3 17  1  0  0  0  0
  2 18  2  0  0  0  0
  2 19  2  0  0  0  0
M  END
> <ChemID>
100557

> <CAS>
135-51-3

> <Original_SMILES>
[Na+].[Na+].[O-]S(=O)(=O)c1cc2cc(ccc2cc1O)S([O-])(=O)=O

> <preferred_name>
Disodium 3-hydroxynaphthalene-2,7-disulfonate

> <dsstox_substance_id>
DTXSID8044543

> <dsstox_compound_id>
DTXCID6024543

> <qc_level>
DSSTox_Low

> <Canonical_QSARr>
OC1C=C2C=CC(=CC2=CC=1S(O)(=O)=O)S(O)(=O)=O

> <InChI_Code_QSARr>
InChI=1S/C10H8O7S2/c11-9-4-6-1-2-8(18(12,13)14)3-7(6)5-10(9)19(15,16)17/h1-5,11H,(H,12,13,14)(H,15,16,17)

> <InChI Key_QSARr>
USWINTIHFQKJTR-UHFFFAOYSA-N

> <Salt_Solvent>
[Na+]

> <Salt_Solvent_ID>
110

> <MPID>
98468

> <LogBCF>
0.3

> <Tr_1_Tst_0>
1

$$$$
100558
  Mrv171c012241911322D          

 16 17  0  0  0  0            999 V2000
    0.3572    1.4438    0.0000 C   0  0  0  0  0  0  0  0  0  0  0  0
   -0.3572    1.8563    0.0000 C   0  0  0  0  0  0  0  0  0  0  0  0
   -0.3572    2.6813    0.0000 Cl  0  0  0  0  0  0  0  0  0  0  0  0
   -1.0717    1.4438    0.0000 C   0  0  0  0  0  0  0  0  0  0  0  0
   -1.0717    0.6188    0.0000 C   0  0  0  0  0  0  0  0  0  0  0  0
   -0.3572    0.2063    0.0000 C   0  0  0  0  0  0  0  0  0  0  0  0
    0.3572    0.6188    0.0000 C   0  0  0  0  0  0  0  0  0  0  0  0
    1.0717    0.2063    0.0000 Cl  0  0  0  0  0  0  0  0  0  0  0  0
    1.0717    1.8563    0.0000 C   0  0  0  0  0  0  0  0  0  0  0  0
    1.7862    1.4438    0.0000 C   0  0  0  0  0  0  0  0  0  0  0  0
    1.7862    0.6188    0.0000 Cl  0  0  0  0  0  0  0  0  0  0  0  0
    2.5006    1.8563    0.0000 C   0  0  0  0  0  0  0  0  0  0  0  0
    2.5006    2.6813    0.0000 C   0  0  0  0  0  0  0  0  0  0  0  0
    1.7862    3.0938    0.0000 C   0  0  0  0  0  0  0  0  0  0  0  0
    1.0717    2.6813    0.0000 C   0  0  0  0  0  0  0  0  0  0  0  0
    0.3572    3.0938    0.0000 Cl  0  0  0  0  0  0  0  0  0  0  0  0
  2  1  1  0  0  0  0
  2  3  1  0  0  0  0
  4  2  2  0  0  0  0
  5  4  1  0  0  0  0
  6  5  2  0  0  0  0
  7  6  1  0  0  0  0
  1  7  2  0  0  0  0
  7  8  1  0  0  0  0
  1  9  1  0  0  0  0
 10  9  1  0  0  0  0
 10 11  1  0  0  0  0
 12 10  2  0  0  0  0
 13 12  1  0  0  0  0
 14 13  2  0  0  0  0
 15 14  1  0  0  0  0
  9 15  2  0  0  0  0
 15 16  1  0  0  0  0
M  END
> <ChemID>
100558

> <CAS>
15968-05-5

> <Original_SMILES>
Clc1cccc(Cl)c1-c1c(Cl)cccc1Cl

> <preferred_name>
2,2',6,6'-Tetrachlorobiphenyl

> <dsstox_substance_id>
DTXSID0065983

> <dsstox_compound_id>
DTXCID2035142

> <qc_level>
Public_High

> <Canonical_QSARr>
ClC1C=CC=C(Cl)C=1C1C(Cl)=CC=CC=1Cl

> <InChI_Code_QSARr>
InChI=1S/C12H6Cl4/c13-7-3-1-4-8(14)11(7)12-9(15)5-2-6-10(12)16/h1-6H

> <InChI Key_QSARr>
PXAGFNRKXSYIHU-UHFFFAOYSA-N

> <Salt_Solvent>


> <Salt_Solvent_ID>
0

> <MPID>
98469

> <LogBCF>
3.85

> <Tr_1_Tst_0>
1

$$$$
100559
  Mrv171c012241911322D          

 18 18  0  0  0  0            999 V2000
    1.7856   -1.1886    0.0000 C   0  0  0  0  0  0  0  0  0  0  0  0
    2.1981   -1.9031    0.0000 C   0  0  0  0  0  0  0  0  0  0  0  0
    1.7856   -2.6176    0.0000 N   0  0  0  0  0  0  0  0  0  0  0  0
    0.9606   -2.6176    0.0000 C   0  0  0  0  0  0  0  0  0  0  0  0
    0.5481   -3.3320    0.0000 C   0  0  0  0  0  0  0  0  0  0  0  0
   -0.2769   -3.3320    0.0000 Cl  0  0  0  0  0  0  0  0  0  0  0  0
    0.5481   -1.9031    0.0000 O   0  0  0  0  0  0  0  0  0  0  0  0
    2.1981   -3.3320    0.0000 C   0  0  0  0  0  0  0  0  0  0  0  0
    3.0231   -3.3320    0.0000 O   0  0  0  0  0  0  0  0  0  0  0  0
    3.4356   -4.0465    0.0000 C   0  0  0  0  0  0  0  0  0  0  0  0
    3.0231   -1.9031    0.0000 C   0  0  0  0  0  0  0  0  0  0  0  0
    3.4356   -2.6176    0.0000 C   0  0  0  0  0  0  0  0  0  0  0  0
    4.2606   -2.6176    0.0000 C   0  0  0  0  0  0  0  0  0  0  0  0
    3.4356   -1.1886    0.0000 C   0  0  0  0  0  0  0  0  0  0  0  0
    3.0231   -0.4742    0.0000 C   0  0  0  0  0  0  0  0  0  0  0  0
    2.1981   -0.4742    0.0000 C   0  0  0  0  0  0  0  0  0  0  0  0
    0.9606   -1.1886    0.0000 C   0  0  0  0  0  0  0  0  0  0  0  0
    0.5481   -0.4742    0.0000 C   0  0  0  0  0  0  0  0  0  0  0  0
  2  1  1  0  0  0  0
  2  3  1  0  0  0  0
  3  4  1  0  0  0  0
  4  5  1  0  0  0  0
  5  6  1  0  0  0  0
  4  7  2  0  0  0  0
  3  8  1  0  0  0  0
  8  9  1  0  0  0  0
  9 10  1  0  0  0  0
 11  2  2  0  0  0  0
 11 12  1  0  0  0  0
 12 13  1  0  0  0  0
 14 11  1  0  0  0  0
 15 14  2  0  0  0  0
 16 15  1  0  0  0  0
  1 16  2  0  0  0  0
  1 17  1  0  0  0  0
 17 18  1  0  0  0  0
M  END
> <ChemID>
100559

> <CAS>
15972-60-8

> <Original_SMILES>
COCN(C(=O)CCl)c1c(CC)cccc1CC

> <preferred_name>
Alachlor

> <dsstox_substance_id>
DTXSID1022265

> <dsstox_compound_id>
DTXCID402265

> <qc_level>
DSSTox_Low

> <Canonical_QSARr>
COCN(C(=O)CCl)C1C(CC)=CC=CC=1CC

> <InChI_Code_QSARr>
InChI=1S/C14H20ClNO2/c1-4-11-7-6-8-12(5-2)14(11)16(10-18-3)13(17)9-15/h6-8H,4-5,9-10H2,1-3H3

> <InChI Key_QSARr>
XCSGPAVHZFQHGE-UHFFFAOYSA-N

> <Salt_Solvent>


> <Salt_Solvent_ID>
0

> <MPID>
98470

> <LogBCF>
1.12

> <Tr_1_Tst_0>
0

$$$$
100561
  Mrv171c012241911322D          

  9 10  0  0  0  0            999 V2000
   -1.2654    0.5418    0.0000 C   0  0  0  0  0  0  0  0  0  0  0  0
   -0.5510    0.9543    0.0000 C   0  0  0  0  0  0  0  0  0  0  0  0
    0.1635    0.5418    0.0000 C   0  0  0  0  0  0  0  0  0  0  0  0
    0.1635   -0.2832    0.0000 C   0  0  0  0  0  0  0  0  0  0  0  0
    0.8780   -0.6957    0.0000 C   0  0  0  0  0  0  0  0  0  0  0  0
    0.6717    0.1293    0.0000 C   0  0  0  0  0  0  0  0  0  0  0  0
    0.8780    0.9543    0.0000 C   0  0  0  0  0  0  0  0  0  0  0  0
    1.5925    0.5418    0.0000 C   0  0  0  0  0  0  0  0  0  0  0  0
    1.5925   -0.2832    0.0000 C   0  0  0  0  0  0  0  0  0  0  0  0
  2  1  1  4  0  0  0
  2  3  2  0  0  0  0
  3  4  1  0  0  0  0
  4  5  1  0  0  0  0
  5  6  1  0  0  0  0
  6  7  1  0  0  0  0
  3  7  1  0  0  0  0
  7  8  1  0  0  0  0
  8  9  2  0  0  0  0
  5  9  1  0  0  0  0
M  END
> <ChemID>
100561

> <CAS>
16219-75-3

> <Original_SMILES>
CC=C1CC2CC1C=C2

> <preferred_name>
5-Ethylidene-2-norbornene

> <dsstox_substance_id>
DTXSID1025306

> <dsstox_compound_id>
DTXCID505306

> <qc_level>
DSSTox_Low

> <Canonical_QSARr>
CC=C1CC2CC1C=C2

> <InChI_Code_QSARr>
InChI=1S/C9H12/c1-2-8-5-7-3-4-9(8)6-7/h2-4,7,9H,5-6H2,1H3

> <InChI Key_QSARr>
OJOWICOBYCXEKR-UHFFFAOYSA-N

> <Salt_Solvent>


> <Salt_Solvent_ID>
0

> <MPID>
98471

> <LogBCF>
2.04

> <Tr_1_Tst_0>
1

$$$$
100562
  Mrv171c012241911322D          

 14 15  0  0  0  0            999 V2000
    0.8165    1.7679    0.0000 C   0  0  0  0  0  0  0  0  0  0  0  0
    1.5310    1.3554    0.0000 C   0  0  0  0  0  0  0  0  0  0  0  0
    2.2455    1.7679    0.0000 C   0  0  0  0  0  0  0  0  0  0  0  0
    2.2455    2.5929    0.0000 C   0  0  0  0  0  0  0  0  0  0  0  0
    1.5310    3.0054    0.0000 C   0  0  0  0  0  0  0  0  0  0  0  0
    1.5310    3.8304    0.0000 Cl  0  0  0  0  0  0  0  0  0  0  0  0
    0.8165    2.5929    0.0000 C   0  0  0  0  0  0  0  0  0  0  0  0
    0.1021    3.0054    0.0000 Cl  0  0  0  0  0  0  0  0  0  0  0  0
    0.1021    1.3554    0.0000 C   0  0  0  0  0  0  0  0  0  0  0  0
   -0.6124    1.7679    0.0000 C   0  0  0  0  0  0  0  0  0  0  0  0
   -1.3269    1.3554    0.0000 C   0  0  0  0  0  0  0  0  0  0  0  0
   -1.3269    0.5304    0.0000 C   0  0  0  0  0  0  0  0  0  0  0  0
   -0.6124    0.1179    0.0000 C   0  0  0  0  0  0  0  0  0  0  0  0
    0.1021    0.5304    0.0000 C   0  0  0  0  0  0  0  0  0  0  0  0
  2  1  1  0  0  0  0
  3  2  2  0  0  0  0
  4  3  1  0  0  0  0
  5  4  2  0  0  0  0
  5  6  1  0  0  0  0
  7  5  1  0  0  0  0
  1  7  2  0  0  0  0
  7  8  1  0  0  0  0
  1  9  1  0  0  0  0
 10  9  1  0  0  0  0
 11 10  2  0  0  0  0
 12 11  1  0  0  0  0
 13 12  2  0  0  0  0
 14 13  1  0  0  0  0
  9 14  2  0  0  0  0
M  END
> <ChemID>
100562

> <CAS>
16605-91-7

> <Original_SMILES>
Clc1cccc(-c2ccccc2)c1Cl

> <preferred_name>
2,3-Dichlorobiphenyl

> <dsstox_substance_id>
DTXSID0073409

> <dsstox_compound_id>
DTXCID4035332

> <qc_level>
Public_High

> <Canonical_QSARr>
ClC1=CC=CC(C2C=CC=CC=2)=C1Cl

> <InChI_Code_QSARr>
InChI=1S/C12H8Cl2/c13-11-8-4-7-10(12(11)14)9-5-2-1-3-6-9/h1-8H

> <InChI Key_QSARr>
XOMKZKJEJBZBJJ-UHFFFAOYSA-N

> <Salt_Solvent>


> <Salt_Solvent_ID>
0

> <MPID>
98472

> <LogBCF>
3.98

> <Tr_1_Tst_0>
1

$$$$
100563
  Mrv171c012241911322D          

 15 16  0  0  0  0            999 V2000
    0.3334    1.8425    0.0000 C   0  0  0  0  0  0  0  0  0  0  0  0
    0.3334    2.6675    0.0000 C   0  0  0  0  0  0  0  0  0  0  0  0
   -0.3811    3.0800    0.0000 C   0  0  0  0  0  0  0  0  0  0  0  0
   -0.3811    3.9050    0.0000 Cl  0  0  0  0  0  0  0  0  0  0  0  0
   -1.0955    2.6675    0.0000 C   0  0  0  0  0  0  0  0  0  0  0  0
   -1.0955    1.8425    0.0000 C   0  0  0  0  0  0  0  0  0  0  0  0
   -0.3811    1.4300    0.0000 C   0  0  0  0  0  0  0  0  0  0  0  0
   -0.3811    0.6050    0.0000 Cl  0  0  0  0  0  0  0  0  0  0  0  0
    1.0479    1.4300    0.0000 C   0  0  0  0  0  0  0  0  0  0  0  0
    1.0479    0.6050    0.0000 C   0  0  0  0  0  0  0  0  0  0  0  0
    1.7624    0.1925    0.0000 C   0  0  0  0  0  0  0  0  0  0  0  0
    2.4768    0.6050    0.0000 C   0  0  0  0  0  0  0  0  0  0  0  0
    3.1913    0.1925    0.0000 Cl  0  0  0  0  0  0  0  0  0  0  0  0
    2.4768    1.4300    0.0000 C   0  0  0  0  0  0  0  0  0  0  0  0
    1.7624    1.8425    0.0000 C   0  0  0  0  0  0  0  0  0  0  0  0
  2  1  1  0  0  0  0
  3  2  2  0  0  0  0
  3  4  1  0  0  0  0
  5  3  1  0  0  0  0
  6  5  2  0  0  0  0
  7  6  1  0  0  0  0
  1  7  2  0  0  0  0
  7  8  1  0  0  0  0
  1  9  1  0  0  0  0
 10  9  1  0  0  0  0
 11 10  2  0  0  0  0
 12 11  1  0  0  0  0
 12 13  1  0  0  0  0
 14 12  2  0  0  0  0
 15 14  1  0  0  0  0
  9 15  2  0  0  0  0
M  END
> <ChemID>
100563

> <CAS>
16606-02-3

> <Original_SMILES>
Clc1ccc(Cl)cc1-c1ccc(Cl)cc1

> <preferred_name>
2,4',5-Trichlorobiphenyl

> <dsstox_substance_id>
DTXSID9073410

> <dsstox_compound_id>
DTXCID9035333

> <qc_level>
Public_High

> <Canonical_QSARr>
ClC1=CC(C2C=CC(Cl)=CC=2)=C(Cl)C=C1

> <InChI_Code_QSARr>
InChI=1S/C12H7Cl3/c13-9-3-1-8(2-4-9)11-7-10(14)5-6-12(11)15/h1-7H

> <InChI Key_QSARr>
VAHKBZSAUKPEOV-UHFFFAOYSA-N

> <Salt_Solvent>


> <Salt_Solvent_ID>
0

> <MPID>
98473

> <LogBCF>
4.13

> <Tr_1_Tst_0>
1

$$$$
100565
  Mrv171c012241911322D          

 19 20  0  0  0  0            999 V2000
    2.7199   -1.8439    0.0000 P   0  0  0  0  0  0  0  0  0  0  0  0
    3.1324   -2.5583    0.0000 O   0  0  0  0  0  0  0  0  0  0  0  0
    3.9574   -2.5583    0.0000 C   0  0  0  0  0  0  0  0  0  0  0  0
    4.3699   -3.2728    0.0000 C   0  0  0  0  0  0  0  0  0  0  0  0
    2.3074   -1.1294    0.0000 O   0  0  0  0  0  0  0  0  0  0  0  0
    2.0054   -2.2564    0.0000 S   0  0  0  0  0  0  0  0  0  0  0  0
    2.0054   -3.0814    0.0000 C   0  0  0  0  0  0  0  0  0  0  0  0
    1.2909   -3.4939    0.0000 C   0  0  0  0  0  0  0  0  0  0  0  0
    1.2909   -4.3189    0.0000 C   0  0  0  0  0  0  0  0  0  0  0  0
    2.0054   -4.7314    0.0000 C   0  0  0  0  0  0  0  0  0  0  0  0
    2.7199   -4.3189    0.0000 C   0  0  0  0  0  0  0  0  0  0  0  0
    2.7199   -3.4939    0.0000 C   0  0  0  0  0  0  0  0  0  0  0  0
    3.4343   -1.4314    0.0000 S   0  0  0  0  0  0  0  0  0  0  0  0
    3.4343   -0.6064    0.0000 C   0  0  0  0  0  0  0  0  0  0  0  0
    4.1488   -0.1939    0.0000 C   0  0  0  0  0  0  0  0  0  0  0  0
    4.1488    0.6311    0.0000 C   0  0  0  0  0  0  0  0  0  0  0  0
    3.4343    1.0436    0.0000 C   0  0  0  0  0  0  0  0  0  0  0  0
    2.7199    0.6311    0.0000 C   0  0  0  0  0  0  0  0  0  0  0  0
    2.7199   -0.1939    0.0000 C   0  0  0  0  0  0  0  0  0  0  0  0
  1  2  1  0  0  0  0
  2  3  1  0  0  0  0
  3  4  1  0  0  0  0
  1  5  2  0  0  0  0
  1  6  1  0  0  0  0
  6  7  1  0  0  0  0
  8  7  1  0  0  0  0
  9  8  2  0  0  0  0
 10  9  1  0  0  0  0
 11 10  2  0  0  0  0
 12 11  1  0  0  0  0
  7 12  2  0  0  0  0
  1 13  1  0  0  0  0
 13 14  1  0  0  0  0
 15 14  2  0  0  0  0
 16 15  1  0  0  0  0
 17 16  2  0  0  0  0
 18 17  1  0  0  0  0
 19 18  2  0  0  0  0
 14 19  1  0  0  0  0
M  END
> <ChemID>
100565

> <CAS>
17109-49-8

> <Original_SMILES>
CCOP(=O)(Sc1ccccc1)Sc1ccccc1

> <preferred_name>
Edifenphos

> <dsstox_substance_id>
DTXSID7041910

> <dsstox_compound_id>
DTXCID5021910

> <qc_level>
DSSTox_Low

> <Canonical_QSARr>
CCOP(=O)(SC1C=CC=CC=1)SC1C=CC=CC=1

> <InChI_Code_QSARr>
InChI=1S/C14H15O2PS2/c1-2-16-17(15,18-13-9-5-3-6-10-13)19-14-11-7-4-8-12-14/h3-12H,2H2,1H3

> <InChI Key_QSARr>
AWZOLILCOUMRDG-UHFFFAOYSA-N

> <Salt_Solvent>


> <Salt_Solvent_ID>
0

> <MPID>
98474

> <LogBCF>
1.51

> <Tr_1_Tst_0>
0

$$$$
100566
  Mrv171c012241911322D          

 12 12  0  0  0  0            999 V2000
    3.2405   -0.7410    0.0000 N   0  3  0  0  0  0  0  0  0  0  0  0
    2.5260   -1.1535    0.0000 C   0  0  0  0  0  0  0  0  0  0  0  0
    1.8115   -0.7410    0.0000 C   0  0  0  0  0  0  0  0  0  0  0  0
    1.8115    0.0840    0.0000 Cl  0  0  0  0  0  0  0  0  0  0  0  0
    1.0971   -1.1535    0.0000 C   0  0  0  0  0  0  0  0  0  0  0  0
    0.3826   -0.7410    0.0000 Cl  0  0  0  0  0  0  0  0  0  0  0  0
    1.0971   -1.9785    0.0000 C   0  0  0  0  0  0  0  0  0  0  0  0
    0.3826   -2.3910    0.0000 Cl  0  0  0  0  0  0  0  0  0  0  0  0
    1.8115   -2.3910    0.0000 C   0  0  0  0  0  0  0  0  0  0  0  0
    2.5260   -1.9785    0.0000 C   0  0  0  0  0  0  0  0  0  0  0  0
    3.2405    0.0840    0.0000 O   0  5  0  0  0  0  0  0  0  0  0  0
    3.9549   -1.1535    0.0000 O   0  0  0  0  0  0  0  0  0  0  0  0
  1  2  1  0  0  0  0
  3  2  1  0  0  0  0
  3  4  1  0  0  0  0
  5  3  2  0  0  0  0
  5  6  1  0  0  0  0
  7  5  1  0  0  0  0
  7  8  1  0  0  0  0
  9  7  2  0  0  0  0
 10  9  1  0  0  0  0
  2 10  2  0  0  0  0
  1 11  1  0  0  0  0
  1 12  2  0  0  0  0
M  CHG  2   1   1  11  -1
M  END
> <ChemID>
100566

> <CAS>
17700-09-3

> <Original_SMILES>
[O-][N+](=O)c1ccc(Cl)c(Cl)c1Cl

> <preferred_name>
2,3,4-Trichloronitrobenzene

> <dsstox_substance_id>
DTXSID0026202

> <dsstox_compound_id>
DTXCID806202

> <qc_level>
DSSTox_Low

> <Canonical_QSARr>
[O-][N+](=O)C1=CC=C(Cl)C(Cl)=C1Cl

> <InChI_Code_QSARr>
InChI=1S/C6H2Cl3NO2/c7-3-1-2-4(10(11)12)6(9)5(3)8/h1-2H

> <InChI Key_QSARr>
BGKIECJVXXHLDP-UHFFFAOYSA-N

> <Salt_Solvent>


> <Salt_Solvent_ID>
0

> <MPID>
98475

> <LogBCF>
2.2

> <Tr_1_Tst_0>
1

$$$$
100567
  Mrv171c012241911322D          

 16 16  0  0  0  0            999 V2000
    3.8552   -1.4211    0.0000 P   0  0  0  0  0  0  0  0  0  0  0  0
    4.5696   -1.8336    0.0000 O   0  0  0  0  0  0  0  0  0  0  0  0
    5.2841   -1.4211    0.0000 C   0  0  0  0  0  0  0  0  0  0  0  0
    4.2677   -0.7066    0.0000 O   0  0  0  0  0  0  0  0  0  0  0  0
    3.8552    0.0078    0.0000 C   0  0  0  0  0  0  0  0  0  0  0  0
    3.4427   -2.1356    0.0000 S   0  0  0  0  0  0  0  0  0  0  0  0
    3.1407   -1.0086    0.0000 O   0  0  0  0  0  0  0  0  0  0  0  0
    2.4262   -1.4211    0.0000 C   0  0  0  0  0  0  0  0  0  0  0  0
    1.7117   -1.0086    0.0000 C   0  0  0  0  0  0  0  0  0  0  0  0
    1.7117   -0.1836    0.0000 Cl  0  0  0  0  0  0  0  0  0  0  0  0
    0.9973   -1.4211    0.0000 C   0  0  0  0  0  0  0  0  0  0  0  0
    0.9973   -2.2461    0.0000 C   0  0  0  0  0  0  0  0  0  0  0  0
    0.2828   -2.6586    0.0000 I   0  0  0  0  0  0  0  0  0  0  0  0
    1.7117   -2.6586    0.0000 C   0  0  0  0  0  0  0  0  0  0  0  0
    1.7117   -3.4836    0.0000 Cl  0  0  0  0  0  0  0  0  0  0  0  0
    2.4262   -2.2461    0.0000 C   0  0  0  0  0  0  0  0  0  0  0  0
  1  2  1  0  0  0  0
  2  3  1  0  0  0  0
  1  4  1  0  0  0  0
  4  5  1  0  0  0  0
  1  6  2  0  0  0  0
  1  7  1  0  0  0  0
  7  8  1  0  0  0  0
  9  8  1  0  0  0  0
  9 10  1  0  0  0  0
 11  9  2  0  0  0  0
 12 11  1  0  0  0  0
 12 13  1  0  0  0  0
 14 12  2  0  0  0  0
 14 15  1  0  0  0  0
 16 14  1  0  0  0  0
  8 16  2  0  0  0  0
M  END
> <ChemID>
100567

> <CAS>
18181-70-9

> <Original_SMILES>
COP(=S)(Oc1cc(Cl)c(I)cc1Cl)OC

> <preferred_name>
Iodenphos

> <dsstox_substance_id>
DTXSID8040278

> <dsstox_compound_id>
DTXCID6020278

> <qc_level>
DSSTox_Low

> <Canonical_QSARr>
COP(=S)(OC1=CC(Cl)=C(I)C=C1Cl)OC

> <InChI_Code_QSARr>
InChI=1S/C8H8Cl2IO3PS/c1-12-15(16,13-2)14-8-4-5(9)7(11)3-6(8)10/h3-4H,1-2H3

> <InChI Key_QSARr>
LFVLUOAHQIVABZ-UHFFFAOYSA-N

> <Salt_Solvent>


> <Salt_Solvent_ID>
0

> <MPID>
98476

> <LogBCF>
3.62

> <Tr_1_Tst_0>
1

$$$$
100568
  Mrv171c012241911322D          

 12 12  0  0  0  0            999 V2000
    3.8542   -1.2557    0.0000 O   0  5  0  0  0  0  0  0  0  0  0  0
    3.1397   -0.8432    0.0000 N   0  3  0  0  0  0  0  0  0  0  0  0
    2.4253   -1.2557    0.0000 C   0  0  0  0  0  0  0  0  0  0  0  0
    1.7108   -0.8432    0.0000 C   0  0  0  0  0  0  0  0  0  0  0  0
    1.7108   -0.0182    0.0000 Cl  0  0  0  0  0  0  0  0  0  0  0  0
    0.9963   -1.2557    0.0000 C   0  0  0  0  0  0  0  0  0  0  0  0
    0.9963   -2.0807    0.0000 C   0  0  0  0  0  0  0  0  0  0  0  0
    0.2818   -2.4932    0.0000 Cl  0  0  0  0  0  0  0  0  0  0  0  0
    1.7108   -2.4932    0.0000 C   0  0  0  0  0  0  0  0  0  0  0  0
    2.4253   -2.0807    0.0000 C   0  0  0  0  0  0  0  0  0  0  0  0
    3.1397   -2.4932    0.0000 Cl  0  0  0  0  0  0  0  0  0  0  0  0
    3.1397   -0.0182    0.0000 O   0  0  0  0  0  0  0  0  0  0  0  0
  1  2  1  0  0  0  0
  2  3  1  0  0  0  0
  4  3  1  0  0  0  0
  4  5  1  0  0  0  0
  6  4  2  0  0  0  0
  7  6  1  0  0  0  0
  7  8  1  0  0  0  0
  9  7  2  0  0  0  0
 10  9  1  0  0  0  0
  3 10  2  0  0  0  0
 10 11  1  0  0  0  0
  2 12  2  0  0  0  0
M  CHG  2   1  -1   2   1
M  END
> <ChemID>
100568

> <CAS>
18708-70-8

> <Original_SMILES>
[O-][N+](=O)c1c(Cl)cc(Cl)cc1Cl

> <preferred_name>
2,4,6-Trichloronitrobenzene

> <dsstox_substance_id>
DTXSID0026204

> <dsstox_compound_id>
DTXCID606204

> <qc_level>
DSSTox_Low

> <Canonical_QSARr>
[O-][N+](=O)C1C(Cl)=CC(Cl)=CC=1Cl

> <InChI_Code_QSARr>
InChI=1S/C6H2Cl3NO2/c7-3-1-4(8)6(10(11)12)5(9)2-3/h1-2H

> <InChI Key_QSARr>
AEBJDOTVYMITIA-UHFFFAOYSA-N

> <Salt_Solvent>


> <Salt_Solvent_ID>
0

> <MPID>
98477

> <LogBCF>
2.47

> <Tr_1_Tst_0>
1

$$$$
100569
  Mrv171c012241911322D          

 20 21  0  0  0  0            999 V2000
    3.7606   -3.5821    0.0000 P   0  0  0  0  0  0  0  0  0  0  0  0
    3.4250   -4.3358    0.0000 O   0  0  0  0  0  0  0  0  0  0  0  0
    3.9100   -5.0032    0.0000 C   0  0  0  0  0  0  0  0  0  0  0  0
    3.5744   -5.7569    0.0000 C   0  0  0  0  0  0  0  0  0  0  0  0
    4.5143   -3.9177    0.0000 O   0  0  0  0  0  0  0  0  0  0  0  0
    5.1817   -3.4328    0.0000 C   0  0  0  0  0  0  0  0  0  0  0  0
    5.9354   -3.7683    0.0000 C   0  0  0  0  0  0  0  0  0  0  0  0
    4.0961   -2.8284    0.0000 O   0  0  0  0  0  0  0  0  0  0  0  0
    3.6112   -2.1610    0.0000 C   0  0  0  0  0  0  0  0  0  0  0  0
    3.8662   -1.3764    0.0000 C   0  0  0  0  0  0  0  0  0  0  0  0
    3.1987   -0.8915    0.0000 C   0  0  0  0  0  0  0  0  0  0  0  0
    3.1987   -0.0665    0.0000 C   0  0  0  0  0  0  0  0  0  0  0  0
    3.9132    0.3460    0.0000 C   0  0  0  0  0  0  0  0  0  0  0  0
    3.9132    1.1710    0.0000 C   0  0  0  0  0  0  0  0  0  0  0  0
    3.1987    1.5835    0.0000 C   0  0  0  0  0  0  0  0  0  0  0  0
    2.4843    1.1710    0.0000 C   0  0  0  0  0  0  0  0  0  0  0  0
    2.4843    0.3460    0.0000 C   0  0  0  0  0  0  0  0  0  0  0  0
    2.5313   -1.3764    0.0000 O   0  0  0  0  0  0  0  0  0  0  0  0
    2.7862   -2.1610    0.0000 N   0  0  0  0  0  0  0  0  0  0  0  0
    3.0069   -3.2466    0.0000 S   0  0  0  0  0  0  0  0  0  0  0  0
  1  2  1  0  0  0  0
  2  3  1  0  0  0  0
  3  4  1  0  0  0  0
  1  5  1  0  0  0  0
  5  6  1  0  0  0  0
  6  7  1  0  0  0  0
  1  8  1  0  0  0  0
  8  9  1  0  0  0  0
 10  9  1  0  0  0  0
 11 10  2  0  0  0  0
 11 12  1  0  0  0  0
 13 12  1  0  0  0  0
 14 13  2  0  0  0  0
 15 14  1  0  0  0  0
 16 15  2  0  0  0  0
 17 16  1  0  0  0  0
 12 17  2  0  0  0  0
 18 11  1  0  0  0  0
 19 18  1  0  0  0  0
  9 19  2  0  0  0  0
  1 20  2  0  0  0  0
M  END
> <ChemID>
100569

> <CAS>
18854-01-8

> <Original_SMILES>
CCOP(=S)(Oc1cc(o[n]1)-c1ccccc1)OCC

> <preferred_name>
Isoxathion

> <dsstox_substance_id>
DTXSID0042080

> <dsstox_compound_id>
DTXCID8022080

> <qc_level>
DSSTox_Low

> <Canonical_QSARr>
CCOP(=S)(OC1C=C(ON=1)C1C=CC=CC=1)OCC

> <InChI_Code_QSARr>
InChI=1S/C13H16NO4PS/c1-3-15-19(20,16-4-2)18-13-10-12(17-14-13)11-8-6-5-7-9-11/h5-10H,3-4H2,1-2H3

> <InChI Key_QSARr>
SDMSCIWHRZJSRN-UHFFFAOYSA-N

> <Salt_Solvent>


> <Salt_Solvent_ID>
0

> <MPID>
98478

> <LogBCF>
2.61

> <Tr_1_Tst_0>
0

$$$$
100570
  Mrv171c012241911322D          

 20 22  0  0  0  0            999 V2000
    2.8797   -0.8581    0.0000 O   0  0  0  0  0  0  0  0  0  0  0  0
    3.5941   -1.2706    0.0000 C   0  0  0  0  0  0  0  0  0  0  0  0
    4.3086   -0.8581    0.0000 C   0  0  0  0  0  0  0  0  0  0  0  0
    4.3086   -0.0331    0.0000 Cl  0  0  0  0  0  0  0  0  0  0  0  0
    5.0231   -1.2706    0.0000 C   0  0  0  0  0  0  0  0  0  0  0  0
    5.7375   -0.8581    0.0000 Cl  0  0  0  0  0  0  0  0  0  0  0  0
    5.0231   -2.0956    0.0000 C   0  0  0  0  0  0  0  0  0  0  0  0
    5.7375   -2.5081    0.0000 Cl  0  0  0  0  0  0  0  0  0  0  0  0
    4.3086   -2.5081    0.0000 C   0  0  0  0  0  0  0  0  0  0  0  0
    3.5941   -2.0956    0.0000 C   0  0  0  0  0  0  0  0  0  0  0  0
    2.8797   -2.5081    0.0000 O   0  0  0  0  0  0  0  0  0  0  0  0
    2.1652   -2.0956    0.0000 C   0  0  0  0  0  0  0  0  0  0  0  0
    1.4507   -2.5081    0.0000 C   0  0  0  0  0  0  0  0  0  0  0  0
    0.7362   -2.0956    0.0000 C   0  0  0  0  0  0  0  0  0  0  0  0
    0.0218   -2.5081    0.0000 Cl  0  0  0  0  0  0  0  0  0  0  0  0
    0.7362   -1.2706    0.0000 C   0  0  0  0  0  0  0  0  0  0  0  0
    0.0218   -0.8581    0.0000 Cl  0  0  0  0  0  0  0  0  0  0  0  0
    1.4507   -0.8581    0.0000 C   0  0  0  0  0  0  0  0  0  0  0  0
    1.4507   -0.0331    0.0000 Cl  0  0  0  0  0  0  0  0  0  0  0  0
    2.1652   -1.2706    0.0000 C   0  0  0  0  0  0  0  0  0  0  0  0
  2  1  1  0  0  0  0
  2  3  1  0  0  0  0
  3  4  1  0  0  0  0
  3  5  2  0  0  0  0
  5  6  1  0  0  0  0
  5  7  1  0  0  0  0
  7  8  1  0  0  0  0
  7  9  2  0  0  0  0
  9 10  1  0  0  0  0
 10  2  2  0  0  0  0
 11 10  1  0  0  0  0
 12 11  1  0  0  0  0
 12 13  1  0  0  0  0
 13 14  2  0  0  0  0
 14 15  1  0  0  0  0
 14 16  1  0  0  0  0
 16 17  1  0  0  0  0
 16 18  2  0  0  0  0
 18 19  1  0  0  0  0
 18 20  1  0  0  0  0
  1 20  1  0  0  0  0
 20 12  2  0  0  0  0
M  END
> <ChemID>
100570

> <CAS>
19408-74-3

> <Original_SMILES>
Clc1cc2Oc3cc(Cl)c(Cl)c(Cl)c3Oc2c(Cl)c1Cl

> <preferred_name>
Hexachlorodibenzo-p-dioxin

> <dsstox_substance_id>
DTXSID6023781

> <dsstox_compound_id>
DTXCID10677

> <qc_level>
DSSTox_Low

> <Canonical_QSARr>
ClC1=CC2OC3C=C(Cl)C(Cl)=C(Cl)C=3OC=2C(Cl)=C1Cl

> <InChI_Code_QSARr>
InChI=1S/C12H2Cl6O2/c13-3-1-5-11(9(17)7(3)15)20-12-6(19-5)2-4(14)8(16)10(12)18/h1-2H

> <InChI Key_QSARr>
LGIRBUBHIWTVCK-UHFFFAOYSA-N

> <Salt_Solvent>


> <Salt_Solvent_ID>
0

> <MPID>
98479

> <LogBCF>
3.92

> <Tr_1_Tst_0>
1

$$$$
100571
  Mrv171c012241911322D          

 22 23  0  0  0  0            999 V2000
    2.9970   -1.8270    0.0000 N   0  0  0  0  0  0  0  0  0  0  0  0
    3.7816   -1.5721    0.0000 C   0  0  0  0  0  0  0  0  0  0  0  0
    4.3947   -2.1241    0.0000 C   0  0  0  0  0  0  0  0  0  0  0  0
    4.2232   -2.9311    0.0000 Cl  0  0  0  0  0  0  0  0  0  0  0  0
    5.1794   -1.8692    0.0000 C   0  0  0  0  0  0  0  0  0  0  0  0
    5.3509   -1.0622    0.0000 C   0  0  0  0  0  0  0  0  0  0  0  0
    6.1355   -0.8073    0.0000 Cl  0  0  0  0  0  0  0  0  0  0  0  0
    4.7378   -0.5102    0.0000 C   0  0  0  0  0  0  0  0  0  0  0  0
    4.9093    0.2968    0.0000 O   0  0  0  0  0  0  0  0  0  0  0  0
    5.6939    0.5517    0.0000 C   0  0  0  0  0  0  0  0  0  0  0  0
    5.8655    1.3587    0.0000 C   0  0  0  0  0  0  0  0  0  0  0  0
    6.3070   -0.0003    0.0000 C   0  0  0  0  0  0  0  0  0  0  0  0
    3.9532   -0.7651    0.0000 C   0  0  0  0  0  0  0  0  0  0  0  0
    2.3296   -1.3421    0.0000 C   0  0  0  0  0  0  0  0  0  0  0  0
    2.3296   -0.5171    0.0000 O   0  0  0  0  0  0  0  0  0  0  0  0
    1.6621   -1.8270    0.0000 O   0  0  0  0  0  0  0  0  0  0  0  0
    1.9171   -2.6116    0.0000 C   0  0  0  0  0  0  0  0  0  0  0  0
    1.4322   -3.2791    0.0000 C   0  0  0  0  0  0  0  0  0  0  0  0
    0.9472   -3.9465    0.0000 C   0  0  0  0  0  0  0  0  0  0  0  0
    0.7647   -2.7941    0.0000 C   0  0  0  0  0  0  0  0  0  0  0  0
    2.0996   -3.7640    0.0000 C   0  0  0  0  0  0  0  0  0  0  0  0
    2.7421   -2.6116    0.0000 N   0  0  0  0  0  0  0  0  0  0  0  0
  1  2  1  0  0  0  0
  3  2  2  0  0  0  0
  3  4  1  0  0  0  0
  5  3  1  0  0  0  0
  6  5  2  0  0  0  0
  6  7  1  0  0  0  0
  8  6  1  0  0  0  0
  8  9  1  0  0  0  0
  9 10  1  0  0  0  0
 10 11  1  0  0  0  0
 10 12  1  0  0  0  0
 13  8  2  0  0  0  0
  2 13  1  0  0  0  0
 14  1  1  0  0  0  0
 14 15  2  0  0  0  0
 16 14  1  0  0  0  0
 17 16  1  0  0  0  0
 17 18  1  0  0  0  0
 18 19  1  0  0  0  0
 18 20  1  0  0  0  0
 18 21  1  0  0  0  0
 22 17  2  0  0  0  0
  1 22  1  0  0  0  0
M  END
> <ChemID>
100571

> <CAS>
19666-30-9

> <Original_SMILES>
CC(C)Oc1cc(c(Cl)cc1Cl)N1N=C(OC1=O)C(C)(C)C

> <preferred_name>
Oxadiazon

> <dsstox_substance_id>
DTXSID3024239

> <dsstox_compound_id>
DTXCID304239

> <qc_level>
DSSTox_Low

> <Canonical_QSARr>
CC(C)OC1=CC(=C(Cl)C=C1Cl)N1N=C(OC1=O)C(C)(C)C

> <InChI_Code_QSARr>
InChI=1S/C15H18Cl2N2O3/c1-8(2)21-12-7-11(9(16)6-10(12)17)19-14(20)22-13(18-19)15(3,4)5/h6-8H,1-5H3

> <InChI Key_QSARr>
CHNUNORXWHYHNE-UHFFFAOYSA-N

> <Salt_Solvent>


> <Salt_Solvent_ID>
0

> <MPID>
98480

> <LogBCF>
3.08

> <Tr_1_Tst_0>
1

$$$$
100572
  Mrv171c012241911322D          

 14 15  0  0  0  0            999 V2000
    0.1016   -0.8257    0.0000 Cl  0  0  0  0  0  0  0  0  0  0  0  0
    0.8160   -1.2382    0.0000 C   0  0  0  0  0  0  0  0  0  0  0  0
    1.5305   -0.8257    0.0000 C   0  0  0  0  0  0  0  0  0  0  0  0
    1.5305   -0.0007    0.0000 Cl  0  0  0  0  0  0  0  0  0  0  0  0
    2.2450   -1.2382    0.0000 C   0  0  0  0  0  0  0  0  0  0  0  0
    2.9594   -0.8257    0.0000 C   0  0  0  0  0  0  0  0  0  0  0  0
    3.6739   -1.2382    0.0000 C   0  0  0  0  0  0  0  0  0  0  0  0
    3.6739   -2.0632    0.0000 C   0  0  0  0  0  0  0  0  0  0  0  0
    2.9594   -2.4757    0.0000 C   0  0  0  0  0  0  0  0  0  0  0  0
    2.2450   -2.0632    0.0000 C   0  0  0  0  0  0  0  0  0  0  0  0
    1.5305   -2.4757    0.0000 C   0  0  0  0  0  0  0  0  0  0  0  0
    1.5305   -3.3007    0.0000 Cl  0  0  0  0  0  0  0  0  0  0  0  0
    0.8160   -2.0632    0.0000 C   0  0  0  0  0  0  0  0  0  0  0  0
    0.1016   -2.4757    0.0000 Cl  0  0  0  0  0  0  0  0  0  0  0  0
  1  2  1  0  0  0  0
  3  2  1  0  0  0  0
  3  4  1  0  0  0  0
  5  3  2  0  0  0  0
  5  6  1  0  0  0  0
  6  7  2  0  0  0  0
  7  8  1  0  0  0  0
  8  9  2  0  0  0  0
  9 10  1  0  0  0  0
 10  5  1  0  0  0  0
 11 10  2  0  0  0  0
 11 12  1  0  0  0  0
 13 11  1  0  0  0  0
  2 13  2  0  0  0  0
 13 14  1  0  0  0  0
M  END
> <ChemID>
100572

> <CAS>
20020-02-4

> <Original_SMILES>
Clc1c2ccccc2c(Cl)c(Cl)c1Cl

> <preferred_name>
1,2,3,4-Tetrachloronaphthalene

> <dsstox_substance_id>
DTXSID5026095

> <dsstox_compound_id>
DTXCID306095

> <qc_level>
DSSTox_Low

> <Canonical_QSARr>
ClC1=C2C=CC=CC2=C(Cl)C(Cl)=C1Cl

> <InChI_Code_QSARr>
InChI=1S/C10H4Cl4/c11-7-5-3-1-2-4-6(5)8(12)10(14)9(7)13/h1-4H

> <InChI Key_QSARr>
NAQWICRLNQSPPW-UHFFFAOYSA-N

> <Salt_Solvent>


> <Salt_Solvent_ID>
0

> <MPID>
98481

> <LogBCF>
3.7

> <Tr_1_Tst_0>
1

$$$$
100573
  Mrv171c012241911322D          

 14 15  0  0  0  0            999 V2000
    4.6266   -2.6270    0.0000 S   0  0  0  0  0  0  0  0  0  0  0  0
    3.9121   -2.2145    0.0000 C   0  0  0  0  0  0  0  0  0  0  0  0
    3.1976   -2.6270    0.0000 S   0  0  0  0  0  0  0  0  0  0  0  0
    2.4831   -2.2145    0.0000 C   0  0  0  0  0  0  0  0  0  0  0  0
    1.7295   -2.5501    0.0000 S   0  0  0  0  0  0  0  0  0  0  0  0
    1.1774   -1.9370    0.0000 C   0  0  0  0  0  0  0  0  0  0  0  0
    0.3524   -1.9370    0.0000 C   0  0  0  0  0  0  0  0  0  0  0  0
   -0.0601   -1.2225    0.0000 C   0  0  0  0  0  0  0  0  0  0  0  0
    0.3524   -0.5080    0.0000 C   0  0  0  0  0  0  0  0  0  0  0  0
    1.1774   -0.5080    0.0000 C   0  0  0  0  0  0  0  0  0  0  0  0
    1.5899   -1.2225    0.0000 C   0  0  0  0  0  0  0  0  0  0  0  0
    2.3969   -1.3940    0.0000 N   0  0  0  0  0  0  0  0  0  0  0  0
    5.3410   -2.2145    0.0000 C   0  0  0  0  0  0  0  0  0  0  0  0
    6.0555   -1.8020    0.0000 N   0  0  0  0  0  0  0  0  0  0  0  0
  1  2  1  0  0  0  0
  2  3  1  0  0  0  0
  3  4  1  0  0  0  0
  5  4  1  0  0  0  0
  6  5  1  0  0  0  0
  6  7  2  0  0  0  0
  7  8  1  0  0  0  0
  8  9  2  0  0  0  0
  9 10  1  0  0  0  0
 10 11  2  0  0  0  0
 11  6  1  0  0  0  0
 12 11  1  0  0  0  0
  4 12  2  0  0  0  0
  1 13  1  0  0  0  0
 13 14  3  0  0  0  0
M  END
> <ChemID>
100573

> <CAS>
21564-17-0

> <Original_SMILES>
N#CSCSc1[n]c2ccccc2[s]1

> <preferred_name>
2-(Thiocyanomethylthio)benzothiazole

> <dsstox_substance_id>
DTXSID6032647

> <dsstox_compound_id>
DTXCID4012647

> <qc_level>
DSSTox_Low

> <Canonical_QSARr>
N#CSCSC1=NC2=CC=CC=C2S1

> <InChI_Code_QSARr>
InChI=1S/C9H6N2S3/c10-5-12-6-13-9-11-7-3-1-2-4-8(7)14-9/h1-4H,6H2

> <InChI Key_QSARr>
TUBQDCKAWGHZPF-UHFFFAOYSA-N

> <Salt_Solvent>


> <Salt_Solvent_ID>
0

> <MPID>
98482

> <LogBCF>
2.32

> <Tr_1_Tst_0>
0

$$$$
100574
  Mrv171c012241911322D          

 20 21  0  0  0  0            999 V2000
    3.5825   -2.0683    0.0000 P   0  0  0  0  0  0  0  0  0  0  0  0
    2.7575   -2.0683    0.0000 O   0  0  0  0  0  0  0  0  0  0  0  0
    2.3450   -2.7828    0.0000 C   0  0  0  0  0  0  0  0  0  0  0  0
    3.5825   -2.8933    0.0000 C   0  0  0  0  0  0  0  0  0  0  0  0
    2.8680   -3.3058    0.0000 C   0  0  0  0  0  0  0  0  0  0  0  0
    2.8680   -4.1308    0.0000 C   0  0  0  0  0  0  0  0  0  0  0  0
    3.5825   -4.5433    0.0000 C   0  0  0  0  0  0  0  0  0  0  0  0
    4.2970   -4.1308    0.0000 C   0  0  0  0  0  0  0  0  0  0  0  0
    4.2970   -3.3058    0.0000 C   0  0  0  0  0  0  0  0  0  0  0  0
    4.4075   -2.0683    0.0000 S   0  0  0  0  0  0  0  0  0  0  0  0
    3.5825   -1.2433    0.0000 O   0  0  0  0  0  0  0  0  0  0  0  0
    2.8680   -0.8308    0.0000 C   0  0  0  0  0  0  0  0  0  0  0  0
    2.8680   -0.0058    0.0000 C   0  0  0  0  0  0  0  0  0  0  0  0
    3.5825    0.4067    0.0000 Cl  0  0  0  0  0  0  0  0  0  0  0  0
    2.1536    0.4067    0.0000 C   0  0  0  0  0  0  0  0  0  0  0  0
    1.4391   -0.0058    0.0000 C   0  0  0  0  0  0  0  0  0  0  0  0
    0.7246    0.4067    0.0000 Br  0  0  0  0  0  0  0  0  0  0  0  0
    1.4391   -0.8308    0.0000 C   0  0  0  0  0  0  0  0  0  0  0  0
    0.7246   -1.2433    0.0000 Cl  0  0  0  0  0  0  0  0  0  0  0  0
    2.1536   -1.2433    0.0000 C   0  0  0  0  0  0  0  0  0  0  0  0
  1  2  1  0  0  0  0
  2  3  1  0  0  0  0
  1  4  1  0  0  0  0
  5  4  2  0  0  0  0
  6  5  1  0  0  0  0
  7  6  2  0  0  0  0
  8  7  1  0  0  0  0
  9  8  2  0  0  0  0
  4  9  1  0  0  0  0
  1 10  2  0  0  0  0
  1 11  1  0  0  0  0
 11 12  1  0  0  0  0
 13 12  1  0  0  0  0
 13 14  1  0  0  0  0
 15 13  2  0  0  0  0
 16 15  1  0  0  0  0
 16 17  1  0  0  0  0
 18 16  2  0  0  0  0
 18 19  1  0  0  0  0
 20 18  1  0  0  0  0
 12 20  2  0  0  0  0
M  END
> <ChemID>
100574

> <CAS>
21609-90-5

> <Original_SMILES>
COP(=S)(Oc1cc(Cl)c(Br)cc1Cl)c1ccccc1

> <preferred_name>
Leptophos

> <dsstox_substance_id>
DTXSID3040279

> <dsstox_compound_id>
DTXCID1020279

> <qc_level>
DSSTox_Low

> <Canonical_QSARr>
COP(=S)(OC1=CC(Cl)=C(Br)C=C1Cl)C1C=CC=CC=1

> <InChI_Code_QSARr>
InChI=1S/C13H10BrCl2O2PS/c1-17-19(20,9-5-3-2-4-6-9)18-13-8-11(15)10(14)7-12(13)16/h2-8H,1H3

> <InChI Key_QSARr>
CVRALZAYCYJELZ-UHFFFAOYSA-N

> <Salt_Solvent>


> <Salt_Solvent_ID>
0

> <MPID>
98483

> <LogBCF>
3.78

> <Tr_1_Tst_0>
1

$$$$
100575
  Mrv171c012241911322D          

 31 33  0  0  0  0            999 V2000
    5.0558   -3.8432    0.0000 C   0  0  0  0  0  0  0  0  0  0  0  0
    5.7703   -3.4307    0.0000 S   0  0  0  0  0  0  0  0  0  0  0  0
    6.4848   -3.0182    0.0000 O   0  0  0  0  0  0  0  0  0  0  0  0
    6.1828   -4.1452    0.0000 O   0  0  0  0  0  0  0  0  0  0  0  0
    5.3578   -2.7163    0.0000 O   0  0  0  0  0  0  0  0  0  0  0  0
    4.3414   -3.4307    0.0000 C   0  0  0  0  0  0  0  0  0  0  0  0
    4.3414   -2.6057    0.0000 O   0  0  0  0  0  0  0  0  0  0  0  0
    3.6269   -2.1932    0.0000 C   0  0  0  0  0  0  0  0  0  0  0  0
    3.6269   -1.3682    0.0000 C   0  0  0  0  0  0  0  0  0  0  0  0
    2.9124   -0.9557    0.0000 C   0  0  0  0  0  0  0  0  0  0  0  0
    2.1980   -1.3682    0.0000 C   0  0  0  0  0  0  0  0  0  0  0  0
    1.4835   -0.9557    0.0000 Cl  0  0  0  0  0  0  0  0  0  0  0  0
    2.1980   -2.1932    0.0000 C   0  0  0  0  0  0  0  0  0  0  0  0
    2.9124   -2.6057    0.0000 C   0  0  0  0  0  0  0  0  0  0  0  0
    2.9124   -3.4307    0.0000 N   0  0  0  0  0  0  0  0  0  0  0  0
    2.1980   -3.8432    0.0000 C   0  0  0  0  0  0  0  0  0  0  0  0
    1.4835   -3.4307    0.0000 O   0  0  0  0  0  0  0  0  0  0  0  0
    2.1980   -4.6682    0.0000 N   0  0  0  0  0  0  0  0  0  0  0  0
    1.4835   -5.0807    0.0000 C   0  0  0  0  0  0  0  0  0  0  0  0
    0.7690   -4.6682    0.0000 C   0  0  0  0  0  0  0  0  0  0  0  0
    0.0545   -5.0807    0.0000 C   0  0  0  0  0  0  0  0  0  0  0  0
    0.0545   -5.9057    0.0000 C   0  0  0  0  0  0  0  0  0  0  0  0
   -0.6599   -6.3182    0.0000 Cl  0  0  0  0  0  0  0  0  0  0  0  0
    0.7690   -6.3182    0.0000 C   0  0  0  0  0  0  0  0  0  0  0  0
    0.7690   -7.1432    0.0000 Cl  0  0  0  0  0  0  0  0  0  0  0  0
    1.4835   -5.9057    0.0000 C   0  0  0  0  0  0  0  0  0  0  0  0
    3.6269   -3.8432    0.0000 C   0  0  0  0  0  0  0  0  0  0  0  0
    3.6269   -4.6682    0.0000 C   0  0  0  0  0  0  0  0  0  0  0  0
    4.3414   -5.0807    0.0000 C   0  0  0  0  0  0  0  0  0  0  0  0
    4.3414   -5.9057    0.0000 Cl  0  0  0  0  0  0  0  0  0  0  0  0
    5.0558   -4.6682    0.0000 C   0  0  0  0  0  0  0  0  0  0  0  0
  1  2  1  0  0  0  0
  2  3  2  0  0  0  0
  2  4  1  0  0  0  0
  2  5  2  0  0  0  0
  6  1  1  0  0  0  0
  6  7  1  0  0  0  0
  7  8  1  0  0  0  0
  9  8  1  0  0  0  0
 10  9  2  0  0  0  0
 11 10  1  0  0  0  0
 11 12  1  0  0  0  0
 13 11  2  0  0  0  0
 14 13  1  0  0  0  0
  8 14  2  0  0  0  0
 14 15  1  0  0  0  0
 15 16  1  0  0  0  0
 16 17  2  0  0  0  0
 16 18  1  0  0  0  0
 18 19  1  0  0  0  0
 20 19  1  0  0  0  0
 21 20  2  0  0  0  0
 22 21  1  0  0  0  0
 22 23  1  0  0  0  0
 24 22  2  0  0  0  0
 24 25  1  0  0  0  0
 26 24  1  0  0  0  0
 19 26  2  0  0  0  0
 27  6  2  0  0  0  0
 28 27  1  0  0  0  0
 29 28  2  0  0  0  0
 29 30  1  0  0  0  0
 31 29  1  0  0  0  0
  1 31  2  0  0  0  0
M  END
> <ChemID>
100575

> <CAS>
24019-05-4

> <Original_SMILES>
OS(=O)(=O)c1cc(Cl)ccc1Oc1ccc(Cl)cc1NC(=O)Nc1cc(Cl)c(Cl)cc1

> <preferred_name>
Sulcofuron

> <dsstox_substance_id>
DTXSID9058656

> <dsstox_compound_id>
DTXCID7032341

> <qc_level>
DSSTox_High

> <Canonical_QSARr>
OS(=O)(=O)C1=CC(Cl)=CC=C1OC1C=CC(Cl)=CC=1NC(=O)NC1=CC(Cl)=C(Cl)C=C1

> <InChI_Code_QSARr>
InChI=1S/C19H12Cl4N2O5S/c20-10-1-5-16(30-17-6-2-11(21)8-18(17)31(27,28)29)15(7-10)25-19(26)24-12-3-4-13(22)14(23)9-12/h1-9H,(H2,24,25,26)(H,27,28,29)

> <InChI Key_QSARr>
MKUMTCOTMQPYTQ-UHFFFAOYSA-N

> <Salt_Solvent>


> <Salt_Solvent_ID>
0

> <MPID>
98484

> <LogBCF>
1.87

> <Tr_1_Tst_0>
1

$$$$
100579
  Mrv171c012241911322D          

 22 22  0  0  0  0            999 V2000
    2.4121   -2.3208    0.0000 P   0  0  0  0  0  0  0  0  0  0  0  0
    1.6977   -2.7333    0.0000 O   0  0  0  0  0  0  0  0  0  0  0  0
    0.9832   -2.3208    0.0000 C   0  0  0  0  0  0  0  0  0  0  0  0
    0.2687   -2.7333    0.0000 C   0  0  0  0  0  0  0  0  0  0  0  0
    2.8246   -3.0352    0.0000 S   0  0  0  0  0  0  0  0  0  0  0  0
    1.9996   -1.6063    0.0000 N   0  0  0  0  0  0  0  0  0  0  0  0
    2.4121   -0.8918    0.0000 C   0  0  0  0  0  0  0  0  0  0  0  0
    3.2371   -0.8918    0.0000 C   0  0  0  0  0  0  0  0  0  0  0  0
    1.9996   -0.1773    0.0000 C   0  0  0  0  0  0  0  0  0  0  0  0
    3.1266   -1.9083    0.0000 O   0  0  0  0  0  0  0  0  0  0  0  0
    3.8411   -2.3208    0.0000 C   0  0  0  0  0  0  0  0  0  0  0  0
    3.8411   -3.1458    0.0000 C   0  0  0  0  0  0  0  0  0  0  0  0
    4.5555   -3.5583    0.0000 C   0  0  0  0  0  0  0  0  0  0  0  0
    5.2700   -3.1458    0.0000 C   0  0  0  0  0  0  0  0  0  0  0  0
    5.2700   -2.3208    0.0000 C   0  0  0  0  0  0  0  0  0  0  0  0
    4.5555   -1.9083    0.0000 C   0  0  0  0  0  0  0  0  0  0  0  0
    4.5555   -1.0833    0.0000 C   0  0  0  0  0  0  0  0  0  0  0  0
    5.2700   -0.6708    0.0000 O   0  0  0  0  0  0  0  0  0  0  0  0
    3.8411   -0.6708    0.0000 O   0  0  0  0  0  0  0  0  0  0  0  0
    3.8411    0.1542    0.0000 C   0  0  0  0  0  0  0  0  0  0  0  0
    4.5555    0.5667    0.0000 C   0  0  0  0  0  0  0  0  0  0  0  0
    3.1266    0.5667    0.0000 C   0  0  0  0  0  0  0  0  0  0  0  0
  1  2  1  0  0  0  0
  2  3  1  0  0  0  0
  3  4  1  0  0  0  0
  1  5  2  0  0  0  0
  1  6  1  0  0  0  0
  6  7  1  0  0  0  0
  7  8  1  0  0  0  0
  7  9  1  0  0  0  0
  1 10  1  0  0  0  0
 10 11  1  0  0  0  0
 12 11  2  0  0  0  0
 13 12  1  0  0  0  0
 14 13  2  0  0  0  0
 15 14  1  0  0  0  0
 16 15  2  0  0  0  0
 11 16  1  0  0  0  0
 16 17  1  0  0  0  0
 17 18  2  0  0  0  0
 17 19  1  0  0  0  0
 19 20  1  0  0  0  0
 20 21  1  0  0  0  0
 20 22  1  0  0  0  0
M  END
> <ChemID>
100579

> <CAS>
25311-71-1

> <Original_SMILES>
CCOP(=S)(NC(C)C)Oc1ccccc1C(=O)OC(C)C

> <preferred_name>
Isofenphos

> <dsstox_substance_id>
DTXSID8032417

> <dsstox_compound_id>
DTXCID6012417

> <qc_level>
DSSTox_Low

> <Canonical_QSARr>
CCOP(=S)(NC(C)C)OC1=CC=CC=C1C(=O)OC(C)C

> <InChI_Code_QSARr>
InChI=1S/C15H24NO4PS/c1-6-18-21(22,16-11(2)3)20-14-10-8-7-9-13(14)15(17)19-12(4)5/h7-12H,6H2,1-5H3,(H,16,22)

> <InChI Key_QSARr>
HOQADATXFBOEGG-UHFFFAOYSA-N

> <Salt_Solvent>


> <Salt_Solvent_ID>
0

> <MPID>
98485

> <LogBCF>
2.12

> <Tr_1_Tst_0>
1

$$$$
100586
  Mrv171c012241911322D          

 18 18  0  0  0  0            999 V2000
    4.0831    1.1658    0.0000 C   0  0  0  0  0  0  0  0  0  0  0  0
    4.0831    0.3408    0.0000 C   0  0  0  0  0  0  0  0  0  0  0  0
    3.3687   -0.0717    0.0000 O   0  0  0  0  0  0  0  0  0  0  0  0
    3.3687   -0.8967    0.0000 P   0  0  0  0  0  0  0  0  0  0  0  0
    3.3687   -1.7217    0.0000 S   0  0  0  0  0  0  0  0  0  0  0  0
    2.6542   -2.1342    0.0000 C   0  0  0  0  0  0  0  0  0  0  0  0
    2.6542   -2.9592    0.0000 C   0  0  0  0  0  0  0  0  0  0  0  0
    1.9397   -3.3717    0.0000 C   0  0  0  0  0  0  0  0  0  0  0  0
    1.9397   -4.1967    0.0000 C   0  0  0  0  0  0  0  0  0  0  0  0
    2.6542   -4.6092    0.0000 C   0  0  0  0  0  0  0  0  0  0  0  0
    3.3687   -4.1967    0.0000 C   0  0  0  0  0  0  0  0  0  0  0  0
    3.3687   -3.3717    0.0000 C   0  0  0  0  0  0  0  0  0  0  0  0
    2.5437   -0.8967    0.0000 O   0  0  0  0  0  0  0  0  0  0  0  0
    2.1312   -0.1822    0.0000 C   0  0  0  0  0  0  0  0  0  0  0  0
    2.5437    0.5322    0.0000 C   0  0  0  0  0  0  0  0  0  0  0  0
    1.3062   -0.1822    0.0000 C   0  0  0  0  0  0  0  0  0  0  0  0
    4.1937   -0.8967    0.0000 O   0  0  0  0  0  0  0  0  0  0  0  0
    4.7976   -0.0717    0.0000 C   0  0  0  0  0  0  0  0  0  0  0  0
  1  2  1  0  0  0  0
  2  3  1  0  0  0  0
  3  4  1  0  0  0  0
  4  5  1  0  0  0  0
  5  6  1  0  0  0  0
  6  7  1  0  0  0  0
  8  7  1  0  0  0  0
  9  8  2  0  0  0  0
 10  9  1  0  0  0  0
 11 10  2  0  0  0  0
 12 11  1  0  0  0  0
  7 12  2  0  0  0  0
  4 13  1  0  0  0  0
 13 14  1  0  0  0  0
 14 15  1  0  0  0  0
 14 16  1  0  0  0  0
  4 17  2  0  0  0  0
  2 18  1  0  0  0  0
M  END
> <ChemID>
100586

> <CAS>
26087-47-8

> <Original_SMILES>
CC(C)OP(=O)(OC(C)C)SCc1ccccc1

> <preferred_name>
Iprobenfos

> <dsstox_substance_id>
DTXSID7058040

> <dsstox_compound_id>
DTXCID9031808

> <qc_level>
DSSTox_High

> <Canonical_QSARr>
CC(C)OP(=O)(OC(C)C)SCC1C=CC=CC=1

> <InChI_Code_QSARr>
InChI=1S/C13H21O3PS/c1-11(2)15-17(14,16-12(3)4)18-10-13-8-6-5-7-9-13/h5-9,11-12H,10H2,1-4H3

> <InChI Key_QSARr>
FCOAHACKGGIURQ-UHFFFAOYSA-N

> <Salt_Solvent>


> <Salt_Solvent_ID>
0

> <MPID>
98486

> <LogBCF>
0.94

> <Tr_1_Tst_0>
0

$$$$
100591
  Mrv171c012241911322D          

 32 32  0  0  0  0            999 V2000
   -3.0798   -0.5946    0.0000 C   0  0  0  0  0  0  0  0  0  0  0  0
   -2.3653   -0.1821    0.0000 C   0  0  0  0  0  0  0  0  0  0  0  0
   -1.6509   -0.5946    0.0000 C   0  0  0  0  0  0  0  0  0  0  0  0
   -0.9364   -0.1821    0.0000 O   0  0  0  0  0  0  0  0  0  0  0  0
   -1.6509   -1.4196    0.0000 O   0  0  0  0  0  0  0  0  0  0  0  0
   -2.3653   -1.8321    0.0000 C   0  0  0  0  0  0  0  0  0  0  0  0
   -3.0798   -1.4196    0.0000 C   0  0  0  0  0  0  0  0  0  0  0  0
   -3.7943   -1.8321    0.0000 C   0  0  0  0  0  0  0  0  0  0  0  0
   -4.5088   -1.4196    0.0000 C   0  0  0  0  0  0  0  0  0  0  0  0
   -5.2232   -1.8321    0.0000 C   0  0  0  0  0  0  0  0  0  0  0  0
   -5.9377   -1.4196    0.0000 C   0  0  0  0  0  0  0  0  0  0  0  0
   -6.6522   -1.8321    0.0000 C   0  0  0  0  0  0  0  0  0  0  0  0
   -7.3666   -1.4196    0.0000 C   0  0  0  0  0  0  0  0  0  0  0  0
   -8.0811   -1.8321    0.0000 C   0  0  0  0  0  0  0  0  0  0  0  0
   -7.3666   -0.5946    0.0000 C   0  0  0  0  0  0  0  0  0  0  0  0
   -2.3653    0.6429    0.0000 C   0  0  0  0  0  0  0  0  0  0  0  0
   -1.6509    1.0554    0.0000 C   0  0  0  0  0  0  0  0  0  0  0  0
   -0.9364    0.6429    0.0000 O   0  0  0  0  0  0  0  0  0  0  0  0
   -0.2219    1.0554    0.0000 C   0  0  0  0  0  0  0  0  0  0  0  0
    0.4925    0.6429    0.0000 C   0  0  0  0  0  0  0  0  0  0  0  0
    1.2070    1.0554    0.0000 C   0  0  0  0  0  0  0  0  0  0  0  0
    1.9215    0.6429    0.0000 C   0  0  0  0  0  0  0  0  0  0  0  0
    2.6359    1.0554    0.0000 C   0  0  0  0  0  0  0  0  0  0  0  0
    3.3504    0.6429    0.0000 C   0  0  0  0  0  0  0  0  0  0  0  0
    4.0649    1.0554    0.0000 C   0  0  0  0  0  0  0  0  0  0  0  0
    4.7794    0.6429    0.0000 C   0  0  0  0  0  0  0  0  0  0  0  0
    5.4938    1.0554    0.0000 C   0  0  0  0  0  0  0  0  0  0  0  0
    4.7794   -0.1821    0.0000 C   0  0  0  0  0  0  0  0  0  0  0  0
   -1.6509    1.8804    0.0000 O   0  0  0  0  0  0  0  0  0  0  0  0
   -3.0798    1.0554    0.0000 C   0  0  0  0  0  0  0  0  0  0  0  0
   -3.7943    0.6429    0.0000 C   0  0  0  0  0  0  0  0  0  0  0  0
   -3.7943   -0.1821    0.0000 C   0  0  0  0  0  0  0  0  0  0  0  0
  2  1  1  0  0  0  0
  2  3  1  0  0  0  0
  3  4  2  0  0  0  0
  3  5  1  0  0  0  0
  5  6  1  0  0  0  0
  6  7  1  0  0  0  0
  7  8  1  0  0  0  0
  8  9  1  0  0  0  0
  9 10  1  0  0  0  0
 10 11  1  0  0  0  0
 11 12  1  0  0  0  0
 12 13  1  0  0  0  0
 13 14  1  0  0  0  0
 13 15  1  0  0  0  0
 16  2  2  0  0  0  0
 16 17  1  0  0  0  0
 17 18  1  0  0  0  0
 18 19  1  0  0  0  0
 19 20  1  0  0  0  0
 20 21  1  0  0  0  0
 21 22  1  0  0  0  0
 22 23  1  0  0  0  0
 23 24  1  0  0  0  0
 24 25  1  0  0  0  0
 25 26  1  0  0  0  0
 26 27  1  0  0  0  0
 26 28  1  0  0  0  0
 17 29  2  0  0  0  0
 30 16  1  0  0  0  0
 31 30  2  0  0  0  0
 32 31  1  0  0  0  0
  1 32  2  0  0  0  0
M  END
> <ChemID>
100591

> <CAS>
26761-40-0

> <Original_SMILES>
CC(C)CCCCCCCOC(=O)c1ccccc1C(=O)OCCCCCCCC(C)C

> <preferred_name>
bis(8-Methylnonyl) phthalate

> <dsstox_substance_id>
DTXSID4025082

> <dsstox_compound_id>
DTXCID201323299

> <qc_level>
DSSTox_High

> <Canonical_QSARr>
CC(C)CCCCCCCOC(=O)C1C=CC=CC=1C(=O)OCCCCCCCC(C)C

> <InChI_Code_QSARr>
InChI=1S/C28H46O4/c1-23(2)17-11-7-5-9-15-21-31-27(29)25-19-13-14-20-26(25)28(30)32-22-16-10-6-8-12-18-24(3)4/h13-14,19-20,23-24H,5-12,15-18,21-22H2,1-4H3

> <InChI Key_QSARr>
ZVFDTKUVRCTHQE-UHFFFAOYSA-N

> <Salt_Solvent>


> <Salt_Solvent_ID>
0

> <MPID>
98487

> <LogBCF>
1.16

> <Tr_1_Tst_0>
1

$$$$
100594
  Mrv171c012241911322D          

 10 10  0  0  0  0            999 V2000
    1.2954   -1.0656    0.0000 C   0  0  0  0  0  0  0  0  0  0  0  0
    0.5810   -0.6531    0.0000 C   0  0  0  0  0  0  0  0  0  0  0  0
    0.5810    0.1719    0.0000 C   0  0  0  0  0  0  0  0  0  0  0  0
    1.2954   -1.8906    0.0000 C   0  0  0  0  0  0  0  0  0  0  0  0
    2.0099   -2.3031    0.0000 C   0  0  0  0  0  0  0  0  0  0  0  0
    2.7244   -1.8906    0.0000 C   0  0  0  0  0  0  0  0  0  0  0  0
    2.7244   -1.0656    0.0000 C   0  0  0  0  0  0  0  0  0  0  0  0
    2.0099   -0.6531    0.0000 C   0  0  0  0  0  0  0  0  0  0  0  0
    2.0099    0.1719    0.0000 C   0  0  0  0  0  0  0  0  0  0  0  0
    1.2954    0.5844    0.0000 C   0  0  0  0  0  0  0  0  0  0  0  0
  1  2  1  0  0  0  0
  2  3  2  0  0  0  0
  4  1  1  0  0  0  0
  5  4  2  0  0  0  0
  6  5  1  0  0  0  0
  7  6  2  0  0  0  0
  8  7  1  0  0  0  0
  1  8  2  0  0  0  0
  8  9  1  0  0  0  0
  9 10  1  0  0  0  0
M  END
> <ChemID>
100594

> <CAS>
28106-30-1

> <Original_SMILES>
CCc1ccccc1C=C

> <preferred_name>
Ethylstyrene

> <dsstox_substance_id>
DTXSID5027938

> <dsstox_compound_id>
DTXCID607938

> <qc_level>
DSSTox_Low

> <Canonical_QSARr>
CCC1C=CC=CC=1C=C

> <InChI_Code_QSARr>
InChI=1S/C10H12/c1-3-9-7-5-6-8-10(9)4-2/h3,5-8H,1,4H2,2H3

> <InChI Key_QSARr>
VTPNYMSKBPZSTF-UHFFFAOYSA-N

> <Salt_Solvent>


> <Salt_Solvent_ID>
0

> <MPID>
98488

> <LogBCF>
2.69

> <Tr_1_Tst_0>
1

$$$$
100595
  Mrv171c012241911322D          

 16 16  0  0  0  0            999 V2000
    2.4881   -2.4750    0.0000 C   0  0  0  0  0  0  0  0  0  0  0  0
    1.6631   -2.4750    0.0000 N   0  0  0  0  0  0  0  0  0  0  0  0
    1.2506   -3.1894    0.0000 C   0  0  0  0  0  0  0  0  0  0  0  0
    0.4256   -3.1894    0.0000 C   0  0  0  0  0  0  0  0  0  0  0  0
    1.2506   -1.7605    0.0000 C   0  0  0  0  0  0  0  0  0  0  0  0
    1.6631   -1.0460    0.0000 C   0  0  0  0  0  0  0  0  0  0  0  0
    2.9006   -1.7605    0.0000 S   0  0  0  0  0  0  0  0  0  0  0  0
    3.7256   -1.7605    0.0000 C   0  0  0  0  0  0  0  0  0  0  0  0
    4.1381   -1.0460    0.0000 C   0  0  0  0  0  0  0  0  0  0  0  0
    4.9631   -1.0460    0.0000 C   0  0  0  0  0  0  0  0  0  0  0  0
    5.3756   -0.3316    0.0000 C   0  0  0  0  0  0  0  0  0  0  0  0
    4.9631    0.3829    0.0000 C   0  0  0  0  0  0  0  0  0  0  0  0
    5.3756    1.0974    0.0000 Cl  0  0  0  0  0  0  0  0  0  0  0  0
    4.1381    0.3829    0.0000 C   0  0  0  0  0  0  0  0  0  0  0  0
    3.7256   -0.3316    0.0000 C   0  0  0  0  0  0  0  0  0  0  0  0
    2.9006   -3.1894    0.0000 O   0  0  0  0  0  0  0  0  0  0  0  0
  1  2  1  0  0  0  0
  2  3  1  0  0  0  0
  3  4  1  0  0  0  0
  2  5  1  0  0  0  0
  5  6  1  0  0  0  0
  1  7  1  0  0  0  0
  7  8  1  0  0  0  0
  8  9  1  0  0  0  0
 10  9  1  0  0  0  0
 11 10  2  0  0  0  0
 12 11  1  0  0  0  0
 12 13  1  0  0  0  0
 14 12  2  0  0  0  0
 15 14  1  0  0  0  0
  9 15  2  0  0  0  0
  1 16  2  0  0  0  0
M  END
> <ChemID>
100595

> <CAS>
28249-77-6

> <Original_SMILES>
CCN(CC)C(=O)SCc1ccc(Cl)cc1

> <preferred_name>
Thiobencarb

> <dsstox_substance_id>
DTXSID6024337

> <dsstox_compound_id>
DTXCID704337

> <qc_level>
DSSTox_Low

> <Canonical_QSARr>
CCN(CC)C(=O)SCC1C=CC(Cl)=CC=1

> <InChI_Code_QSARr>
InChI=1S/C12H16ClNOS/c1-3-14(4-2)12(15)16-9-10-5-7-11(13)8-6-10/h5-8H,3-4,9H2,1-2H3

> <InChI Key_QSARr>
QHTQREMOGMZHJV-UHFFFAOYSA-N

> <Salt_Solvent>


> <Salt_Solvent_ID>
0

> <MPID>
98489

> <LogBCF>
2.23

> <Tr_1_Tst_0>
1

$$$$
100598
  Mrv171c012241911322D          

 16 16  0  0  0  0            999 V2000
    3.2370   -0.5831    0.0000 Cl  0  0  0  0  0  0  0  0  0  0  0  0
    2.5225   -0.9956    0.0000 C   0  0  0  0  0  0  0  0  0  0  0  0
    1.8080   -0.5831    0.0000 C   0  0  0  0  0  0  0  0  0  0  0  0
    1.8080    0.2419    0.0000 Cl  0  0  0  0  0  0  0  0  0  0  0  0
    1.0935   -0.9956    0.0000 C   0  0  0  0  0  0  0  0  0  0  0  0
    0.3791   -0.5831    0.0000 Cl  0  0  0  0  0  0  0  0  0  0  0  0
    1.0935   -1.8206    0.0000 C   0  0  0  0  0  0  0  0  0  0  0  0
    0.3791   -2.2331    0.0000 Cl  0  0  0  0  0  0  0  0  0  0  0  0
    1.8080   -2.2331    0.0000 C   0  0  0  0  0  0  0  0  0  0  0  0
    1.8080   -3.0581    0.0000 Cl  0  0  0  0  0  0  0  0  0  0  0  0
    2.5225   -1.8206    0.0000 C   0  0  0  0  0  0  0  0  0  0  0  0
    3.2370   -2.2331    0.0000 C   0  0  0  0  0  0  0  0  0  0  0  0
    3.2370   -3.0581    0.0000 Cl  0  0  0  0  0  0  0  0  0  0  0  0
    3.9514   -1.8206    0.0000 C   0  0  0  0  0  0  0  0  0  0  0  0
    3.9514   -0.9956    0.0000 Cl  0  0  0  0  0  0  0  0  0  0  0  0
    4.6659   -2.2331    0.0000 Cl  0  0  0  0  0  0  0  0  0  0  0  0
  1  2  1  0  0  0  0
  3  2  1  0  0  0  0
  3  4  1  0  0  0  0
  5  3  2  0  0  0  0
  5  6  1  0  0  0  0
  7  5  1  0  0  0  0
  7  8  1  0  0  0  0
  9  7  2  0  0  0  0
  9 10  1  0  0  0  0
 11  9  1  0  0  0  0
  2 11  2  0  0  0  0
 11 12  1  0  0  0  0
 12 13  1  0  0  0  0
 12 14  2  0  0  0  0
 14 15  1  0  0  0  0
 14 16  1  0  0  0  0
M  END
> <ChemID>
100598

> <CAS>
29082-74-4

> <Original_SMILES>
ClC(Cl)=C(Cl)c1c(Cl)c(Cl)c(Cl)c(Cl)c1Cl

> <preferred_name>
Octachlorostyrene

> <dsstox_substance_id>
DTXSID2021074

> <dsstox_compound_id>
DTXCID801074

> <qc_level>
DSSTox_Low

> <Canonical_QSARr>
ClC(Cl)=C(Cl)C1C(Cl)=C(Cl)C(Cl)=C(Cl)C=1Cl

> <InChI_Code_QSARr>
InChI=1S/C8Cl8/c9-2-1(4(11)8(15)16)3(10)6(13)7(14)5(2)12

> <InChI Key_QSARr>
RUYUCCQRWINUHE-UHFFFAOYSA-N

> <Salt_Solvent>


> <Salt_Solvent_ID>
0

> <MPID>
98490

> <LogBCF>
3.91

> <Tr_1_Tst_0>
0

$$$$
100602
  Mrv171c012241911322D          

 18 20  0  0  0  0            999 V2000
    2.8579   -0.0000    0.0000 C   0  0  0  0  0  0  0  0  0  0  0  0
    3.5724   -0.4125    0.0000 C   0  0  0  0  0  0  0  0  0  0  0  0
    3.5724   -1.2375    0.0000 Cl  0  0  0  0  0  0  0  0  0  0  0  0
    4.2868    0.0000    0.0000 C   0  0  0  0  0  0  0  0  0  0  0  0
    5.0013   -0.4125    0.0000 Cl  0  0  0  0  0  0  0  0  0  0  0  0
    4.2868    0.8250    0.0000 C   0  0  0  0  0  0  0  0  0  0  0  0
    5.0013    1.2375    0.0000 Cl  0  0  0  0  0  0  0  0  0  0  0  0
    3.5724    1.2375    0.0000 C   0  0  0  0  0  0  0  0  0  0  0  0
    3.5724    2.0625    0.0000 Cl  0  0  0  0  0  0  0  0  0  0  0  0
    2.8579    0.8250    0.0000 C   0  0  0  0  0  0  0  0  0  0  0  0
    2.1434    1.2375    0.0000 O   0  0  0  0  0  0  0  0  0  0  0  0
    1.4289    0.8250    0.0000 C   0  0  0  0  0  0  0  0  0  0  0  0
    1.4289    0.0000    0.0000 C   0  0  0  0  0  0  0  0  0  0  0  0
    0.7145   -0.4125    0.0000 C   0  0  0  0  0  0  0  0  0  0  0  0
    0.0000   -0.0000    0.0000 C   0  0  0  0  0  0  0  0  0  0  0  0
    0.0000    0.8250    0.0000 C   0  0  0  0  0  0  0  0  0  0  0  0
    0.7145    1.2375    0.0000 C   0  0  0  0  0  0  0  0  0  0  0  0
    2.1434   -0.4125    0.0000 O   0  0  0  0  0  0  0  0  0  0  0  0
  2  1  1  0  0  0  0
  2  3  1  0  0  0  0
  4  2  2  0  0  0  0
  4  5  1  0  0  0  0
  6  4  1  0  0  0  0
  6  7  1  0  0  0  0
  8  6  2  0  0  0  0
  8  9  1  0  0  0  0
 10  8  1  0  0  0  0
 10  1  2  0  0  0  0
 11 10  1  0  0  0  0
 12 11  1  0  0  0  0
 12 13  1  0  0  0  0
 13 14  2  0  0  0  0
 14 15  1  0  0  0  0
 15 16  2  0  0  0  0
 16 17  1  0  0  0  0
 17 12  2  0  0  0  0
 18 13  1  0  0  0  0
  1 18  1  0  0  0  0
M  END
> <ChemID>
100602

> <CAS>
30746-58-8

> <Original_SMILES>
Clc1c2Oc3ccccc3Oc2c(Cl)c(Cl)c1Cl

> <preferred_name>
1,2,3,4-Tetrachlorodibenzo-p-dioxin

> <dsstox_substance_id>
DTXSID7074030

> <dsstox_compound_id>
DTXCID5038252

> <qc_level>
Public_High

> <Canonical_QSARr>
ClC1C2OC3=CC=CC=C3OC=2C(Cl)=C(Cl)C=1Cl

> <InChI_Code_QSARr>
InChI=1S/C12H4Cl4O2/c13-7-8(14)10(16)12-11(9(7)15)17-5-3-1-2-4-6(5)18-12/h1-4H

> <InChI Key_QSARr>
DJHHDLMTUOLVHY-UHFFFAOYSA-N

> <Salt_Solvent>


> <Salt_Solvent_ID>
0

> <MPID>
98491

> <LogBCF>
3.46

> <Tr_1_Tst_0>
1

$$$$
100603
  Mrv171c012241911322D          

 16 17  0  0  0  0            999 V2000
    2.1949   -1.1224    0.0000 C   0  0  0  0  0  0  0  0  0  0  0  0
    2.1949   -0.2974    0.0000 C   0  0  0  0  0  0  0  0  0  0  0  0
    1.4804    0.1151    0.0000 C   0  0  0  0  0  0  0  0  0  0  0  0
    1.4804    0.9401    0.0000 Cl  0  0  0  0  0  0  0  0  0  0  0  0
    0.7659   -0.2974    0.0000 C   0  0  0  0  0  0  0  0  0  0  0  0
    0.7659   -1.1224    0.0000 C   0  0  0  0  0  0  0  0  0  0  0  0
    1.4804   -1.5349    0.0000 C   0  0  0  0  0  0  0  0  0  0  0  0
    1.4804   -2.3599    0.0000 Cl  0  0  0  0  0  0  0  0  0  0  0  0
    2.9093   -1.5349    0.0000 C   0  0  0  0  0  0  0  0  0  0  0  0
    2.9093   -2.3599    0.0000 C   0  0  0  0  0  0  0  0  0  0  0  0
    3.6238   -2.7724    0.0000 C   0  0  0  0  0  0  0  0  0  0  0  0
    4.3383   -2.3599    0.0000 C   0  0  0  0  0  0  0  0  0  0  0  0
    5.0528   -2.7724    0.0000 Cl  0  0  0  0  0  0  0  0  0  0  0  0
    4.3383   -1.5349    0.0000 C   0  0  0  0  0  0  0  0  0  0  0  0
    5.0528   -1.1224    0.0000 Cl  0  0  0  0  0  0  0  0  0  0  0  0
    3.6238   -1.1224    0.0000 C   0  0  0  0  0  0  0  0  0  0  0  0
  2  1  1  0  0  0  0
  3  2  2  0  0  0  0
  3  4  1  0  0  0  0
  5  3  1  0  0  0  0
  6  5  2  0  0  0  0
  7  6  1  0  0  0  0
  1  7  2  0  0  0  0
  7  8  1  0  0  0  0
  1  9  1  0  0  0  0
 10  9  1  0  0  0  0
 11 10  2  0  0  0  0
 12 11  1  0  0  0  0
 12 13  1  0  0  0  0
 14 12  2  0  0  0  0
 14 15  1  0  0  0  0
 16 14  1  0  0  0  0
  9 16  2  0  0  0  0
M  END
> <ChemID>
100603

> <CAS>
32598-11-1

> <Original_SMILES>
Clc1cc(-c2cc(Cl)c(Cl)cc2)c(Cl)cc1

> <preferred_name>
2,3',4',5-Tetrachlorobiphenyl

> <dsstox_substance_id>
DTXSID3038309

> <dsstox_compound_id>
DTXCID1018309

> <qc_level>
DSSTox_Low

> <Canonical_QSARr>
ClC1=CC(C2=CC(Cl)=C(Cl)C=C2)=C(Cl)C=C1

> <InChI_Code_QSARr>
InChI=1S/C12H6Cl4/c13-8-2-4-10(14)9(6-8)7-1-3-11(15)12(16)5-7/h1-6H

> <InChI Key_QSARr>
KENZYIHFBRWMOD-UHFFFAOYSA-N

> <Salt_Solvent>


> <Salt_Solvent_ID>
0

> <MPID>
98492

> <LogBCF>
5.08

> <Tr_1_Tst_0>
1

$$$$
100604
  Mrv171c012241911322D          

 16 17  0  0  0  0            999 V2000
    2.8868   -1.0175    0.0000 C   0  0  0  0  0  0  0  0  0  0  0  0
    3.6012   -0.6050    0.0000 C   0  0  0  0  0  0  0  0  0  0  0  0
    3.6012    0.2200    0.0000 C   0  0  0  0  0  0  0  0  0  0  0  0
    2.8868    0.6325    0.0000 C   0  0  0  0  0  0  0  0  0  0  0  0
    2.8868    1.4575    0.0000 Cl  0  0  0  0  0  0  0  0  0  0  0  0
    2.1723    0.2200    0.0000 C   0  0  0  0  0  0  0  0  0  0  0  0
    1.4578    0.6325    0.0000 Cl  0  0  0  0  0  0  0  0  0  0  0  0
    2.1723   -0.6050    0.0000 C   0  0  0  0  0  0  0  0  0  0  0  0
    2.8868   -1.8425    0.0000 C   0  0  0  0  0  0  0  0  0  0  0  0
    2.1723   -2.2550    0.0000 C   0  0  0  0  0  0  0  0  0  0  0  0
    2.1723   -3.0800    0.0000 C   0  0  0  0  0  0  0  0  0  0  0  0
    2.8868   -3.4925    0.0000 C   0  0  0  0  0  0  0  0  0  0  0  0
    2.8868   -4.3175    0.0000 Cl  0  0  0  0  0  0  0  0  0  0  0  0
    3.6012   -3.0800    0.0000 C   0  0  0  0  0  0  0  0  0  0  0  0
    4.3157   -3.4925    0.0000 Cl  0  0  0  0  0  0  0  0  0  0  0  0
    3.6012   -2.2550    0.0000 C   0  0  0  0  0  0  0  0  0  0  0  0
  2  1  1  0  0  0  0
  3  2  2  0  0  0  0
  4  3  1  0  0  0  0
  4  5  1  0  0  0  0
  6  4  2  0  0  0  0
  6  7  1  0  0  0  0
  8  6  1  0  0  0  0
  1  8  2  0  0  0  0
  1  9  1  0  0  0  0
 10  9  1  0  0  0  0
 11 10  2  0  0  0  0
 12 11  1  0  0  0  0
 12 13  1  0  0  0  0
 14 12  2  0  0  0  0
 14 15  1  0  0  0  0
 16 14  1  0  0  0  0
  9 16  2  0  0  0  0
M  END
> <ChemID>
100604

> <CAS>
32598-13-3

> <Original_SMILES>
Clc1ccc(cc1Cl)-c1cc(Cl)c(Cl)cc1

> <preferred_name>
3,3',4,4'-Tetrachlorobinphenyl

> <dsstox_substance_id>
DTXSID5022514

> <dsstox_compound_id>
DTXCID102514

> <qc_level>
DSSTox_Low

> <Canonical_QSARr>
ClC1C=CC(=CC=1Cl)C1=CC(Cl)=C(Cl)C=C1

> <InChI_Code_QSARr>
InChI=1S/C12H6Cl4/c13-9-3-1-7(5-11(9)15)8-2-4-10(14)12(16)6-8/h1-6H

> <InChI Key_QSARr>
UQMGJOKDKOLIDP-UHFFFAOYSA-N

> <Salt_Solvent>


> <Salt_Solvent_ID>
0

> <MPID>
98493

> <LogBCF>
4.62

> <Tr_1_Tst_0>
1

$$$$
100605
  Mrv171c012241911322D          

 17 18  0  0  0  0            999 V2000
    0.3892    0.2912    0.0000 Cl  0  0  0  0  0  0  0  0  0  0  0  0
    1.1037    0.7037    0.0000 C   0  0  0  0  0  0  0  0  0  0  0  0
    1.8181    0.2912    0.0000 C   0  0  0  0  0  0  0  0  0  0  0  0
    2.5326    0.7037    0.0000 O   0  0  0  0  0  0  0  0  0  0  0  0
    3.2471    0.2912    0.0000 C   0  0  0  0  0  0  0  0  0  0  0  0
    3.9615    0.7037    0.0000 C   0  0  0  0  0  0  0  0  0  0  0  0
    4.6760    0.2912    0.0000 C   0  0  0  0  0  0  0  0  0  0  0  0
    5.3905    0.7037    0.0000 C   0  0  0  0  0  0  0  0  0  0  0  0
    5.3905    1.5287    0.0000 C   0  0  0  0  0  0  0  0  0  0  0  0
    4.6760    1.9412    0.0000 C   0  0  0  0  0  0  0  0  0  0  0  0
    3.9615    1.5287    0.0000 C   0  0  0  0  0  0  0  0  0  0  0  0
    3.2471   -0.5338    0.0000 C   0  0  0  0  0  0  0  0  0  0  0  0
    2.5326   -0.9463    0.0000 C   0  0  0  0  0  0  0  0  0  0  0  0
    2.5326   -1.7713    0.0000 C   0  0  0  0  0  0  0  0  0  0  0  0
    3.2471   -2.1838    0.0000 C   0  0  0  0  0  0  0  0  0  0  0  0
    3.9615   -1.7713    0.0000 C   0  0  0  0  0  0  0  0  0  0  0  0
    3.9615   -0.9463    0.0000 C   0  0  0  0  0  0  0  0  0  0  0  0
  1  2  1  0  0  0  0
  2  3  1  0  0  0  0
  3  4  1  0  0  0  0
  4  5  1  0  0  0  0
  5  6  1  0  0  0  0
  7  6  1  0  0  0  0
  8  7  2  0  0  0  0
  9  8  1  0  0  0  0
 10  9  2  0  0  0  0
 11 10  1  0  0  0  0
  6 11  2  0  0  0  0
  5 12  1  0  0  0  0
 13 12  1  0  0  0  0
 14 13  2  0  0  0  0
 15 14  1  0  0  0  0
 16 15  2  0  0  0  0
 17 16  1  0  0  0  0
 12 17  2  0  0  0  0
M  END
> <ChemID>
100605

> <CAS>
32669-06-0

> <Original_SMILES>
ClCCOC(c1ccccc1)c1ccccc1

> <preferred_name>
Benzhydryl 2-chloroethyl ether

> <dsstox_substance_id>
DTXSID30186341

> <dsstox_compound_id>
DTXCID40108832

> <qc_level>
Public_Medium

> <Canonical_QSARr>
ClCCOC(C1C=CC=CC=1)C1C=CC=CC=1

> <InChI_Code_QSARr>
InChI=1S/C15H15ClO/c16-11-12-17-15(13-7-3-1-4-8-13)14-9-5-2-6-10-14/h1-10,15H,11-12H2

> <InChI Key_QSARr>
ZNVASENTCOLNJT-UHFFFAOYSA-N

> <Salt_Solvent>


> <Salt_Solvent_ID>
0

> <MPID>
98494

> <LogBCF>
2.51

> <Tr_1_Tst_0>
0

$$$$
100606
  Mrv171c012241911322D          

 18 19  0  0  0  0            999 V2000
    3.2442   -1.6362    0.0000 C   0  0  0  0  0  0  0  0  0  0  0  0
    2.5297   -1.2237    0.0000 C   0  0  0  0  0  0  0  0  0  0  0  0
    2.5297   -0.3987    0.0000 C   0  0  0  0  0  0  0  0  0  0  0  0
    1.8152    0.0138    0.0000 C   0  0  0  0  0  0  0  0  0  0  0  0
    1.8152    0.8388    0.0000 Cl  0  0  0  0  0  0  0  0  0  0  0  0
    1.1007   -0.3987    0.0000 C   0  0  0  0  0  0  0  0  0  0  0  0
    0.3863    0.0138    0.0000 Cl  0  0  0  0  0  0  0  0  0  0  0  0
    1.1007   -1.2237    0.0000 C   0  0  0  0  0  0  0  0  0  0  0  0
    0.3863   -1.6362    0.0000 Cl  0  0  0  0  0  0  0  0  0  0  0  0
    1.8152   -1.6362    0.0000 C   0  0  0  0  0  0  0  0  0  0  0  0
    3.2442   -2.4612    0.0000 C   0  0  0  0  0  0  0  0  0  0  0  0
    3.9586   -2.8737    0.0000 C   0  0  0  0  0  0  0  0  0  0  0  0
    3.9586   -3.6987    0.0000 Cl  0  0  0  0  0  0  0  0  0  0  0  0
    4.6731   -2.4612    0.0000 C   0  0  0  0  0  0  0  0  0  0  0  0
    5.3876   -2.8737    0.0000 Cl  0  0  0  0  0  0  0  0  0  0  0  0
    4.6731   -1.6362    0.0000 C   0  0  0  0  0  0  0  0  0  0  0  0
    5.3876   -1.2237    0.0000 Cl  0  0  0  0  0  0  0  0  0  0  0  0
    3.9586   -1.2237    0.0000 C   0  0  0  0  0  0  0  0  0  0  0  0
  1  2  1  0  0  0  0
  3  2  2  0  0  0  0
  4  3  1  0  0  0  0
  4  5  1  0  0  0  0
  6  4  2  0  0  0  0
  6  7  1  0  0  0  0
  8  6  1  0  0  0  0
  8  9  1  0  0  0  0
 10  8  2  0  0  0  0
  2 10  1  0  0  0  0
 11  1  2  0  0  0  0
 12 11  1  0  0  0  0
 12 13  1  0  0  0  0
 14 12  2  0  0  0  0
 14 15  1  0  0  0  0
 16 14  1  0  0  0  0
 16 17  1  0  0  0  0
 18 16  2  0  0  0  0
  1 18  1  0  0  0  0
M  END
> <ChemID>
100606

> <CAS>
32774-16-6

> <Original_SMILES>
Clc1cc(cc(Cl)c1Cl)-c1cc(Cl)c(Cl)c(Cl)c1

> <preferred_name>
3,3',4,4',5,5'-Hexachlorobiphenyl

> <dsstox_substance_id>
DTXSID2038314

> <dsstox_compound_id>
DTXCID404267

> <qc_level>
DSSTox_Low

> <Canonical_QSARr>
ClC1C=C(C=C(Cl)C=1Cl)C1=CC(Cl)=C(Cl)C(Cl)=C1

> <InChI_Code_QSARr>
InChI=1S/C12H4Cl6/c13-7-1-5(2-8(14)11(7)17)6-3-9(15)12(18)10(16)4-6/h1-4H

> <InChI Key_QSARr>
ZHLICBPIXDOFFG-UHFFFAOYSA-N

> <Salt_Solvent>


> <Salt_Solvent_ID>
0

> <MPID>
98495

> <LogBCF>
5.97

> <Tr_1_Tst_0>
1

$$$$
100607
  Mrv171c012241911322D          

 20 21  0  0  0  0            999 V2000
    4.1393   -0.8211    0.0000 C   0  0  0  0  0  0  0  0  0  0  0  0
    3.4248   -0.4086    0.0000 O   0  0  0  0  0  0  0  0  0  0  0  0
    2.7103   -0.8211    0.0000 C   0  0  0  0  0  0  0  0  0  0  0  0
    1.9959   -0.4086    0.0000 C   0  0  0  0  0  0  0  0  0  0  0  0
    1.9959    0.4164    0.0000 N   0  3  0  0  0  0  0  0  0  0  0  0
    1.2814    0.8289    0.0000 O   0  0  0  0  0  0  0  0  0  0  0  0
    2.7103    0.8289    0.0000 O   0  5  0  0  0  0  0  0  0  0  0  0
    1.2814   -0.8211    0.0000 C   0  0  0  0  0  0  0  0  0  0  0  0
    1.2814   -1.6461    0.0000 C   0  0  0  0  0  0  0  0  0  0  0  0
    1.9959   -2.0586    0.0000 C   0  0  0  0  0  0  0  0  0  0  0  0
    1.9959   -2.8836    0.0000 O   0  0  0  0  0  0  0  0  0  0  0  0
    2.7103   -3.2961    0.0000 C   0  0  0  0  0  0  0  0  0  0  0  0
    2.7103   -4.1211    0.0000 C   0  0  0  0  0  0  0  0  0  0  0  0
    1.9959   -4.5336    0.0000 Cl  0  0  0  0  0  0  0  0  0  0  0  0
    3.4248   -4.5336    0.0000 C   0  0  0  0  0  0  0  0  0  0  0  0
    4.1393   -4.1211    0.0000 C   0  0  0  0  0  0  0  0  0  0  0  0
    4.8538   -4.5336    0.0000 Cl  0  0  0  0  0  0  0  0  0  0  0  0
    4.1393   -3.2961    0.0000 C   0  0  0  0  0  0  0  0  0  0  0  0
    3.4248   -2.8836    0.0000 C   0  0  0  0  0  0  0  0  0  0  0  0
    2.7103   -1.6461    0.0000 C   0  0  0  0  0  0  0  0  0  0  0  0
  1  2  1  0  0  0  0
  2  3  1  0  0  0  0
  4  3  2  0  0  0  0
  4  5  1  0  0  0  0
  5  6  2  0  0  0  0
  5  7  1  0  0  0  0
  8  4  1  0  0  0  0
  9  8  2  0  0  0  0
 10  9  1  0  0  0  0
 10 11  1  0  0  0  0
 11 12  1  0  0  0  0
 13 12  2  0  0  0  0
 13 14  1  0  0  0  0
 15 13  1  0  0  0  0
 16 15  2  0  0  0  0
 16 17  1  0  0  0  0
 18 16  1  0  0  0  0
 19 18  2  0  0  0  0
 12 19  1  0  0  0  0
 20 10  2  0  0  0  0
  3 20  1  0  0  0  0
M  CHG  2   5   1   7  -1
M  END
> <ChemID>
100607

> <CAS>
32861-85-1

> <Original_SMILES>
COc1cc(ccc1[N+]([O-])=O)Oc1ccc(Cl)cc1Cl

> <preferred_name>
Chlomethoxyfen

> <dsstox_substance_id>
DTXSID6058055

> <dsstox_compound_id>
DTXCID2031823

> <qc_level>
DSSTox_High

> <Canonical_QSARr>
COC1C=C(C=CC=1[N+]([O-])=O)OC1C=CC(Cl)=CC=1Cl

> <InChI_Code_QSARr>
InChI=1S/C13H9Cl2NO4/c1-19-13-7-9(3-4-11(13)16(17)18)20-12-5-2-8(14)6-10(12)15/h2-7H,1H3

> <InChI Key_QSARr>
DXXVCXKMSWHGTF-UHFFFAOYSA-N

> <Salt_Solvent>


> <Salt_Solvent_ID>
0

> <MPID>
98496

> <LogBCF>
3.59

> <Tr_1_Tst_0>
1

$$$$
100610
  Mrv171c012241911322D          

 16 18  0  0  0  0            999 V2000
    0.0014   -0.0014    0.0000 Cl  0  0  0  0  0  0  0  0  0  0  0  0
    0.7159   -0.4139    0.0000 C   0  0  0  0  0  0  0  0  0  0  0  0
    0.7159   -1.2389    0.0000 C   0  0  0  0  0  0  0  0  0  0  0  0
    1.4304   -1.6514    0.0000 C   0  0  0  0  0  0  0  0  0  0  0  0
    2.1449   -1.2389    0.0000 C   0  0  0  0  0  0  0  0  0  0  0  0
    2.8593   -1.6514    0.0000 O   0  0  0  0  0  0  0  0  0  0  0  0
    3.5738   -1.2389    0.0000 C   0  0  0  0  0  0  0  0  0  0  0  0
    4.2883   -1.6514    0.0000 C   0  0  0  0  0  0  0  0  0  0  0  0
    5.0027   -1.2389    0.0000 C   0  0  0  0  0  0  0  0  0  0  0  0
    5.7172   -1.6514    0.0000 Cl  0  0  0  0  0  0  0  0  0  0  0  0
    5.0027   -0.4139    0.0000 C   0  0  0  0  0  0  0  0  0  0  0  0
    4.2883   -0.0014    0.0000 C   0  0  0  0  0  0  0  0  0  0  0  0
    3.5738   -0.4139    0.0000 C   0  0  0  0  0  0  0  0  0  0  0  0
    2.8593   -0.0014    0.0000 O   0  0  0  0  0  0  0  0  0  0  0  0
    2.1449   -0.4139    0.0000 C   0  0  0  0  0  0  0  0  0  0  0  0
    1.4304   -0.0014    0.0000 C   0  0  0  0  0  0  0  0  0  0  0  0
  1  2  1  0  0  0  0
  3  2  1  0  0  0  0
  4  3  2  0  0  0  0
  5  4  1  0  0  0  0
  5  6  1  0  0  0  0
  6  7  1  0  0  0  0
  8  7  1  0  0  0  0
  9  8  2  0  0  0  0
  9 10  1  0  0  0  0
 11  9  1  0  0  0  0
 12 11  2  0  0  0  0
 13 12  1  0  0  0  0
  7 13  2  0  0  0  0
 13 14  1  0  0  0  0
 14 15  1  0  0  0  0
 15  5  2  0  0  0  0
 16 15  1  0  0  0  0
  2 16  2  0  0  0  0
M  END
> <ChemID>
100610

> <CAS>
33857-26-0

> <Original_SMILES>
Clc1cc2Oc3ccc(Cl)cc3Oc2cc1

> <preferred_name>
2,7-Dichlorodibenzo-p-dioxin

> <dsstox_substance_id>
DTXSID1020435

> <dsstox_compound_id>
DTXCID50435

> <qc_level>
DSSTox_Low

> <Canonical_QSARr>
ClC1=CC2OC3C=CC(Cl)=CC=3OC=2C=C1

> <InChI_Code_QSARr>
InChI=1S/C12H6Cl2O2/c13-7-1-3-9-11(5-7)16-10-4-2-8(14)6-12(10)15-9/h1-6H

> <InChI Key_QSARr>
NBFMTHWVRBOVPE-UHFFFAOYSA-N

> <Salt_Solvent>


> <Salt_Solvent_ID>
0

> <MPID>
98497

> <LogBCF>
2.54

> <Tr_1_Tst_0>
1

$$$$
100611
  Mrv171c012241911322D          

 14 15  0  0  0  0            999 V2000
    0.5103    1.9447    0.0000 C   0  0  0  0  0  0  0  0  0  0  0  0
    0.5103    2.7697    0.0000 C   0  0  0  0  0  0  0  0  0  0  0  0
   -0.2041    3.1822    0.0000 C   0  0  0  0  0  0  0  0  0  0  0  0
   -0.2041    4.0072    0.0000 Cl  0  0  0  0  0  0  0  0  0  0  0  0
   -0.9186    2.7697    0.0000 C   0  0  0  0  0  0  0  0  0  0  0  0
   -0.9186    1.9447    0.0000 C   0  0  0  0  0  0  0  0  0  0  0  0
   -0.2041    1.5322    0.0000 C   0  0  0  0  0  0  0  0  0  0  0  0
   -0.2041    0.7072    0.0000 Cl  0  0  0  0  0  0  0  0  0  0  0  0
    1.2248    1.5322    0.0000 C   0  0  0  0  0  0  0  0  0  0  0  0
    1.2248    0.7072    0.0000 C   0  0  0  0  0  0  0  0  0  0  0  0
    1.9393    0.2947    0.0000 C   0  0  0  0  0  0  0  0  0  0  0  0
    2.6537    0.7072    0.0000 C   0  0  0  0  0  0  0  0  0  0  0  0
    2.6537    1.5322    0.0000 C   0  0  0  0  0  0  0  0  0  0  0  0
    1.9393    1.9447    0.0000 C   0  0  0  0  0  0  0  0  0  0  0  0
  2  1  1  0  0  0  0
  3  2  2  0  0  0  0
  3  4  1  0  0  0  0
  5  3  1  0  0  0  0
  6  5  2  0  0  0  0
  7  6  1  0  0  0  0
  1  7  2  0  0  0  0
  7  8  1  0  0  0  0
  1  9  1  0  0  0  0
 10  9  1  0  0  0  0
 11 10  2  0  0  0  0
 12 11  1  0  0  0  0
 13 12  2  0  0  0  0
 14 13  1  0  0  0  0
  9 14  2  0  0  0  0
M  END
> <ChemID>
100611

> <CAS>
34883-39-1

> <Original_SMILES>
Clc1cc(-c2ccccc2)c(Cl)cc1

> <preferred_name>
2,5-Dichlorobiphenyl

> <dsstox_substance_id>
DTXSID7073480

> <dsstox_compound_id>
DTXCID0038918

> <qc_level>
Public_High

> <Canonical_QSARr>
ClC1C=CC(Cl)=CC=1C1C=CC=CC=1

> <InChI_Code_QSARr>
InChI=1S/C12H8Cl2/c13-10-6-7-12(14)11(8-10)9-4-2-1-3-5-9/h1-8H

> <InChI Key_QSARr>
KKQWHYGECTYFIA-UHFFFAOYSA-N

> <Salt_Solvent>


> <Salt_Solvent_ID>
0

> <MPID>
98498

> <LogBCF>
3.98

> <Tr_1_Tst_0>
0

$$$$
100612
  Mrv171c012241911322D          

 14 15  0  0  0  0            999 V2000
    0.6124    2.0036    0.0000 C   0  0  0  0  0  0  0  0  0  0  0  0
    0.6124    2.8286    0.0000 C   0  0  0  0  0  0  0  0  0  0  0  0
   -0.1021    3.2411    0.0000 C   0  0  0  0  0  0  0  0  0  0  0  0
   -0.1021    4.0661    0.0000 Cl  0  0  0  0  0  0  0  0  0  0  0  0
   -0.8165    2.8286    0.0000 C   0  0  0  0  0  0  0  0  0  0  0  0
   -0.8165    2.0036    0.0000 C   0  0  0  0  0  0  0  0  0  0  0  0
   -1.5310    1.5911    0.0000 Cl  0  0  0  0  0  0  0  0  0  0  0  0
   -0.1021    1.5911    0.0000 C   0  0  0  0  0  0  0  0  0  0  0  0
    1.3269    1.5911    0.0000 C   0  0  0  0  0  0  0  0  0  0  0  0
    1.3269    0.7661    0.0000 C   0  0  0  0  0  0  0  0  0  0  0  0
    2.0413    0.3536    0.0000 C   0  0  0  0  0  0  0  0  0  0  0  0
    2.7558    0.7661    0.0000 C   0  0  0  0  0  0  0  0  0  0  0  0
    2.7558    1.5911    0.0000 C   0  0  0  0  0  0  0  0  0  0  0  0
    2.0413    2.0036    0.0000 C   0  0  0  0  0  0  0  0  0  0  0  0
  2  1  1  0  0  0  0
  3  2  2  0  0  0  0
  3  4  1  0  0  0  0
  5  3  1  0  0  0  0
  6  5  2  0  0  0  0
  6  7  1  0  0  0  0
  8  6  1  0  0  0  0
  1  8  2  0  0  0  0
  1  9  1  0  0  0  0
 10  9  1  0  0  0  0
 11 10  2  0  0  0  0
 12 11  1  0  0  0  0
 13 12  2  0  0  0  0
 14 13  1  0  0  0  0
  9 14  2  0  0  0  0
M  END
> <ChemID>
100612

> <CAS>
34883-41-5

> <Original_SMILES>
Clc1cc(cc(Cl)c1)-c1ccccc1

> <preferred_name>
3,5-Dichlorobiphenyl

> <dsstox_substance_id>
DTXSID5074137

> <dsstox_compound_id>
DTXCID5038919

> <qc_level>
Public_High

> <Canonical_QSARr>
ClC1=CC(=CC(Cl)=C1)C1C=CC=CC=1

> <InChI_Code_QSARr>
InChI=1S/C12H8Cl2/c13-11-6-10(7-12(14)8-11)9-4-2-1-3-5-9/h1-8H

> <InChI Key_QSARr>
QHZSDTDMQZPUKC-UHFFFAOYSA-N

> <Salt_Solvent>


> <Salt_Solvent_ID>
0

> <MPID>
98499

> <LogBCF>
3.77

> <Tr_1_Tst_0>
1

$$$$
100613
  Mrv171c012241911322D          

 18 19  0  0  0  0            999 V2000
    2.5315   -1.6342    0.0000 C   0  0  0  0  0  0  0  0  0  0  0  0
    1.8170   -1.2217    0.0000 C   0  0  0  0  0  0  0  0  0  0  0  0
    1.8170   -0.3967    0.0000 Cl  0  0  0  0  0  0  0  0  0  0  0  0
    1.1025   -1.6342    0.0000 C   0  0  0  0  0  0  0  0  0  0  0  0
    1.1025   -2.4592    0.0000 C   0  0  0  0  0  0  0  0  0  0  0  0
    0.3881   -2.8717    0.0000 Cl  0  0  0  0  0  0  0  0  0  0  0  0
    1.8170   -2.8717    0.0000 C   0  0  0  0  0  0  0  0  0  0  0  0
    1.8170   -3.6967    0.0000 Cl  0  0  0  0  0  0  0  0  0  0  0  0
    2.5315   -2.4592    0.0000 C   0  0  0  0  0  0  0  0  0  0  0  0
    3.2460   -1.2217    0.0000 C   0  0  0  0  0  0  0  0  0  0  0  0
    3.9604   -1.6342    0.0000 C   0  0  0  0  0  0  0  0  0  0  0  0
    4.6749   -1.2217    0.0000 C   0  0  0  0  0  0  0  0  0  0  0  0
    5.3894   -1.6342    0.0000 Cl  0  0  0  0  0  0  0  0  0  0  0  0
    4.6749   -0.3967    0.0000 C   0  0  0  0  0  0  0  0  0  0  0  0
    5.3894    0.0158    0.0000 Cl  0  0  0  0  0  0  0  0  0  0  0  0
    3.9604    0.0158    0.0000 C   0  0  0  0  0  0  0  0  0  0  0  0
    3.2460   -0.3967    0.0000 C   0  0  0  0  0  0  0  0  0  0  0  0
    2.5315    0.0158    0.0000 Cl  0  0  0  0  0  0  0  0  0  0  0  0
  2  1  1  0  0  0  0
  2  3  1  0  0  0  0
  4  2  2  0  0  0  0
  5  4  1  0  0  0  0
  5  6  1  0  0  0  0
  7  5  2  0  0  0  0
  7  8  1  0  0  0  0
  9  7  1  0  0  0  0
  1  9  2  0  0  0  0
  1 10  1  0  0  0  0
 11 10  1  0  0  0  0
 12 11  2  0  0  0  0
 12 13  1  0  0  0  0
 14 12  1  0  0  0  0
 14 15  1  0  0  0  0
 16 14  2  0  0  0  0
 17 16  1  0  0  0  0
 10 17  2  0  0  0  0
 17 18  1  0  0  0  0
M  END
> <ChemID>
100613

> <CAS>
35065-27-1

> <Original_SMILES>
Clc1cc(Cl)c(Cl)cc1-c1cc(Cl)c(Cl)cc1Cl

> <preferred_name>
2,2',4,4',5,5'-Hexachlorobiphenyl

> <dsstox_substance_id>
DTXSID2032180

> <dsstox_compound_id>
DTXCID0012180

> <qc_level>
DSSTox_Low

> <Canonical_QSARr>
ClC1=CC(Cl)=C(C=C1Cl)C1=CC(Cl)=C(Cl)C=C1Cl

> <InChI_Code_QSARr>
InChI=1S/C12H4Cl6/c13-7-3-11(17)9(15)1-5(7)6-2-10(16)12(18)4-8(6)14/h1-4H

> <InChI Key_QSARr>
MVWHGTYKUMDIHL-UHFFFAOYSA-N

> <Salt_Solvent>


> <Salt_Solvent_ID>
0

> <MPID>
98500

> <LogBCF>
5.43

> <Tr_1_Tst_0>
1

$$$$
100614
  Mrv171c012241911322D          

 21 22  0  0  0  0            999 V2000
    2.3067   -1.5068    0.0000 C   0  0  0  0  0  0  0  0  0  0  0  0
    2.3067   -0.6818    0.0000 O   0  0  0  0  0  0  0  0  0  0  0  0
    1.5922   -1.9193    0.0000 C   0  0  0  0  0  0  0  0  0  0  0  0
    0.8778   -1.5068    0.0000 C   0  0  0  0  0  0  0  0  0  0  0  0
    0.8778   -0.6818    0.0000 F   0  0  0  0  0  0  0  0  0  0  0  0
    0.1633   -1.9193    0.0000 C   0  0  0  0  0  0  0  0  0  0  0  0
    0.1633   -2.7443    0.0000 C   0  0  0  0  0  0  0  0  0  0  0  0
    0.8778   -3.1568    0.0000 C   0  0  0  0  0  0  0  0  0  0  0  0
    1.5922   -2.7443    0.0000 C   0  0  0  0  0  0  0  0  0  0  0  0
    2.3067   -3.1568    0.0000 F   0  0  0  0  0  0  0  0  0  0  0  0
    3.0212   -1.9193    0.0000 N   0  0  0  0  0  0  0  0  0  0  0  0
    3.7356   -1.5068    0.0000 C   0  0  0  0  0  0  0  0  0  0  0  0
    3.7356   -0.6818    0.0000 O   0  0  0  0  0  0  0  0  0  0  0  0
    4.4501   -1.9193    0.0000 N   0  0  0  0  0  0  0  0  0  0  0  0
    5.1646   -1.5068    0.0000 C   0  0  0  0  0  0  0  0  0  0  0  0
    5.8791   -1.9193    0.0000 C   0  0  0  0  0  0  0  0  0  0  0  0
    6.5935   -1.5068    0.0000 C   0  0  0  0  0  0  0  0  0  0  0  0
    6.5935   -0.6818    0.0000 C   0  0  0  0  0  0  0  0  0  0  0  0
    7.3080   -0.2693    0.0000 Cl  0  0  0  0  0  0  0  0  0  0  0  0
    5.8791   -0.2693    0.0000 C   0  0  0  0  0  0  0  0  0  0  0  0
    5.1646   -0.6818    0.0000 C   0  0  0  0  0  0  0  0  0  0  0  0
  1  2  2  0  0  0  0
  1  3  1  0  0  0  0
  4  3  2  0  0  0  0
  4  5  1  0  0  0  0
  6  4  1  0  0  0  0
  7  6  2  0  0  0  0
  8  7  1  0  0  0  0
  9  8  2  0  0  0  0
  3  9  1  0  0  0  0
  9 10  1  0  0  0  0
  1 11  1  0  0  0  0
 11 12  1  0  0  0  0
 12 13  2  0  0  0  0
 12 14  1  0  0  0  0
 14 15  1  0  0  0  0
 16 15  2  0  0  0  0
 17 16  1  0  0  0  0
 18 17  2  0  0  0  0
 18 19  1  0  0  0  0
 20 18  1  0  0  0  0
 21 20  2  0  0  0  0
 15 21  1  0  0  0  0
M  END
> <ChemID>
100614

> <CAS>
35367-38-5

> <Original_SMILES>
O=C(Nc1ccc(Cl)cc1)NC(=O)c1c(F)cccc1F

> <preferred_name>
Diflubenzuron

> <dsstox_substance_id>
DTXSID1024049

> <dsstox_compound_id>
DTXCID204049

> <qc_level>
DSSTox_Low

> <Canonical_QSARr>
O=C(NC1C=CC(Cl)=CC=1)NC(=O)C1C(F)=CC=CC=1F

> <InChI_Code_QSARr>
InChI=1S/C14H9ClF2N2O2/c15-8-4-6-9(7-5-8)18-14(21)19-13(20)12-10(16)2-1-3-11(12)17/h1-7H,(H2,18,19,20,21)

> <InChI Key_QSARr>
QQQYTWIFVNKMRW-UHFFFAOYSA-N

> <Salt_Solvent>


> <Salt_Solvent_ID>
0

> <MPID>
98501

> <LogBCF>
2.2

> <Tr_1_Tst_0>
1

$$$$
100615
  Mrv171c012241911322D          

 16 17  0  0  0  0            999 V2000
    1.7032   -1.2210    0.0000 C   0  0  0  0  0  0  0  0  0  0  0  0
    1.7032   -0.3960    0.0000 C   0  0  0  0  0  0  0  0  0  0  0  0
    0.9887    0.0165    0.0000 C   0  0  0  0  0  0  0  0  0  0  0  0
    0.9887    0.8415    0.0000 Cl  0  0  0  0  0  0  0  0  0  0  0  0
    0.2743   -0.3960    0.0000 C   0  0  0  0  0  0  0  0  0  0  0  0
    0.2743   -1.2210    0.0000 C   0  0  0  0  0  0  0  0  0  0  0  0
    0.9887   -1.6335    0.0000 C   0  0  0  0  0  0  0  0  0  0  0  0
    0.9887   -2.4585    0.0000 Cl  0  0  0  0  0  0  0  0  0  0  0  0
    2.4177   -1.6335    0.0000 C   0  0  0  0  0  0  0  0  0  0  0  0
    2.4177   -2.4585    0.0000 C   0  0  0  0  0  0  0  0  0  0  0  0
    3.1321   -2.8710    0.0000 C   0  0  0  0  0  0  0  0  0  0  0  0
    3.1321   -3.6960    0.0000 Cl  0  0  0  0  0  0  0  0  0  0  0  0
    3.8466   -2.4585    0.0000 C   0  0  0  0  0  0  0  0  0  0  0  0
    3.8466   -1.6335    0.0000 C   0  0  0  0  0  0  0  0  0  0  0  0
    3.1321   -1.2210    0.0000 C   0  0  0  0  0  0  0  0  0  0  0  0
    3.1321   -0.3960    0.0000 Cl  0  0  0  0  0  0  0  0  0  0  0  0
  2  1  1  0  0  0  0
  3  2  2  0  0  0  0
  3  4  1  0  0  0  0
  5  3  1  0  0  0  0
  6  5  2  0  0  0  0
  7  6  1  0  0  0  0
  1  7  2  0  0  0  0
  7  8  1  0  0  0  0
  1  9  1  0  0  0  0
 10  9  1  0  0  0  0
 11 10  2  0  0  0  0
 11 12  1  0  0  0  0
 13 11  1  0  0  0  0
 14 13  2  0  0  0  0
 15 14  1  0  0  0  0
  9 15  2  0  0  0  0
 15 16  1  0  0  0  0
M  END
> <ChemID>
100615

> <CAS>
35693-99-3

> <Original_SMILES>
Clc1cc(-c2cc(Cl)ccc2Cl)c(Cl)cc1

> <preferred_name>
2,2',5,5'-Tetrachlorobiphenyl

> <dsstox_substance_id>
DTXSID3038305

> <dsstox_compound_id>
DTXCID1018305

> <qc_level>
DSSTox_Low

> <Canonical_QSARr>
ClC1=CC(C2C=C(Cl)C=CC=2Cl)=C(Cl)C=C1

> <InChI_Code_QSARr>
InChI=1S/C12H6Cl4/c13-7-1-3-11(15)9(5-7)10-6-8(14)2-4-12(10)16/h1-6H

> <InChI Key_QSARr>
HCWZEPKLWVAEOV-UHFFFAOYSA-N

> <Salt_Solvent>


> <Salt_Solvent_ID>
0

> <MPID>
98502

> <LogBCF>
4.26

> <Tr_1_Tst_0>
0

$$$$
100616
  Mrv171c012241911322D          

 21 23  0  0  0  0            999 V2000
    3.9379   -2.9396    0.0000 C   0  0  0  0  0  0  0  0  0  0  0  0
    4.6524   -3.3521    0.0000 O   0  0  0  0  0  0  0  0  0  0  0  0
    5.3668   -2.9396    0.0000 C   0  0  0  0  0  0  0  0  0  0  0  0
    6.0813   -3.3521    0.0000 C   0  0  0  0  0  0  0  0  0  0  0  0
    6.7958   -2.9396    0.0000 C   0  0  0  0  0  0  0  0  0  0  0  0
    6.7958   -2.1146    0.0000 C   0  0  0  0  0  0  0  0  0  0  0  0
    6.0813   -1.7021    0.0000 C   0  0  0  0  0  0  0  0  0  0  0  0
    6.0813   -0.8771    0.0000 Cl  0  0  0  0  0  0  0  0  0  0  0  0
    5.3668   -2.1146    0.0000 C   0  0  0  0  0  0  0  0  0  0  0  0
    4.6524   -1.7021    0.0000 O   0  0  0  0  0  0  0  0  0  0  0  0
    3.9379   -2.1146    0.0000 C   0  0  0  0  0  0  0  0  0  0  0  0
    3.2234   -1.7021    0.0000 C   0  0  0  0  0  0  0  0  0  0  0  0
    2.5090   -2.1146    0.0000 C   0  0  0  0  0  0  0  0  0  0  0  0
    1.7945   -1.7021    0.0000 Cl  0  0  0  0  0  0  0  0  0  0  0  0
    2.5090   -2.9396    0.0000 C   0  0  0  0  0  0  0  0  0  0  0  0
    1.7945   -3.3521    0.0000 Cl  0  0  0  0  0  0  0  0  0  0  0  0
    3.2234   -3.3521    0.0000 C   0  0  0  0  0  0  0  0  0  0  0  0
    3.2234   -4.1771    0.0000 Cl  0  0  0  0  0  0  0  0  0  0  0  0
    7.5103   -1.7021    0.0000 Cl  0  0  0  0  0  0  0  0  0  0  0  0
    7.5103   -3.3521    0.0000 Cl  0  0  0  0  0  0  0  0  0  0  0  0
    6.0813   -4.1771    0.0000 Cl  0  0  0  0  0  0  0  0  0  0  0  0
  2  1  1  0  0  0  0
  3  2  1  0  0  0  0
  3  4  1  0  0  0  0
  4  5  2  0  0  0  0
  5  6  1  0  0  0  0
  6  7  2  0  0  0  0
  7  8  1  0  0  0  0
  7  9  1  0  0  0  0
  9  3  2  0  0  0  0
 10  9  1  0  0  0  0
 11 10  1  0  0  0  0
 11  1  1  0  0  0  0
 12 11  2  0  0  0  0
 13 12  1  0  0  0  0
 13 14  1  0  0  0  0
 15 13  2  0  0  0  0
 15 16  1  0  0  0  0
 17 15  1  0  0  0  0
  1 17  2  0  0  0  0
 17 18  1  0  0  0  0
  6 19  1  0  0  0  0
  5 20  1  0  0  0  0
  4 21  1  0  0  0  0
M  END
> <ChemID>
100616

> <CAS>
35822-46-9

> <Original_SMILES>
Clc1cc2Oc3c(Oc2c(Cl)c1Cl)c(Cl)c(Cl)c(Cl)c3Cl

> <preferred_name>
1,2,3,4,6,7,8-Heptachlorodibenzodioxin

> <dsstox_substance_id>
DTXSID1052034

> <dsstox_compound_id>
DTXCID5032442

> <qc_level>
DSSTox_High

> <Canonical_QSARr>
ClC1C=C2OC3=C(OC2=C(Cl)C=1Cl)C(Cl)=C(Cl)C(Cl)=C3Cl

> <InChI_Code_QSARr>
InChI=1S/C12HCl7O2/c13-2-1-3-10(7(17)4(2)14)21-12-9(19)6(16)5(15)8(18)11(12)20-3/h1H

> <InChI Key_QSARr>
WCLNVRQZUKYVAI-UHFFFAOYSA-N

> <Salt_Solvent>


> <Salt_Solvent_ID>
0

> <MPID>
98503

> <LogBCF>
3.67

> <Tr_1_Tst_0>
1

$$$$
100619
  Mrv171c012241911322D          

 21 21  0  0  0  0            999 V2000
    6.4857   -2.5228    0.0000 C   0  0  0  0  0  0  0  0  0  0  0  0
    5.7713   -2.9353    0.0000 C   0  0  0  0  0  0  0  0  0  0  0  0
    5.0568   -2.5228    0.0000 C   0  0  0  0  0  0  0  0  0  0  0  0
    4.3423   -2.9353    0.0000 N   0  0  0  0  0  0  0  0  0  0  0  0
    3.6279   -2.5228    0.0000 P   0  0  0  0  0  0  0  0  0  0  0  0
    4.0404   -1.8084    0.0000 S   0  0  0  0  0  0  0  0  0  0  0  0
    2.9134   -2.1103    0.0000 O   0  0  0  0  0  0  0  0  0  0  0  0
    2.1989   -2.5228    0.0000 C   0  0  0  0  0  0  0  0  0  0  0  0
    1.4844   -2.1103    0.0000 C   0  0  0  0  0  0  0  0  0  0  0  0
    1.4844   -1.2853    0.0000 N   0  3  0  0  0  0  0  0  0  0  0  0
    0.7700   -0.8728    0.0000 O   0  0  0  0  0  0  0  0  0  0  0  0
    2.1989   -0.8728    0.0000 O   0  5  0  0  0  0  0  0  0  0  0  0
    0.7700   -2.5228    0.0000 C   0  0  0  0  0  0  0  0  0  0  0  0
    0.7700   -3.3478    0.0000 C   0  0  0  0  0  0  0  0  0  0  0  0
    1.4844   -3.7603    0.0000 C   0  0  0  0  0  0  0  0  0  0  0  0
    1.4844   -4.5853    0.0000 C   0  0  0  0  0  0  0  0  0  0  0  0
    2.1989   -3.3478    0.0000 C   0  0  0  0  0  0  0  0  0  0  0  0
    3.2154   -3.2373    0.0000 O   0  0  0  0  0  0  0  0  0  0  0  0
    3.6279   -3.9518    0.0000 C   0  0  0  0  0  0  0  0  0  0  0  0
    3.2154   -4.6662    0.0000 C   0  0  0  0  0  0  0  0  0  0  0  0
    5.0568   -1.6978    0.0000 C   0  0  0  0  0  0  0  0  0  0  0  0
  1  2  1  0  0  0  0
  2  3  1  0  0  0  0
  3  4  1  0  0  0  0
  4  5  1  0  0  0  0
  5  6  2  0  0  0  0
  5  7  1  0  0  0  0
  7  8  1  0  0  0  0
  9  8  2  0  0  0  0
  9 10  1  0  0  0  0
 10 11  2  0  0  0  0
 10 12  1  0  0  0  0
 13  9  1  0  0  0  0
 14 13  2  0  0  0  0
 15 14  1  0  0  0  0
 15 16  1  0  0  0  0
 17 15  2  0  0  0  0
  8 17  1  0  0  0  0
  5 18  1  0  0  0  0
 18 19  1  0  0  0  0
 19 20  1  0  0  0  0
  3 21  1  0  0  0  0
M  CHG  2  10   1  12  -1
M  END
> <ChemID>
100619

> <CAS>
36335-67-8

> <Original_SMILES>
Cc1ccc(c(c1)OP(=S)(NC(C)CC)OCC)[N+]([O-])=O

> <preferred_name>
Butamiphos

> <dsstox_substance_id>
DTXSID5058068

> <dsstox_compound_id>
DTXCID1031836

> <qc_level>
DSSTox_High

> <Canonical_QSARr>
CC1C=CC(=C(C=1)OP(=S)(NC(C)CC)OCC)[N+]([O-])=O

> <InChI_Code_QSARr>
InChI=1S/C13H21N2O4PS/c1-5-11(4)14-20(21,18-6-2)19-13-9-10(3)7-8-12(13)15(16)17/h7-9,11H,5-6H2,1-4H3,(H,14,21)

> <InChI Key_QSARr>
OEYOMNZEMCPTKN-UHFFFAOYSA-N

> <Salt_Solvent>


> <Salt_Solvent_ID>
0

> <MPID>
98504

> <LogBCF>
2.46

> <Tr_1_Tst_0>
1

$$$$
100620
  Mrv171c012241911322D          

 21 22  0  0  0  0            999 V2000
    4.1746   -2.3035    0.0000 N   0  0  0  0  0  0  0  0  0  0  0  0
    4.4296   -1.5189    0.0000 C   0  0  0  0  0  0  0  0  0  0  0  0
    3.7621   -1.0340    0.0000 C   0  0  0  0  0  0  0  0  0  0  0  0
    3.7621   -0.2090    0.0000 O   0  0  0  0  0  0  0  0  0  0  0  0
    3.0947   -1.5189    0.0000 N   0  0  0  0  0  0  0  0  0  0  0  0
    2.3101   -1.2640    0.0000 C   0  0  0  0  0  0  0  0  0  0  0  0
    2.1385   -0.4570    0.0000 C   0  0  0  0  0  0  0  0  0  0  0  0
    1.3539   -0.2021    0.0000 C   0  0  0  0  0  0  0  0  0  0  0  0
    1.1824    0.6049    0.0000 Cl  0  0  0  0  0  0  0  0  0  0  0  0
    0.7408   -0.7541    0.0000 C   0  0  0  0  0  0  0  0  0  0  0  0
    0.9123   -1.5611    0.0000 C   0  0  0  0  0  0  0  0  0  0  0  0
    0.2992   -2.1131    0.0000 Cl  0  0  0  0  0  0  0  0  0  0  0  0
    1.6970   -1.8160    0.0000 C   0  0  0  0  0  0  0  0  0  0  0  0
    3.3496   -2.3035    0.0000 C   0  0  0  0  0  0  0  0  0  0  0  0
    2.8647   -2.9710    0.0000 O   0  0  0  0  0  0  0  0  0  0  0  0
    4.6595   -2.9710    0.0000 C   0  0  0  0  0  0  0  0  0  0  0  0
    4.3240   -3.7247    0.0000 O   0  0  0  0  0  0  0  0  0  0  0  0
    5.4800   -2.8847    0.0000 N   0  0  0  0  0  0  0  0  0  0  0  0
    5.9649   -3.5522    0.0000 C   0  0  0  0  0  0  0  0  0  0  0  0
    6.7854   -3.4659    0.0000 C   0  0  0  0  0  0  0  0  0  0  0  0
    5.6294   -4.3059    0.0000 C   0  0  0  0  0  0  0  0  0  0  0  0
  2  1  1  0  0  0  0
  3  2  1  0  0  0  0
  3  4  2  0  0  0  0
  5  3  1  0  0  0  0
  5  6  1  0  0  0  0
  7  6  2  0  0  0  0
  8  7  1  0  0  0  0
  8  9  1  0  0  0  0
 10  8  2  0  0  0  0
 11 10  1  0  0  0  0
 11 12  1  0  0  0  0
 13 11  2  0  0  0  0
  6 13  1  0  0  0  0
 14  5  1  0  0  0  0
  1 14  1  0  0  0  0
 14 15  2  0  0  0  0
  1 16  1  0  0  0  0
 16 17  2  0  0  0  0
 16 18  1  0  0  0  0
 18 19  1  0  0  0  0
 19 20  1  0  0  0  0
 19 21  1  0  0  0  0
M  END
> <ChemID>
100620

> <CAS>
36734-19-7

> <Original_SMILES>
CC(C)NC(=O)N1CC(=O)N(c2cc(Cl)cc(Cl)c2)C1=O

> <preferred_name>
Iprodione

> <dsstox_substance_id>
DTXSID3024154

> <dsstox_compound_id>
DTXCID704154

> <qc_level>
DSSTox_High

> <Canonical_QSARr>
CC(C)NC(=O)N1CC(=O)N(C2C=C(Cl)C=C(Cl)C=2)C1=O

> <InChI_Code_QSARr>
InChI=1S/C13H13Cl2N3O3/c1-7(2)16-12(20)17-6-11(19)18(13(17)21)10-4-8(14)3-9(15)5-10/h3-5,7H,6H2,1-2H3,(H,16,20)

> <InChI Key_QSARr>
ONUFESLQCSAYKA-UHFFFAOYSA-N

> <Salt_Solvent>


> <Salt_Solvent_ID>
0

> <MPID>
98505

> <LogBCF>
2.53

> <Tr_1_Tst_0>
1

$$$$
100621
  Mrv171c012241911322D          

 15 16  0  0  0  0            999 V2000
    0.5239    1.8425    0.0000 C   0  0  0  0  0  0  0  0  0  0  0  0
    0.5239    2.6675    0.0000 C   0  0  0  0  0  0  0  0  0  0  0  0
   -0.1905    3.0800    0.0000 C   0  0  0  0  0  0  0  0  0  0  0  0
   -0.1905    3.9050    0.0000 Cl  0  0  0  0  0  0  0  0  0  0  0  0
   -0.9050    2.6675    0.0000 C   0  0  0  0  0  0  0  0  0  0  0  0
   -0.9050    1.8425    0.0000 C   0  0  0  0  0  0  0  0  0  0  0  0
   -0.1905    1.4300    0.0000 C   0  0  0  0  0  0  0  0  0  0  0  0
   -0.1905    0.6050    0.0000 Cl  0  0  0  0  0  0  0  0  0  0  0  0
    1.2384    1.4300    0.0000 C   0  0  0  0  0  0  0  0  0  0  0  0
    1.2384    0.6050    0.0000 C   0  0  0  0  0  0  0  0  0  0  0  0
    1.9529    0.1925    0.0000 C   0  0  0  0  0  0  0  0  0  0  0  0
    2.6673    0.6050    0.0000 C   0  0  0  0  0  0  0  0  0  0  0  0
    2.6673    1.4300    0.0000 C   0  0  0  0  0  0  0  0  0  0  0  0
    1.9529    1.8425    0.0000 C   0  0  0  0  0  0  0  0  0  0  0  0
    1.9529    2.6675    0.0000 Cl  0  0  0  0  0  0  0  0  0  0  0  0
  2  1  1  0  0  0  0
  3  2  2  0  0  0  0
  3  4  1  0  0  0  0
  5  3  1  0  0  0  0
  6  5  2  0  0  0  0
  7  6  1  0  0  0  0
  1  7  2  0  0  0  0
  7  8  1  0  0  0  0
  1  9  1  0  0  0  0
 10  9  1  0  0  0  0
 11 10  2  0  0  0  0
 12 11  1  0  0  0  0
 13 12  2  0  0  0  0
 14 13  1  0  0  0  0
  9 14  2  0  0  0  0
 14 15  1  0  0  0  0
M  END
> <ChemID>
100621

> <CAS>
37680-65-2

> <Original_SMILES>
Clc1cc(-c2ccccc2Cl)c(Cl)cc1

> <preferred_name>
2,2',5-Trichlorobiphenyl

> <dsstox_substance_id>
DTXSID6073491

> <dsstox_compound_id>
DTXCID7039383

> <qc_level>
Public_High

> <Canonical_QSARr>
ClC1=CC(C2C=CC=CC=2Cl)=C(Cl)C=C1

> <InChI_Code_QSARr>
InChI=1S/C12H7Cl3/c13-8-5-6-12(15)10(7-8)9-3-1-2-4-11(9)14/h1-7H

> <InChI Key_QSARr>
DCMURXAZTZQAFB-UHFFFAOYSA-N

> <Salt_Solvent>


> <Salt_Solvent_ID>
0

> <MPID>
98506

> <LogBCF>
4.23

> <Tr_1_Tst_0>
0

$$$$
100622
  Mrv171c012241911322D          

 17 18  0  0  0  0            999 V2000
    2.5007   -1.3053    0.0000 C   0  0  0  0  0  0  0  0  0  0  0  0
    2.5007   -0.4803    0.0000 C   0  0  0  0  0  0  0  0  0  0  0  0
    1.7862   -0.0678    0.0000 C   0  0  0  0  0  0  0  0  0  0  0  0
    1.7862    0.7572    0.0000 Cl  0  0  0  0  0  0  0  0  0  0  0  0
    1.0718   -0.4803    0.0000 C   0  0  0  0  0  0  0  0  0  0  0  0
    0.3573   -0.0678    0.0000 Cl  0  0  0  0  0  0  0  0  0  0  0  0
    1.0718   -1.3053    0.0000 C   0  0  0  0  0  0  0  0  0  0  0  0
    1.7862   -1.7178    0.0000 C   0  0  0  0  0  0  0  0  0  0  0  0
    1.7862   -2.5428    0.0000 Cl  0  0  0  0  0  0  0  0  0  0  0  0
    3.2152   -1.7178    0.0000 C   0  0  0  0  0  0  0  0  0  0  0  0
    3.2152   -2.5428    0.0000 C   0  0  0  0  0  0  0  0  0  0  0  0
    3.9296   -2.9553    0.0000 C   0  0  0  0  0  0  0  0  0  0  0  0
    3.9296   -3.7803    0.0000 Cl  0  0  0  0  0  0  0  0  0  0  0  0
    4.6441   -2.5428    0.0000 C   0  0  0  0  0  0  0  0  0  0  0  0
    4.6441   -1.7178    0.0000 C   0  0  0  0  0  0  0  0  0  0  0  0
    3.9296   -1.3053    0.0000 C   0  0  0  0  0  0  0  0  0  0  0  0
    3.9296   -0.4803    0.0000 Cl  0  0  0  0  0  0  0  0  0  0  0  0
  2  1  1  0  0  0  0
  3  2  2  0  0  0  0
  3  4  1  0  0  0  0
  5  3  1  0  0  0  0
  5  6  1  0  0  0  0
  7  5  2  0  0  0  0
  8  7  1  0  0  0  0
  1  8  2  0  0  0  0
  8  9  1  0  0  0  0
  1 10  1  0  0  0  0
 11 10  1  0  0  0  0
 12 11  2  0  0  0  0
 12 13  1  0  0  0  0
 14 12  1  0  0  0  0
 15 14  2  0  0  0  0
 16 15  1  0  0  0  0
 10 16  2  0  0  0  0
 16 17  1  0  0  0  0
M  END
> <ChemID>
100622

> <CAS>
37680-73-2

> <Original_SMILES>
Clc1cc(-c2cc(Cl)c(Cl)cc2Cl)c(Cl)cc1

> <preferred_name>
2,2,4,5,5'-Pentochlorobiphenyl

> <dsstox_substance_id>
DTXSID8038304

> <dsstox_compound_id>
DTXCID6018304

> <qc_level>
DSSTox_Low

> <Canonical_QSARr>
ClC1=CC(C2C=C(Cl)C(Cl)=CC=2Cl)=C(Cl)C=C1

> <InChI_Code_QSARr>
InChI=1S/C12H5Cl5/c13-6-1-2-9(14)7(3-6)8-4-11(16)12(17)5-10(8)15/h1-5H

> <InChI Key_QSARr>
LAHWLEDBADHJGA-UHFFFAOYSA-N

> <Salt_Solvent>


> <Salt_Solvent_ID>
0

> <MPID>
98507

> <LogBCF>
5.47

> <Tr_1_Tst_0>
1

$$$$
100623
  Mrv171c012241911322D          

 17 18  0  0  0  0            999 V2000
    0.7145    2.0625    0.0000 C   0  0  0  0  0  0  0  0  0  0  0  0
    1.4289    2.4750    0.0000 C   0  0  0  0  0  0  0  0  0  0  0  0
    1.4289    3.3000    0.0000 C   0  0  0  0  0  0  0  0  0  0  0  0
    0.7145    3.7125    0.0000 C   0  0  0  0  0  0  0  0  0  0  0  0
    0.7145    4.5375    0.0000 Cl  0  0  0  0  0  0  0  0  0  0  0  0
   -0.0000    3.3000    0.0000 C   0  0  0  0  0  0  0  0  0  0  0  0
   -0.7145    3.7125    0.0000 Cl  0  0  0  0  0  0  0  0  0  0  0  0
   -0.0000    2.4750    0.0000 C   0  0  0  0  0  0  0  0  0  0  0  0
   -0.7145    2.0625    0.0000 Cl  0  0  0  0  0  0  0  0  0  0  0  0
    0.7145    1.2375    0.0000 C   0  0  0  0  0  0  0  0  0  0  0  0
   -0.0000    0.8250    0.0000 C   0  0  0  0  0  0  0  0  0  0  0  0
   -0.0000    0.0000    0.0000 C   0  0  0  0  0  0  0  0  0  0  0  0
   -0.7145   -0.4125    0.0000 Cl  0  0  0  0  0  0  0  0  0  0  0  0
    0.7145   -0.4125    0.0000 C   0  0  0  0  0  0  0  0  0  0  0  0
    1.4289    0.0000    0.0000 C   0  0  0  0  0  0  0  0  0  0  0  0
    1.4289    0.8250    0.0000 C   0  0  0  0  0  0  0  0  0  0  0  0
    2.1434    1.2375    0.0000 Cl  0  0  0  0  0  0  0  0  0  0  0  0
  2  1  1  0  0  0  0
  3  2  2  0  0  0  0
  4  3  1  0  0  0  0
  4  5  1  0  0  0  0
  6  4  2  0  0  0  0
  6  7  1  0  0  0  0
  8  6  1  0  0  0  0
  1  8  2  0  0  0  0
  8  9  1  0  0  0  0
  1 10  1  0  0  0  0
 11 10  1  0  0  0  0
 12 11  2  0  0  0  0
 12 13  1  0  0  0  0
 14 12  1  0  0  0  0
 15 14  2  0  0  0  0
 16 15  1  0  0  0  0
 10 16  2  0  0  0  0
 16 17  1  0  0  0  0
M  END
> <ChemID>
100623

> <CAS>
38380-02-8

> <Original_SMILES>
Clc1cc(-c2ccc(Cl)c(Cl)c2Cl)c(Cl)cc1

> <preferred_name>
2,2',3,4,5'-Pentachlorobiphenyl

> <dsstox_substance_id>
DTXSID6073497

> <dsstox_compound_id>
DTXCID5039484

> <qc_level>
Public_High

> <Canonical_QSARr>
ClC1=CC(C2C=CC(Cl)=C(Cl)C=2Cl)=C(Cl)C=C1

> <InChI_Code_QSARr>
InChI=1S/C12H5Cl5/c13-6-1-3-9(14)8(5-6)7-2-4-10(15)12(17)11(7)16/h1-5H

> <InChI Key_QSARr>
OPKYDBFRKPQCBS-UHFFFAOYSA-N

> <Salt_Solvent>


> <Salt_Solvent_ID>
0

> <MPID>
98508

> <LogBCF>
5.38

> <Tr_1_Tst_0>
1

$$$$
100624
  Mrv171c012241911322D          

 16 17  0  0  0  0            999 V2000
    1.0717    1.8563    0.0000 C   0  0  0  0  0  0  0  0  0  0  0  0
    1.7862    1.4438    0.0000 C   0  0  0  0  0  0  0  0  0  0  0  0
    2.5006    1.8563    0.0000 C   0  0  0  0  0  0  0  0  0  0  0  0
    2.5006    2.6813    0.0000 C   0  0  0  0  0  0  0  0  0  0  0  0
    1.7862    3.0938    0.0000 C   0  0  0  0  0  0  0  0  0  0  0  0
    1.7862    3.9188    0.0000 Cl  0  0  0  0  0  0  0  0  0  0  0  0
    1.0717    2.6813    0.0000 C   0  0  0  0  0  0  0  0  0  0  0  0
    0.3572    3.0938    0.0000 Cl  0  0  0  0  0  0  0  0  0  0  0  0
    0.3572    1.4438    0.0000 C   0  0  0  0  0  0  0  0  0  0  0  0
   -0.3572    1.8563    0.0000 C   0  0  0  0  0  0  0  0  0  0  0  0
   -1.0717    1.4438    0.0000 C   0  0  0  0  0  0  0  0  0  0  0  0
   -1.0717    0.6188    0.0000 C   0  0  0  0  0  0  0  0  0  0  0  0
   -0.3572    0.2063    0.0000 C   0  0  0  0  0  0  0  0  0  0  0  0
   -0.3572   -0.6187    0.0000 Cl  0  0  0  0  0  0  0  0  0  0  0  0
    0.3572    0.6188    0.0000 C   0  0  0  0  0  0  0  0  0  0  0  0
    1.0717    0.2063    0.0000 Cl  0  0  0  0  0  0  0  0  0  0  0  0
  2  1  1  0  0  0  0
  3  2  2  0  0  0  0
  4  3  1  0  0  0  0
  5  4  2  0  0  0  0
  5  6  1  0  0  0  0
  7  5  1  0  0  0  0
  1  7  2  0  0  0  0
  7  8  1  0  0  0  0
  1  9  1  0  0  0  0
 10  9  1  0  0  0  0
 11 10  2  0  0  0  0
 12 11  1  0  0  0  0
 13 12  2  0  0  0  0
 13 14  1  0  0  0  0
 15 13  1  0  0  0  0
  9 15  2  0  0  0  0
 15 16  1  0  0  0  0
M  END
> <ChemID>
100624

> <CAS>
38444-93-8

> <Original_SMILES>
Clc1cccc(-c2cccc(Cl)c2Cl)c1Cl

> <preferred_name>
2,2',3,3'-Tetrachlorobiphenyl

> <dsstox_substance_id>
DTXSID3073503

> <dsstox_compound_id>
DTXCID6039508

> <qc_level>
Public_High

> <Canonical_QSARr>
ClC1=CC=CC(C2C=CC=C(Cl)C=2Cl)=C1Cl

> <InChI_Code_QSARr>
InChI=1S/C12H6Cl4/c13-9-5-1-3-7(11(9)15)8-4-2-6-10(14)12(8)16/h1-6H

> <InChI Key_QSARr>
VTLYHLREPCPDKX-UHFFFAOYSA-N

> <Salt_Solvent>


> <Salt_Solvent_ID>
0

> <MPID>
98509

> <LogBCF>
4.23

> <Tr_1_Tst_0>
1

$$$$
100626
  Mrv171c012241911322D          

 21 23  0  0  0  0            999 V2000
    2.1629   -2.2433    0.0000 C   0  0  0  0  0  0  0  0  0  0  0  0
    2.8304   -2.7282    0.0000 O   0  0  0  0  0  0  0  0  0  0  0  0
    3.4978   -2.2433    0.0000 C   0  0  0  0  0  0  0  0  0  0  0  0
    4.3048   -2.4148    0.0000 C   0  0  0  0  0  0  0  0  0  0  0  0
    4.8568   -1.8017    0.0000 C   0  0  0  0  0  0  0  0  0  0  0  0
    4.6019   -1.0171    0.0000 C   0  0  0  0  0  0  0  0  0  0  0  0
    3.7949   -0.8455    0.0000 C   0  0  0  0  0  0  0  0  0  0  0  0
    3.5400   -0.0609    0.0000 Cl  0  0  0  0  0  0  0  0  0  0  0  0
    3.2429   -1.4586    0.0000 C   0  0  0  0  0  0  0  0  0  0  0  0
    2.4179   -1.4586    0.0000 C   0  0  0  0  0  0  0  0  0  0  0  0
    1.8658   -0.8455    0.0000 C   0  0  0  0  0  0  0  0  0  0  0  0
    2.1208   -0.0609    0.0000 Cl  0  0  0  0  0  0  0  0  0  0  0  0
    1.0589   -1.0171    0.0000 C   0  0  0  0  0  0  0  0  0  0  0  0
    0.5068   -0.4040    0.0000 Cl  0  0  0  0  0  0  0  0  0  0  0  0
    0.8039   -1.8017    0.0000 C   0  0  0  0  0  0  0  0  0  0  0  0
   -0.0030   -1.9732    0.0000 Cl  0  0  0  0  0  0  0  0  0  0  0  0
    1.3560   -2.4148    0.0000 C   0  0  0  0  0  0  0  0  0  0  0  0
    1.1010   -3.1994    0.0000 Cl  0  0  0  0  0  0  0  0  0  0  0  0
    5.1539   -0.4040    0.0000 Cl  0  0  0  0  0  0  0  0  0  0  0  0
    5.6638   -1.9732    0.0000 Cl  0  0  0  0  0  0  0  0  0  0  0  0
    4.5597   -3.1994    0.0000 Cl  0  0  0  0  0  0  0  0  0  0  0  0
  2  1  1  0  0  0  0
  3  2  1  0  0  0  0
  3  4  1  0  0  0  0
  4  5  2  0  0  0  0
  5  6  1  0  0  0  0
  6  7  2  0  0  0  0
  7  8  1  0  0  0  0
  7  9  1  0  0  0  0
  9  3  2  0  0  0  0
 10  9  1  0  0  0  0
 10  1  1  0  0  0  0
 11 10  2  0  0  0  0
 11 12  1  0  0  0  0
 13 11  1  0  0  0  0
 13 14  1  0  0  0  0
 15 13  2  0  0  0  0
 15 16  1  0  0  0  0
 17 15  1  0  0  0  0
  1 17  2  0  0  0  0
 17 18  1  0  0  0  0
  6 19  1  0  0  0  0
  5 20  1  0  0  0  0
  4 21  1  0  0  0  0
M  END
> <ChemID>
100626

> <CAS>
39001-02-0

> <Original_SMILES>
Clc1c2oc3c(c2c(Cl)c(Cl)c1Cl)c(Cl)c(Cl)c(Cl)c3Cl

> <preferred_name>
Octachlorodibenzofuran

> <dsstox_substance_id>
DTXSID3052062

> <dsstox_compound_id>
DTXCID4030629

> <qc_level>
DSSTox_Low

> <Canonical_QSARr>
ClC1C2OC3C(C=2C(Cl)=C(Cl)C=1Cl)=C(Cl)C(Cl)=C(Cl)C=3Cl

> <InChI_Code_QSARr>
InChI=1S/C12Cl8O/c13-3-1-2-4(14)6(16)8(18)10(20)12(2)21-11(1)9(19)7(17)5(3)15

> <InChI Key_QSARr>
RHIROFAGUQOFLU-UHFFFAOYSA-N

> <Salt_Solvent>


> <Salt_Solvent_ID>
0

> <MPID>
98510

> <LogBCF>
2.89

> <Tr_1_Tst_0>
0

$$$$
100627
  Mrv171c012241911322D          

 20 22  0  0  0  0            999 V2000
    2.1475   -2.0636    0.0000 C   0  0  0  0  0  0  0  0  0  0  0  0
    2.8619   -2.4761    0.0000 O   0  0  0  0  0  0  0  0  0  0  0  0
    3.5764   -2.0636    0.0000 C   0  0  0  0  0  0  0  0  0  0  0  0
    4.2909   -2.4761    0.0000 C   0  0  0  0  0  0  0  0  0  0  0  0
    5.0054   -2.0636    0.0000 C   0  0  0  0  0  0  0  0  0  0  0  0
    5.0054   -1.2386    0.0000 C   0  0  0  0  0  0  0  0  0  0  0  0
    4.2909   -0.8261    0.0000 C   0  0  0  0  0  0  0  0  0  0  0  0
    4.2909   -0.0011    0.0000 Cl  0  0  0  0  0  0  0  0  0  0  0  0
    3.5764   -1.2386    0.0000 C   0  0  0  0  0  0  0  0  0  0  0  0
    2.8619   -0.8261    0.0000 O   0  0  0  0  0  0  0  0  0  0  0  0
    2.1475   -1.2386    0.0000 C   0  0  0  0  0  0  0  0  0  0  0  0
    1.4330   -0.8261    0.0000 C   0  0  0  0  0  0  0  0  0  0  0  0
    0.7185   -1.2386    0.0000 C   0  0  0  0  0  0  0  0  0  0  0  0
    0.0041   -0.8261    0.0000 Cl  0  0  0  0  0  0  0  0  0  0  0  0
    0.7185   -2.0636    0.0000 C   0  0  0  0  0  0  0  0  0  0  0  0
    0.0041   -2.4761    0.0000 Cl  0  0  0  0  0  0  0  0  0  0  0  0
    1.4330   -2.4761    0.0000 C   0  0  0  0  0  0  0  0  0  0  0  0
    5.7198   -0.8261    0.0000 Cl  0  0  0  0  0  0  0  0  0  0  0  0
    5.7198   -2.4761    0.0000 Cl  0  0  0  0  0  0  0  0  0  0  0  0
    4.2909   -3.3011    0.0000 Cl  0  0  0  0  0  0  0  0  0  0  0  0
  2  1  1  0  0  0  0
  3  2  1  0  0  0  0
  3  4  1  0  0  0  0
  4  5  2  0  0  0  0
  5  6  1  0  0  0  0
  6  7  2  0  0  0  0
  7  8  1  0  0  0  0
  7  9  1  0  0  0  0
  9  3  2  0  0  0  0
 10  9  1  0  0  0  0
 11 10  1  0  0  0  0
 11  1  1  0  0  0  0
 12 11  2  0  0  0  0
 13 12  1  0  0  0  0
 13 14  1  0  0  0  0
 15 13  2  0  0  0  0
 15 16  1  0  0  0  0
 17 15  1  0  0  0  0
  1 17  2  0  0  0  0
  6 18  1  0  0  0  0
  5 19  1  0  0  0  0
  4 20  1  0  0  0  0
M  END
> <ChemID>
100627

> <CAS>
39227-28-6

> <Original_SMILES>
Clc1cc2Oc3c(Oc2cc1Cl)c(Cl)c(Cl)c(Cl)c3Cl

> <preferred_name>
1,2,3,4,7,8-Hexachlorodibenzodioxin

> <dsstox_substance_id>
DTXSID8052067

> <dsstox_compound_id>
DTXCID3030634

> <qc_level>
DSSTox_High

> <Canonical_QSARr>
ClC1C=C2OC3=C(OC2=CC=1Cl)C(Cl)=C(Cl)C(Cl)=C3Cl

> <InChI_Code_QSARr>
InChI=1S/C12H2Cl6O2/c13-3-1-5-6(2-4(3)14)20-12-10(18)8(16)7(15)9(17)11(12)19-5/h1-2H

> <InChI Key_QSARr>
WCYYQNSQJHPVMG-UHFFFAOYSA-N

> <Salt_Solvent>


> <Salt_Solvent_ID>
0

> <MPID>
98511

> <LogBCF>
4.0

> <Tr_1_Tst_0>
1

$$$$
100628
  Mrv171c012241911322D          

 17 19  0  0  0  0            999 V2000
    5.1158    1.6492    0.0000 Cl  0  0  0  0  0  0  0  0  0  0  0  0
    5.1158    0.8242    0.0000 C   0  0  0  0  0  0  0  0  0  0  0  0
    5.8303    0.4117    0.0000 C   0  0  0  0  0  0  0  0  0  0  0  0
    6.5447    0.8242    0.0000 Cl  0  0  0  0  0  0  0  0  0  0  0  0
    5.8303   -0.4133    0.0000 C   0  0  0  0  0  0  0  0  0  0  0  0
    5.1158   -0.8258    0.0000 C   0  0  0  0  0  0  0  0  0  0  0  0
    5.1158   -1.6508    0.0000 Cl  0  0  0  0  0  0  0  0  0  0  0  0
    4.4013   -0.4133    0.0000 C   0  0  0  0  0  0  0  0  0  0  0  0
    4.4013    0.4117    0.0000 C   0  0  0  0  0  0  0  0  0  0  0  0
    3.6868    0.8242    0.0000 O   0  0  0  0  0  0  0  0  0  0  0  0
    2.9724    0.4117    0.0000 C   0  0  0  0  0  0  0  0  0  0  0  0
    2.2579    0.8242    0.0000 C   0  0  0  0  0  0  0  0  0  0  0  0
    1.5434    0.4117    0.0000 C   0  0  0  0  0  0  0  0  0  0  0  0
    1.5434   -0.4133    0.0000 C   0  0  0  0  0  0  0  0  0  0  0  0
    2.2579   -0.8258    0.0000 C   0  0  0  0  0  0  0  0  0  0  0  0
    2.9724   -0.4133    0.0000 C   0  0  0  0  0  0  0  0  0  0  0  0
    3.6868   -0.8258    0.0000 O   0  0  0  0  0  0  0  0  0  0  0  0
  1  2  1  0  0  0  0
  3  2  2  0  0  0  0
  3  4  1  0  0  0  0
  5  3  1  0  0  0  0
  6  5  2  0  0  0  0
  6  7  1  0  0  0  0
  8  6  1  0  0  0  0
  8  9  2  0  0  0  0
  2  9  1  0  0  0  0
  9 10  1  0  0  0  0
 10 11  1  0  0  0  0
 12 11  2  0  0  0  0
 13 12  1  0  0  0  0
 14 13  2  0  0  0  0
 15 14  1  0  0  0  0
 16 15  2  0  0  0  0
 11 16  1  0  0  0  0
 16 17  1  0  0  0  0
 17  8  1  0  0  0  0
M  END
> <ChemID>
100628

> <CAS>
39227-58-2

> <Original_SMILES>
Clc1cc(Cl)c(Cl)c2Oc3ccccc3Oc12

> <preferred_name>
1,2,4-Trichlorodibenzo-1,4-dioxin

> <dsstox_substance_id>
DTXSID50192489

> <dsstox_compound_id>
DTXCID10114980

> <qc_level>
Public_Medium

> <Canonical_QSARr>
ClC1C=C(Cl)C2OC3=CC=CC=C3OC=2C=1Cl

> <InChI_Code_QSARr>
InChI=1S/C12H5Cl3O2/c13-6-5-7(14)11-12(10(6)15)17-9-4-2-1-3-8(9)16-11/h1-5H

> <InChI Key_QSARr>
HRVUKLBFRPWXPJ-UHFFFAOYSA-N

> <Salt_Solvent>


> <Salt_Solvent_ID>
0

> <MPID>
98512

> <LogBCF>
2.75

> <Tr_1_Tst_0>
1

$$$$
100629
  Mrv171c012241911322D          

 19 21  0  0  0  0            999 V2000
    2.1373   -1.8857    0.0000 C   0  0  0  0  0  0  0  0  0  0  0  0
    2.8518   -2.2982    0.0000 O   0  0  0  0  0  0  0  0  0  0  0  0
    3.5663   -1.8857    0.0000 C   0  0  0  0  0  0  0  0  0  0  0  0
    4.2807   -2.2982    0.0000 C   0  0  0  0  0  0  0  0  0  0  0  0
    4.9952   -1.8857    0.0000 C   0  0  0  0  0  0  0  0  0  0  0  0
    4.9952   -1.0607    0.0000 C   0  0  0  0  0  0  0  0  0  0  0  0
    4.2807   -0.6482    0.0000 C   0  0  0  0  0  0  0  0  0  0  0  0
    3.5663   -1.0607    0.0000 C   0  0  0  0  0  0  0  0  0  0  0  0
    2.8518   -0.6482    0.0000 O   0  0  0  0  0  0  0  0  0  0  0  0
    2.1373   -1.0607    0.0000 C   0  0  0  0  0  0  0  0  0  0  0  0
    1.4229   -0.6482    0.0000 C   0  0  0  0  0  0  0  0  0  0  0  0
    0.7084   -1.0607    0.0000 C   0  0  0  0  0  0  0  0  0  0  0  0
   -0.0061   -0.6482    0.0000 Cl  0  0  0  0  0  0  0  0  0  0  0  0
    0.7084   -1.8857    0.0000 C   0  0  0  0  0  0  0  0  0  0  0  0
   -0.0061   -2.2982    0.0000 Cl  0  0  0  0  0  0  0  0  0  0  0  0
    1.4229   -2.2982    0.0000 C   0  0  0  0  0  0  0  0  0  0  0  0
    5.7097   -0.6482    0.0000 Cl  0  0  0  0  0  0  0  0  0  0  0  0
    5.7097   -2.2982    0.0000 Cl  0  0  0  0  0  0  0  0  0  0  0  0
    4.2807   -3.1232    0.0000 Cl  0  0  0  0  0  0  0  0  0  0  0  0
  2  1  1  0  0  0  0
  3  2  1  0  0  0  0
  3  4  1  0  0  0  0
  4  5  2  0  0  0  0
  5  6  1  0  0  0  0
  6  7  2  0  0  0  0
  7  8  1  0  0  0  0
  8  3  2  0  0  0  0
  9  8  1  0  0  0  0
 10  9  1  0  0  0  0
 10  1  1  0  0  0  0
 11 10  2  0  0  0  0
 12 11  1  0  0  0  0
 12 13  1  0  0  0  0
 14 12  2  0  0  0  0
 14 15  1  0  0  0  0
 16 14  1  0  0  0  0
  1 16  2  0  0  0  0
  6 17  1  0  0  0  0
  5 18  1  0  0  0  0
  4 19  1  0  0  0  0
M  END
> <ChemID>
100629

> <CAS>
40321-76-4

> <Original_SMILES>
Clc1c(Cl)c2Oc3cc(Cl)c(Cl)cc3Oc2cc1Cl

> <preferred_name>
1,2,3,7,8-Pentachlorodibenzo-p-dioxin

> <dsstox_substance_id>
DTXSID7052078

> <dsstox_compound_id>
DTXCID2030645

> <qc_level>
DSSTox_Low

> <Canonical_QSARr>
ClC1C=C2OC3C=C(Cl)C(Cl)=C(Cl)C=3OC2=CC=1Cl

> <InChI_Code_QSARr>
InChI=1S/C12H3Cl5O2/c13-4-1-7-8(2-5(4)14)19-12-9(18-7)3-6(15)10(16)11(12)17/h1-3H

> <InChI Key_QSARr>
FSPZPQQWDODWAU-UHFFFAOYSA-N

> <Salt_Solvent>


> <Salt_Solvent_ID>
0

> <MPID>
98513

> <LogBCF>
4.26

> <Tr_1_Tst_0>
1

$$$$
100630
  Mrv171c012241911322D          

 20 21  0  0  0  0            999 V2000
   -1.2155   -2.5183    0.0000 C   0  0  0  0  0  0  0  0  0  0  0  0
   -0.5010   -2.9308    0.0000 C   0  0  0  0  0  0  0  0  0  0  0  0
    0.2134   -2.5183    0.0000 C   0  0  0  0  0  0  0  0  0  0  0  0
    0.9279   -2.9308    0.0000 C   0  0  0  0  0  0  0  0  0  0  0  0
    1.6424   -2.5183    0.0000 C   0  0  0  0  0  0  0  0  0  0  0  0
    2.3569   -2.9308    0.0000 C   0  0  0  0  0  0  0  0  0  0  0  0
    3.0713   -2.5183    0.0000 C   0  0  0  0  0  0  0  0  0  0  0  0
    3.7858   -2.9308    0.0000 C   0  0  0  0  0  0  0  0  0  0  0  0
    4.5003   -2.5183    0.0000 C   0  0  0  0  0  0  0  0  0  0  0  0
    4.5003   -1.6933    0.0000 C   0  0  0  0  0  0  0  0  0  0  0  0
    5.2147   -1.2808    0.0000 C   0  0  0  0  0  0  0  0  0  0  0  0
    5.9292   -1.6933    0.0000 C   0  0  0  0  0  0  0  0  0  0  0  0
    6.6437   -1.2808    0.0000 C   0  0  0  0  0  0  0  0  0  0  0  0
    6.6437   -0.4558    0.0000 C   0  0  0  0  0  0  0  0  0  0  0  0
    7.3582   -0.0433    0.0000 C   0  0  0  0  0  0  0  0  0  0  0  0
    8.0726    0.3692    0.0000 N   0  0  0  0  0  0  0  0  0  0  0  0
    5.9292   -0.0433    0.0000 C   0  0  0  0  0  0  0  0  0  0  0  0
    5.2147   -0.4558    0.0000 C   0  0  0  0  0  0  0  0  0  0  0  0
    3.7858   -1.2808    0.0000 C   0  0  0  0  0  0  0  0  0  0  0  0
    3.0713   -1.6933    0.0000 C   0  0  0  0  0  0  0  0  0  0  0  0
  1  2  1  0  0  0  0
  2  3  1  0  0  0  0
  3  4  1  0  0  0  0
  4  5  1  0  0  0  0
  5  6  1  0  0  0  0
  6  7  1  0  0  0  0
  8  7  1  0  0  0  0
  9  8  2  0  0  0  0
 10  9  1  0  0  0  0
 10 11  1  0  0  0  0
 12 11  1  0  0  0  0
 13 12  2  0  0  0  0
 14 13  1  0  0  0  0
 14 15  1  0  0  0  0
 15 16  3  0  0  0  0
 17 14  2  0  0  0  0
 18 17  1  0  0  0  0
 11 18  2  0  0  0  0
 19 10  2  0  0  0  0
 20 19  1  0  0  0  0
  7 20  2  0  0  0  0
M  END
> <ChemID>
100630

> <CAS>
41122-70-7

> <Original_SMILES>
CCCCCCc1ccc(cc1)-c1ccc(cc1)C#N

> <preferred_name>
4-Hexyl-4'-cyanobiphenyl

> <dsstox_substance_id>
DTXSID4025404

> <dsstox_compound_id>
DTXCID905404

> <qc_level>
DSSTox_Low

> <Canonical_QSARr>
CCCCCCC1C=CC(=CC=1)C1C=CC(=CC=1)C#N

> <InChI_Code_QSARr>
InChI=1S/C19H21N/c1-2-3-4-5-6-16-7-11-18(12-8-16)19-13-9-17(15-20)10-14-19/h7-14H,2-6H2,1H3

> <InChI Key_QSARr>
VADSDVGLFDVIMG-UHFFFAOYSA-N

> <Salt_Solvent>


> <Salt_Solvent_ID>
0

> <MPID>
98514

> <LogBCF>
3.52

> <Tr_1_Tst_0>
0

$$$$
100631
  Mrv171c012241911322D          

 16 17  0  0  0  0            999 V2000
    2.5069   -1.1993    0.0000 C   0  0  0  0  0  0  0  0  0  0  0  0
    3.2214   -1.6118    0.0000 C   0  0  0  0  0  0  0  0  0  0  0  0
    3.9359   -1.1993    0.0000 C   0  0  0  0  0  0  0  0  0  0  0  0
    3.9359   -0.3743    0.0000 C   0  0  0  0  0  0  0  0  0  0  0  0
    3.2214    0.0382    0.0000 C   0  0  0  0  0  0  0  0  0  0  0  0
    3.2214    0.8632    0.0000 Cl  0  0  0  0  0  0  0  0  0  0  0  0
    2.5069   -0.3743    0.0000 C   0  0  0  0  0  0  0  0  0  0  0  0
    1.7924    0.0382    0.0000 Cl  0  0  0  0  0  0  0  0  0  0  0  0
    1.7924   -1.6118    0.0000 C   0  0  0  0  0  0  0  0  0  0  0  0
    1.0780   -1.1993    0.0000 C   0  0  0  0  0  0  0  0  0  0  0  0
    0.3635   -1.6118    0.0000 C   0  0  0  0  0  0  0  0  0  0  0  0
   -0.3510   -1.1993    0.0000 Cl  0  0  0  0  0  0  0  0  0  0  0  0
    0.3635   -2.4368    0.0000 C   0  0  0  0  0  0  0  0  0  0  0  0
    1.0780   -2.8493    0.0000 C   0  0  0  0  0  0  0  0  0  0  0  0
    1.7924   -2.4368    0.0000 C   0  0  0  0  0  0  0  0  0  0  0  0
    2.5069   -2.8493    0.0000 Cl  0  0  0  0  0  0  0  0  0  0  0  0
  2  1  1  0  0  0  0
  3  2  2  0  0  0  0
  4  3  1  0  0  0  0
  5  4  2  0  0  0  0
  5  6  1  0  0  0  0
  7  5  1  0  0  0  0
  1  7  2  0  0  0  0
  7  8  1  0  0  0  0
  1  9  1  0  0  0  0
 10  9  1  0  0  0  0
 11 10  2  0  0  0  0
 11 12  1  0  0  0  0
 13 11  1  0  0  0  0
 14 13  2  0  0  0  0
 15 14  1  0  0  0  0
  9 15  2  0  0  0  0
 15 16  1  0  0  0  0
M  END
> <ChemID>
100631

> <CAS>
41464-39-5

> <Original_SMILES>
Clc1cc(-c2cccc(Cl)c2Cl)c(Cl)cc1

> <preferred_name>
2,2',3,5'-tetrachlorobiphenyl

> <dsstox_substance_id>
DTXSID8038302

> <dsstox_compound_id>
DTXCID6018302

> <qc_level>
DSSTox_Low

> <Canonical_QSARr>
ClC1C=CC(Cl)=CC=1C1C=CC=C(Cl)C=1Cl

> <InChI_Code_QSARr>
InChI=1S/C12H6Cl4/c13-7-4-5-10(14)9(6-7)8-2-1-3-11(15)12(8)16/h1-6H

> <InChI Key_QSARr>
ALDJIKXAHSDLLB-UHFFFAOYSA-N

> <Salt_Solvent>


> <Salt_Solvent_ID>
0

> <MPID>
98515

> <LogBCF>
4.84

> <Tr_1_Tst_0>
1

$$$$
100633
  Mrv171c012241911322D          

 11 11  0  0  0  0            999 V2000
    3.9882    0.6562    0.0000 Cl  0  0  0  0  0  0  0  0  0  0  0  0
    3.2737    0.2437    0.0000 C   0  0  0  0  0  0  0  0  0  0  0  0
    2.5593    0.6562    0.0000 C   0  0  0  0  0  0  0  0  0  0  0  0
    2.5593    1.4812    0.0000 Cl  0  0  0  0  0  0  0  0  0  0  0  0
    1.8448    0.2437    0.0000 C   0  0  0  0  0  0  0  0  0  0  0  0
    1.8448   -0.5813    0.0000 C   0  0  0  0  0  0  0  0  0  0  0  0
    2.5593   -0.9938    0.0000 C   0  0  0  0  0  0  0  0  0  0  0  0
    2.5593   -1.8188    0.0000 Cl  0  0  0  0  0  0  0  0  0  0  0  0
    3.2737   -0.5813    0.0000 C   0  0  0  0  0  0  0  0  0  0  0  0
    3.9882   -0.9938    0.0000 O   0  0  0  0  0  0  0  0  0  0  0  0
    4.7027   -0.5813    0.0000 C   0  0  0  0  0  0  0  0  0  0  0  0
  1  2  1  0  0  0  0
  3  2  2  0  0  0  0
  3  4  1  0  0  0  0
  5  3  1  0  0  0  0
  6  5  2  0  0  0  0
  7  6  1  0  0  0  0
  7  8  1  0  0  0  0
  9  7  2  0  0  0  0
  2  9  1  0  0  0  0
  9 10  1  0  0  0  0
 10 11  1  0  0  0  0
M  END
> <ChemID>
100633

> <CAS>
50375-10-5

> <Original_SMILES>
COc1c(Cl)c(Cl)ccc1Cl

> <preferred_name>
2,3,6-Trichloroanisole

> <dsstox_substance_id>
DTXSID60198432

> <dsstox_compound_id>
DTXCID90120923

> <qc_level>
Public_Medium

> <Canonical_QSARr>
COC1C(Cl)=C(Cl)C=CC=1Cl

> <InChI_Code_QSARr>
InChI=1S/C7H5Cl3O/c1-11-7-5(9)3-2-4(8)6(7)10/h2-3H,1H3

> <InChI Key_QSARr>
OTFNCXLUCRUNCH-UHFFFAOYSA-N

> <Salt_Solvent>


> <Salt_Solvent_ID>
0

> <MPID>
98516

> <LogBCF>
2.52

> <Tr_1_Tst_0>
1

$$$$
100634
  Mrv171c012241911322D          

 18 18  0  0  0  0            999 V2000
   -0.1839   -1.9242    0.0000 C   0  0  0  0  0  0  0  0  0  0  0  0
    0.5306   -1.5117    0.0000 C   0  0  0  0  0  0  0  0  0  0  0  0
    1.2451   -1.9242    0.0000 O   0  0  0  0  0  0  0  0  0  0  0  0
    1.9595   -1.5117    0.0000 C   0  0  0  0  0  0  0  0  0  0  0  0
    1.9595   -0.6867    0.0000 O   0  0  0  0  0  0  0  0  0  0  0  0
    2.6740   -1.9242    0.0000 C   0  0  0  0  0  0  0  0  0  0  0  0
    2.6740   -2.7492    0.0000 C   0  0  0  0  0  0  0  0  0  0  0  0
    2.0066   -3.2341    0.0000 S   0  0  0  0  0  0  0  0  0  0  0  0
    2.2615   -4.0188    0.0000 C   0  0  0  0  0  0  0  0  0  0  0  0
    3.0865   -4.0188    0.0000 C   0  0  0  0  0  0  0  0  0  0  0  0
    3.3414   -3.2341    0.0000 S   0  0  0  0  0  0  0  0  0  0  0  0
    3.3885   -1.5117    0.0000 C   0  0  0  0  0  0  0  0  0  0  0  0
    3.3885   -0.6867    0.0000 O   0  0  0  0  0  0  0  0  0  0  0  0
    4.1029   -0.2742    0.0000 C   0  0  0  0  0  0  0  0  0  0  0  0
    4.1029    0.5508    0.0000 C   0  0  0  0  0  0  0  0  0  0  0  0
    4.8174   -0.6867    0.0000 C   0  0  0  0  0  0  0  0  0  0  0  0
    4.1029   -1.9242    0.0000 O   0  0  0  0  0  0  0  0  0  0  0  0
    0.5306   -0.6867    0.0000 C   0  0  0  0  0  0  0  0  0  0  0  0
  1  2  1  0  0  0  0
  2  3  1  0  0  0  0
  3  4  1  0  0  0  0
  4  5  2  0  0  0  0
  4  6  1  0  0  0  0
  6  7  2  0  0  0  0
  8  7  1  0  0  0  0
  9  8  1  0  0  0  0
 10  9  1  0  0  0  0
 11 10  1  0  0  0  0
  7 11  1  0  0  0  0
  6 12  1  0  0  0  0
 12 13  1  0  0  0  0
 13 14  1  0  0  0  0
 14 15  1  0  0  0  0
 14 16  1  0  0  0  0
 12 17  2  0  0  0  0
  2 18  1  0  0  0  0
M  END
> <ChemID>
100634

> <CAS>
50512-35-1

> <Original_SMILES>
CC(C)OC(=O)C(=C1SCCS1)C(=O)OC(C)C

> <preferred_name>
Isoprothiolane

> <dsstox_substance_id>
DTXSID8058110

> <dsstox_compound_id>
DTXCID7031878

> <qc_level>
DSSTox_High

> <Canonical_QSARr>
CC(C)OC(=O)C(=C1SCCS1)C(=O)OC(C)C

> <InChI_Code_QSARr>
InChI=1S/C12H18O4S2/c1-7(2)15-10(13)9(11(14)16-8(3)4)12-17-5-6-18-12/h7-8H,5-6H2,1-4H3

> <InChI Key_QSARr>
UFHLMYOGRXOCSL-UHFFFAOYSA-N

> <Salt_Solvent>


> <Salt_Solvent_ID>
0

> <MPID>
98517

> <LogBCF>
1.57

> <Tr_1_Tst_0>
1

$$$$
100636
  Mrv171c012241911322D          

 17 19  0  0  0  0            999 V2000
    2.1642   -1.7855    0.0000 C   0  0  0  0  0  0  0  0  0  0  0  0
    2.8316   -2.2704    0.0000 O   0  0  0  0  0  0  0  0  0  0  0  0
    3.4991   -1.7855    0.0000 C   0  0  0  0  0  0  0  0  0  0  0  0
    4.3060   -1.9570    0.0000 C   0  0  0  0  0  0  0  0  0  0  0  0
    4.8581   -1.3439    0.0000 C   0  0  0  0  0  0  0  0  0  0  0  0
    4.6031   -0.5593    0.0000 C   0  0  0  0  0  0  0  0  0  0  0  0
    3.7962   -0.3877    0.0000 C   0  0  0  0  0  0  0  0  0  0  0  0
    3.2441   -1.0008    0.0000 C   0  0  0  0  0  0  0  0  0  0  0  0
    2.4191   -1.0008    0.0000 C   0  0  0  0  0  0  0  0  0  0  0  0
    1.8671   -0.3877    0.0000 C   0  0  0  0  0  0  0  0  0  0  0  0
    1.0601   -0.5593    0.0000 C   0  0  0  0  0  0  0  0  0  0  0  0
    0.5081    0.0538    0.0000 Cl  0  0  0  0  0  0  0  0  0  0  0  0
    0.8052   -1.3439    0.0000 C   0  0  0  0  0  0  0  0  0  0  0  0
   -0.0018   -1.5154    0.0000 Cl  0  0  0  0  0  0  0  0  0  0  0  0
    1.3572   -1.9570    0.0000 C   0  0  0  0  0  0  0  0  0  0  0  0
    5.1552    0.0538    0.0000 Cl  0  0  0  0  0  0  0  0  0  0  0  0
    5.6650   -1.5154    0.0000 Cl  0  0  0  0  0  0  0  0  0  0  0  0
  2  1  1  0  0  0  0
  3  2  1  0  0  0  0
  3  4  1  0  0  0  0
  4  5  2  0  0  0  0
  5  6  1  0  0  0  0
  6  7  2  0  0  0  0
  7  8  1  0  0  0  0
  8  3  2  0  0  0  0
  9  8  1  0  0  0  0
  9  1  1  0  0  0  0
 10  9  2  0  0  0  0
 11 10  1  0  0  0  0
 11 12  1  0  0  0  0
 13 11  2  0  0  0  0
 13 14  1  0  0  0  0
 15 13  1  0  0  0  0
  1 15  2  0  0  0  0
  6 16  1  0  0  0  0
  5 17  1  0  0  0  0
M  END
> <ChemID>
100636

> <CAS>
51207-31-9

> <Original_SMILES>
Clc1cc2c(cc1Cl)oc1cc(Cl)c(Cl)cc21

> <preferred_name>
2,3,7,8-Tetrachlorodibenzofuran

> <dsstox_substance_id>
DTXSID3052147

> <dsstox_compound_id>
DTXCID8030716

> <qc_level>
DSSTox_High

> <Canonical_QSARr>
ClC1=CC2OC3=CC(Cl)=C(Cl)C=C3C=2C=C1Cl

> <InChI_Code_QSARr>
InChI=1S/C12H4Cl4O/c13-7-1-5-6-2-8(14)10(16)4-12(6)17-11(5)3-9(7)15/h1-4H

> <InChI Key_QSARr>
KSMVNVHUTQZITP-UHFFFAOYSA-N

> <Salt_Solvent>


> <Salt_Solvent_ID>
0

> <MPID>
98518

> <LogBCF>
3.61

> <Tr_1_Tst_0>
0

$$$$
100637
  Mrv171c012241911322D          

 30 32  0  0  0  0            999 V2000
    4.1197   -1.3492    0.0000 O   0  0  0  0  0  0  0  0  0  0  0  0
    4.5322   -2.0636    0.0000 C   0  0  0  0  0  0  0  0  0  0  0  0
    4.1197   -2.7781    0.0000 O   0  0  0  0  0  0  0  0  0  0  0  0
    3.2947   -2.7781    0.0000 C   0  0  0  0  0  0  0  0  0  0  0  0
    2.8822   -2.0636    0.0000 C   0  0  0  0  0  0  0  0  0  0  0  0
    2.4697   -1.3492    0.0000 N   0  0  0  0  0  0  0  0  0  0  0  0
    2.8822   -3.4926    0.0000 C   0  0  0  0  0  0  0  0  0  0  0  0
    2.0572   -3.4926    0.0000 C   0  0  0  0  0  0  0  0  0  0  0  0
    1.6447   -4.2070    0.0000 C   0  0  0  0  0  0  0  0  0  0  0  0
    0.8197   -4.2070    0.0000 O   0  0  0  0  0  0  0  0  0  0  0  0
    0.4072   -4.9215    0.0000 C   0  0  0  0  0  0  0  0  0  0  0  0
   -0.4178   -4.9215    0.0000 C   0  0  0  0  0  0  0  0  0  0  0  0
   -0.8303   -5.6360    0.0000 C   0  0  0  0  0  0  0  0  0  0  0  0
   -0.4178   -6.3505    0.0000 C   0  0  0  0  0  0  0  0  0  0  0  0
    0.4072   -6.3505    0.0000 C   0  0  0  0  0  0  0  0  0  0  0  0
    0.8197   -5.6360    0.0000 C   0  0  0  0  0  0  0  0  0  0  0  0
    2.0572   -4.9215    0.0000 C   0  0  0  0  0  0  0  0  0  0  0  0
    2.8822   -4.9215    0.0000 C   0  0  0  0  0  0  0  0  0  0  0  0
    3.2947   -4.2070    0.0000 C   0  0  0  0  0  0  0  0  0  0  0  0
    5.3572   -2.0636    0.0000 C   0  0  0  0  0  0  0  0  0  0  0  0
    5.7697   -2.7781    0.0000 C   0  0  0  0  0  0  0  0  0  0  0  0
    6.5947   -2.7781    0.0000 C   0  0  0  0  0  0  0  0  0  0  0  0
    5.3572   -3.4926    0.0000 C   0  0  0  0  0  0  0  0  0  0  0  0
    5.7697   -1.3492    0.0000 C   0  0  0  0  0  0  0  0  0  0  0  0
    6.5947   -1.3492    0.0000 C   0  0  0  0  0  0  0  0  0  0  0  0
    7.0072   -0.6347    0.0000 C   0  0  0  0  0  0  0  0  0  0  0  0
    6.5947    0.0798    0.0000 C   0  0  0  0  0  0  0  0  0  0  0  0
    7.0072    0.7943    0.0000 Cl  0  0  0  0  0  0  0  0  0  0  0  0
    5.7697    0.0798    0.0000 C   0  0  0  0  0  0  0  0  0  0  0  0
    5.3572   -0.6347    0.0000 C   0  0  0  0  0  0  0  0  0  0  0  0
  1  2  2  0  0  0  0
  2  3  1  0  0  0  0
  3  4  1  0  0  0  0
  4  5  1  0  0  0  0
  5  6  3  0  0  0  0
  4  7  1  0  0  0  0
  8  7  1  0  0  0  0
  9  8  2  0  0  0  0
  9 10  1  0  0  0  0
 10 11  1  0  0  0  0
 12 11  1  0  0  0  0
 13 12  2  0  0  0  0
 14 13  1  0  0  0  0
 15 14  2  0  0  0  0
 16 15  1  0  0  0  0
 11 16  2  0  0  0  0
 17  9  1  0  0  0  0
 18 17  2  0  0  0  0
 19 18  1  0  0  0  0
  7 19  2  0  0  0  0
  2 20  1  0  0  0  0
 20 21  1  0  0  0  0
 21 22  1  0  0  0  0
 21 23  1  0  0  0  0
 20 24  1  0  0  0  0
 25 24  1  0  0  0  0
 26 25  2  0  0  0  0
 27 26  1  0  0  0  0
 27 28  1  0  0  0  0
 29 27  2  0  0  0  0
 30 29  1  0  0  0  0
 24 30  2  0  0  0  0
M  END
> <ChemID>
100637

> <CAS>
67614-33-9

> <Original_SMILES>
CC(C)C(C(=O)OC(C#N)c1cc(ccc1)Oc1ccccc1)c1ccc(Cl)cc1

> <preferred_name>
Fenvalerate

> <dsstox_substance_id>
DTXSID3020621

> <dsstox_compound_id>
DTXCID201475882

> <qc_level>
DSSTox_Low

> <Canonical_QSARr>
CC(C)C(C1=CC=C(Cl)C=C1)C(=O)OC(C#N)C1C=C(C=CC=1)OC1C=CC=CC=1

> <InChI_Code_QSARr>
InChI=1S/C25H22ClNO3/c1-17(2)24(18-11-13-20(26)14-12-18)25(28)30-23(16-27)19-7-6-10-22(15-19)29-21-8-4-3-5-9-21/h3-15,17,23-24H,1-2H3

> <InChI Key_QSARr>
NYPJDWWKZLNGGM-UHFFFAOYSA-N

> <Salt_Solvent>


> <Salt_Solvent_ID>
0

> <MPID>
98519

> <LogBCF>
2.85

> <Tr_1_Tst_0>
1

$$$$
100638
  Mrv171c012241911322D          

 28 30  0  0  0  0            999 V2000
    6.6101   -0.3511    0.0000 C   0  0  0  0  0  0  0  0  0  0  0  0
    6.4669   -1.1636    0.0000 C   0  0  0  0  0  0  0  0  0  0  0  0
    5.8349   -0.0690    0.0000 C   0  0  0  0  0  0  0  0  0  0  0  0
    7.4351   -0.3511    0.0000 C   0  0  0  0  0  0  0  0  0  0  0  0
    8.1496   -0.7636    0.0000 C   0  0  0  0  0  0  0  0  0  0  0  0
    8.8641   -0.3511    0.0000 O   0  0  0  0  0  0  0  0  0  0  0  0
    8.1496   -1.5886    0.0000 O   0  0  0  0  0  0  0  0  0  0  0  0
    8.8641   -2.0011    0.0000 C   0  0  0  0  0  0  0  0  0  0  0  0
    8.8641   -2.8261    0.0000 C   0  0  0  0  0  0  0  0  0  0  0  0
    8.1496   -3.2386    0.0000 C   0  0  0  0  0  0  0  0  0  0  0  0
    8.1496   -4.0636    0.0000 C   0  0  0  0  0  0  0  0  0  0  0  0
    8.8641   -4.4761    0.0000 C   0  0  0  0  0  0  0  0  0  0  0  0
    9.5785   -4.0636    0.0000 C   0  0  0  0  0  0  0  0  0  0  0  0
   10.2930   -4.4761    0.0000 O   0  0  0  0  0  0  0  0  0  0  0  0
   10.2930   -5.3011    0.0000 C   0  0  0  0  0  0  0  0  0  0  0  0
    9.5785   -5.7136    0.0000 C   0  0  0  0  0  0  0  0  0  0  0  0
    9.5785   -6.5386    0.0000 C   0  0  0  0  0  0  0  0  0  0  0  0
   10.2930   -6.9511    0.0000 C   0  0  0  0  0  0  0  0  0  0  0  0
   11.0075   -6.5386    0.0000 C   0  0  0  0  0  0  0  0  0  0  0  0
   11.0075   -5.7136    0.0000 C   0  0  0  0  0  0  0  0  0  0  0  0
    9.5785   -3.2386    0.0000 C   0  0  0  0  0  0  0  0  0  0  0  0
    9.5785   -1.5886    0.0000 C   0  0  0  0  0  0  0  0  0  0  0  0
   10.2930   -1.1761    0.0000 N   0  0  0  0  0  0  0  0  0  0  0  0
    7.0226    0.3633    0.0000 C   0  0  0  0  0  0  0  0  0  0  0  0
    7.0226    1.1883    0.0000 C   0  0  0  0  0  0  0  0  0  0  0  0
    6.3082    1.6008    0.0000 C   0  0  0  0  0  0  0  0  0  0  0  0
    5.5937    1.1883    0.0000 Cl  0  0  0  0  0  0  0  0  0  0  0  0
    6.3082    2.4258    0.0000 Cl  0  0  0  0  0  0  0  0  0  0  0  0
  1  2  1  0  0  0  0
  1  3  1  0  0  0  0
  4  1  1  0  0  0  0
  4  5  1  0  0  0  0
  5  6  2  0  0  0  0
  5  7  1  0  0  0  0
  7  8  1  0  0  0  0
  8  9  1  0  0  0  0
 10  9  2  0  0  0  0
 11 10  1  0  0  0  0
 12 11  2  0  0  0  0
 13 12  1  0  0  0  0
 13 14  1  0  0  0  0
 14 15  1  0  0  0  0
 16 15  1  0  0  0  0
 17 16  2  0  0  0  0
 18 17  1  0  0  0  0
 19 18  2  0  0  0  0
 20 19  1  0  0  0  0
 15 20  2  0  0  0  0
 21 13  2  0  0  0  0
  9 21  1  0  0  0  0
  8 22  1  0  0  0  0
 22 23  3  0  0  0  0
 24  4  1  0  0  0  0
  1 24  1  0  0  0  0
 24 25  1  0  0  0  0
 25 26  2  0  0  0  0
 26 27  1  0  0  0  0
 26 28  1  0  0  0  0
M  END
> <ChemID>
100638

> <CAS>
52315-07-8|67375-30-8

> <Original_SMILES>
CC1(C)C(C1C=C(Cl)Cl)C(=O)OC(C#N)c1cccc(c1)Oc1ccccc1

> <preferred_name>
Cypermethrin|alpha-Cypermethrin

> <dsstox_substance_id>
DTXSID1023998|DTXSID7041201

> <dsstox_compound_id>
DTXCID003998|DTXCID3065297

> <qc_level>
DSSTox_High

> <Canonical_QSARr>
CC1(C)C(C1C=C(Cl)Cl)C(=O)OC(C#N)C1C=C(C=CC=1)OC1C=CC=CC=1

> <InChI_Code_QSARr>
InChI=1S/C22H19Cl2NO3/c1-22(2)17(12-19(23)24)20(22)21(26)28-18(13-25)14-7-6-10-16(11-14)27-15-8-4-3-5-9-15/h3-12,17-18,20H,1-2H3

> <InChI Key_QSARr>
KAATUXNTWXVJKI-UHFFFAOYSA-N

> <Salt_Solvent>


> <Salt_Solvent_ID>
0

> <MPID>
98520|98543

> <LogBCF>
2.53

> <Tr_1_Tst_0>
1

$$$$
100639
  Mrv171c012241911322D          

 18 19  0  0  0  0            999 V2000
    0.4763    1.6500    0.0000 C   0  0  0  0  0  0  0  0  0  0  0  0
   -0.2382    2.0625    0.0000 C   0  0  0  0  0  0  0  0  0  0  0  0
   -0.2382    2.8875    0.0000 Cl  0  0  0  0  0  0  0  0  0  0  0  0
   -0.9526    1.6500    0.0000 C   0  0  0  0  0  0  0  0  0  0  0  0
   -1.6671    2.0625    0.0000 Cl  0  0  0  0  0  0  0  0  0  0  0  0
   -0.9526    0.8250    0.0000 C   0  0  0  0  0  0  0  0  0  0  0  0
   -0.2382    0.4125    0.0000 C   0  0  0  0  0  0  0  0  0  0  0  0
   -0.2382   -0.4125    0.0000 Cl  0  0  0  0  0  0  0  0  0  0  0  0
    0.4763    0.8250    0.0000 C   0  0  0  0  0  0  0  0  0  0  0  0
    1.1908    0.4125    0.0000 Cl  0  0  0  0  0  0  0  0  0  0  0  0
    1.1908    2.0625    0.0000 C   0  0  0  0  0  0  0  0  0  0  0  0
    1.9052    1.6500    0.0000 C   0  0  0  0  0  0  0  0  0  0  0  0
    2.6197    2.0625    0.0000 C   0  0  0  0  0  0  0  0  0  0  0  0
    3.3342    1.6500    0.0000 Cl  0  0  0  0  0  0  0  0  0  0  0  0
    2.6197    2.8875    0.0000 C   0  0  0  0  0  0  0  0  0  0  0  0
    1.9052    3.3000    0.0000 C   0  0  0  0  0  0  0  0  0  0  0  0
    1.1908    2.8875    0.0000 C   0  0  0  0  0  0  0  0  0  0  0  0
    0.4763    3.3000    0.0000 Cl  0  0  0  0  0  0  0  0  0  0  0  0
  2  1  1  0  0  0  0
  2  3  1  0  0  0  0
  4  2  2  0  0  0  0
  4  5  1  0  0  0  0
  6  4  1  0  0  0  0
  7  6  2  0  0  0  0
  7  8  1  0  0  0  0
  9  7  1  0  0  0  0
  1  9  2  0  0  0  0
  9 10  1  0  0  0  0
  1 11  1  0  0  0  0
 12 11  1  0  0  0  0
 13 12  2  0  0  0  0
 13 14  1  0  0  0  0
 15 13  1  0  0  0  0
 16 15  2  0  0  0  0
 17 16  1  0  0  0  0
 11 17  2  0  0  0  0
 17 18  1  0  0  0  0
M  END
> <ChemID>
100639

> <CAS>
52663-63-5

> <Original_SMILES>
Clc1cc(-c2c(Cl)c(Cl)cc(Cl)c2Cl)c(Cl)cc1

> <preferred_name>
2,2',3,5,5',6-Hexachlorobiphenyl

> <dsstox_substance_id>
DTXSID2074160

> <dsstox_compound_id>
DTXCID4041236

> <qc_level>
Public_High

> <Canonical_QSARr>
ClC1=CC(C2C(Cl)=C(Cl)C=C(Cl)C=2Cl)=C(Cl)C=C1

> <InChI_Code_QSARr>
InChI=1S/C12H4Cl6/c13-5-1-2-7(14)6(3-5)10-11(17)8(15)4-9(16)12(10)18/h1-4H

> <InChI Key_QSARr>
UHCLFIWDCYOTOL-UHFFFAOYSA-N

> <Salt_Solvent>


> <Salt_Solvent_ID>
0

> <MPID>
98521

> <LogBCF>
5.54

> <Tr_1_Tst_0>
1

$$$$
100641
  Mrv171c012241911322D          

 28 30  0  0  0  0            999 V2000
    3.3616    0.7377    0.0000 C   0  0  0  0  0  0  0  0  0  0  0  0
    3.2183   -0.0747    0.0000 C   0  0  0  0  0  0  0  0  0  0  0  0
    2.5864    1.0199    0.0000 C   0  0  0  0  0  0  0  0  0  0  0  0
    4.1866    0.7377    0.0000 C   0  0  0  0  0  0  0  0  0  0  0  0
    4.9011    0.3252    0.0000 C   0  0  0  0  0  0  0  0  0  0  0  0
    5.6155    0.7377    0.0000 O   0  0  0  0  0  0  0  0  0  0  0  0
    4.9011   -0.4998    0.0000 O   0  0  0  0  0  0  0  0  0  0  0  0
    5.6155   -0.9123    0.0000 C   0  0  0  0  0  0  0  0  0  0  0  0
    5.6155   -1.7373    0.0000 C   0  0  0  0  0  0  0  0  0  0  0  0
    4.9011   -2.1498    0.0000 C   0  0  0  0  0  0  0  0  0  0  0  0
    4.9011   -2.9748    0.0000 C   0  0  0  0  0  0  0  0  0  0  0  0
    5.6155   -3.3873    0.0000 C   0  0  0  0  0  0  0  0  0  0  0  0
    6.3300   -2.9748    0.0000 C   0  0  0  0  0  0  0  0  0  0  0  0
    7.0445   -3.3873    0.0000 O   0  0  0  0  0  0  0  0  0  0  0  0
    7.0445   -4.2123    0.0000 C   0  0  0  0  0  0  0  0  0  0  0  0
    6.3300   -4.6248    0.0000 C   0  0  0  0  0  0  0  0  0  0  0  0
    6.3300   -5.4498    0.0000 C   0  0  0  0  0  0  0  0  0  0  0  0
    7.0445   -5.8623    0.0000 C   0  0  0  0  0  0  0  0  0  0  0  0
    7.7590   -5.4498    0.0000 C   0  0  0  0  0  0  0  0  0  0  0  0
    7.7590   -4.6248    0.0000 C   0  0  0  0  0  0  0  0  0  0  0  0
    6.3300   -2.1498    0.0000 C   0  0  0  0  0  0  0  0  0  0  0  0
    6.3300   -0.4998    0.0000 C   0  0  0  0  0  0  0  0  0  0  0  0
    7.0445   -0.0873    0.0000 N   0  0  0  0  0  0  0  0  0  0  0  0
    3.7741    1.4522    0.0000 C   0  0  0  0  0  0  0  0  0  0  0  0
    3.7741    2.2772    0.0000 C   0  0  0  0  0  0  0  0  0  0  0  0
    3.0596    2.6897    0.0000 C   0  0  0  0  0  0  0  0  0  0  0  0
    2.3452    2.2772    0.0000 Br  0  0  0  0  0  0  0  0  0  0  0  0
    3.0596    3.5147    0.0000 Br  0  0  0  0  0  0  0  0  0  0  0  0
  1  2  1  0  0  0  0
  1  3  1  0  0  0  0
  4  1  1  0  0  0  0
  4  5  1  0  0  0  0
  5  6  2  0  0  0  0
  5  7  1  0  0  0  0
  7  8  1  0  0  0  0
  8  9  1  0  0  0  0
 10  9  2  0  0  0  0
 11 10  1  0  0  0  0
 12 11  2  0  0  0  0
 13 12  1  0  0  0  0
 13 14  1  0  0  0  0
 14 15  1  0  0  0  0
 16 15  2  0  0  0  0
 17 16  1  0  0  0  0
 18 17  2  0  0  0  0
 19 18  1  0  0  0  0
 20 19  2  0  0  0  0
 15 20  1  0  0  0  0
 21 13  2  0  0  0  0
  9 21  1  0  0  0  0
  8 22  1  0  0  0  0
 22 23  3  0  0  0  0
 24  4  1  0  0  0  0
  1 24  1  0  0  0  0
 24 25  1  0  0  0  0
 25 26  2  0  0  0  0
 26 27  1  0  0  0  0
 26 28  1  0  0  0  0
M  END
> <ChemID>
100641

> <CAS>
52918-63-5

> <Original_SMILES>
CC1(C)[C@@H]([C@@H]1C=C(Br)Br)C(=O)O[C@H](C#N)c1cccc(c1)Oc1ccccc1

> <preferred_name>
Deltamethrin

> <dsstox_substance_id>
DTXSID8020381

> <dsstox_compound_id>
DTXCID20381

> <qc_level>
DSSTox_High

> <Canonical_QSARr>
CC1(C)C(C1C=C(Br)Br)C(=O)OC(C#N)C1C=C(C=CC=1)OC1C=CC=CC=1

> <InChI_Code_QSARr>
InChI=1S/C22H19Br2NO3/c1-22(2)17(12-19(23)24)20(22)21(26)28-18(13-25)14-7-6-10-16(11-14)27-15-8-4-3-5-9-15/h3-12,17-18,20H,1-2H3

> <InChI Key_QSARr>
OWZREIFADZCYQD-UHFFFAOYSA-N

> <Salt_Solvent>


> <Salt_Solvent_ID>
0

> <MPID>
98522

> <LogBCF>
2.51

> <Tr_1_Tst_0>
0

$$$$
100642
  Mrv171c012241911322D          

 11 11  0  0  0  0            999 V2000
    4.2481    0.4875    0.0000 Cl  0  0  0  0  0  0  0  0  0  0  0  0
    3.5336    0.0750    0.0000 C   0  0  0  0  0  0  0  0  0  0  0  0
    2.8191    0.4875    0.0000 C   0  0  0  0  0  0  0  0  0  0  0  0
    2.8191    1.3125    0.0000 Cl  0  0  0  0  0  0  0  0  0  0  0  0
    2.1047    0.0750    0.0000 C   0  0  0  0  0  0  0  0  0  0  0  0
    1.3902    0.4875    0.0000 Cl  0  0  0  0  0  0  0  0  0  0  0  0
    2.1047   -0.7500    0.0000 C   0  0  0  0  0  0  0  0  0  0  0  0
    2.8191   -1.1625    0.0000 C   0  0  0  0  0  0  0  0  0  0  0  0
    3.5336   -0.7500    0.0000 C   0  0  0  0  0  0  0  0  0  0  0  0
    4.2481   -1.1625    0.0000 O   0  0  0  0  0  0  0  0  0  0  0  0
    4.9626   -0.7500    0.0000 C   0  0  0  0  0  0  0  0  0  0  0  0
  1  2  1  0  0  0  0
  3  2  1  0  0  0  0
  3  4  1  0  0  0  0
  5  3  2  0  0  0  0
  5  6  1  0  0  0  0
  7  5  1  0  0  0  0
  8  7  2  0  0  0  0
  9  8  1  0  0  0  0
  2  9  2  0  0  0  0
  9 10  1  0  0  0  0
 10 11  1  0  0  0  0
M  END
> <ChemID>
100642

> <CAS>
54135-80-7

> <Original_SMILES>
COc1ccc(Cl)c(Cl)c1Cl

> <preferred_name>
2,3,4-Trichloroanisole

> <dsstox_substance_id>
DTXSID10202477

> <dsstox_compound_id>
DTXCID10124968

> <qc_level>
Public_Medium

> <Canonical_QSARr>
COC1C=CC(Cl)=C(Cl)C=1Cl

> <InChI_Code_QSARr>
InChI=1S/C7H5Cl3O/c1-11-5-3-2-4(8)6(9)7(5)10/h2-3H,1H3

> <InChI Key_QSARr>
FRQUNVLMWIYOLV-UHFFFAOYSA-N

> <Salt_Solvent>


> <Salt_Solvent_ID>
0

> <MPID>
98523

> <LogBCF>
2.96

> <Tr_1_Tst_0>
1

$$$$
100644
  Mrv171c012241911322D          

 11 11  0  0  0  0            999 V2000
    4.3777    1.0312    0.0000 Cl  0  0  0  0  0  0  0  0  0  0  0  0
    3.6633    0.6187    0.0000 C   0  0  0  0  0  0  0  0  0  0  0  0
    2.9488    1.0312    0.0000 C   0  0  0  0  0  0  0  0  0  0  0  0
    2.9488    1.8562    0.0000 Cl  0  0  0  0  0  0  0  0  0  0  0  0
    2.2343    0.6187    0.0000 C   0  0  0  0  0  0  0  0  0  0  0  0
    1.5198    1.0312    0.0000 Cl  0  0  0  0  0  0  0  0  0  0  0  0
    2.2343   -0.2063    0.0000 C   0  0  0  0  0  0  0  0  0  0  0  0
    2.9488   -0.6188    0.0000 C   0  0  0  0  0  0  0  0  0  0  0  0
    2.9488   -1.4438    0.0000 O   0  0  0  0  0  0  0  0  0  0  0  0
    3.6633   -1.8563    0.0000 C   0  0  0  0  0  0  0  0  0  0  0  0
    3.6633   -0.2063    0.0000 C   0  0  0  0  0  0  0  0  0  0  0  0
  1  2  1  0  0  0  0
  3  2  1  0  0  0  0
  3  4  1  0  0  0  0
  5  3  2  0  0  0  0
  5  6  1  0  0  0  0
  7  5  1  0  0  0  0
  8  7  2  0  0  0  0
  8  9  1  0  0  0  0
  9 10  1  0  0  0  0
 11  8  1  0  0  0  0
  2 11  2  0  0  0  0
M  END
> <ChemID>
100644

> <CAS>
54135-82-9

> <Original_SMILES>
COc1cc(Cl)c(Cl)c(Cl)c1

> <preferred_name>
3,4,5-Trichloroanisole

> <dsstox_substance_id>
DTXSID30202479

> <dsstox_compound_id>
DTXCID80124970

> <qc_level>
Public_Medium

> <Canonical_QSARr>
COC1=CC(Cl)=C(Cl)C(Cl)=C1

> <InChI_Code_QSARr>
InChI=1S/C7H5Cl3O/c1-11-4-2-5(8)7(10)6(9)3-4/h2-3H,1H3

> <InChI Key_QSARr>
GUCFBWGWRCILHN-UHFFFAOYSA-N

> <Salt_Solvent>


> <Salt_Solvent_ID>
0

> <MPID>
98524

> <LogBCF>
3.09

> <Tr_1_Tst_0>
1

$$$$
100645
  Mrv171c012241911322D          

 13 14  0  0  0  0            999 V2000
    3.0951   -1.2533    0.0000 Cl  0  0  0  0  0  0  0  0  0  0  0  0
    3.0951   -0.4283    0.0000 C   0  0  0  0  0  0  0  0  0  0  0  0
    2.3806   -0.0158    0.0000 C   0  0  0  0  0  0  0  0  0  0  0  0
    2.3806    0.8092    0.0000 C   0  0  0  0  0  0  0  0  0  0  0  0
    1.6661    1.2217    0.0000 Cl  0  0  0  0  0  0  0  0  0  0  0  0
    3.0951    1.2217    0.0000 C   0  0  0  0  0  0  0  0  0  0  0  0
    3.8095    0.8092    0.0000 C   0  0  0  0  0  0  0  0  0  0  0  0
    4.5240    1.2217    0.0000 C   0  0  0  0  0  0  0  0  0  0  0  0
    5.2385    0.8092    0.0000 C   0  0  0  0  0  0  0  0  0  0  0  0
    5.2385   -0.0158    0.0000 C   0  0  0  0  0  0  0  0  0  0  0  0
    4.5240   -0.4283    0.0000 C   0  0  0  0  0  0  0  0  0  0  0  0
    3.8095   -0.0158    0.0000 C   0  0  0  0  0  0  0  0  0  0  0  0
    5.9530   -0.4283    0.0000 Cl  0  0  0  0  0  0  0  0  0  0  0  0
  1  2  1  0  0  0  0
  3  2  1  0  0  0  0
  4  3  2  0  0  0  0
  4  5  1  0  0  0  0
  6  4  1  0  0  0  0
  7  6  2  0  0  0  0
  7  8  1  0  0  0  0
  8  9  2  0  0  0  0
  9 10  1  0  0  0  0
 10 11  2  0  0  0  0
 11 12  1  0  0  0  0
  2 12  2  0  0  0  0
 12  7  1  0  0  0  0
 10 13  1  0  0  0  0
M  END
> <ChemID>
100645

> <CAS>
55720-37-1

> <Original_SMILES>
Clc1cc2ccc(Cl)cc2c(Cl)c1

> <preferred_name>
Naphthalene, 1,3,7-trichloro-

> <dsstox_substance_id>
DTXSID00204263

> <dsstox_compound_id>
DTXCID00126754

> <qc_level>
Public_Medium

> <Canonical_QSARr>
ClC1C=C2C=CC(Cl)=CC2=C(Cl)C=1

> <InChI_Code_QSARr>
InChI=1S/C10H5Cl3/c11-7-2-1-6-3-8(12)5-10(13)9(6)4-7/h1-5H

> <InChI Key_QSARr>
CFEUGIGSIREATC-UHFFFAOYSA-N

> <Salt_Solvent>


> <Salt_Solvent_ID>
0

> <MPID>
98525

> <LogBCF>
4.43

> <Tr_1_Tst_0>
1

$$$$
100646
  Mrv171c012241911322D          

 16 16  0  0  0  0            999 V2000
    2.1511   -1.2376    0.0000 C   0  0  0  0  0  0  0  0  0  0  0  0
    1.4366   -0.8251    0.0000 C   0  0  0  0  0  0  0  0  0  0  0  0
    1.4366   -0.0001    0.0000 Cl  0  0  0  0  0  0  0  0  0  0  0  0
    0.7221   -1.2376    0.0000 C   0  0  0  0  0  0  0  0  0  0  0  0
    0.0077   -0.8251    0.0000 Cl  0  0  0  0  0  0  0  0  0  0  0  0
    0.7221   -2.0626    0.0000 C   0  0  0  0  0  0  0  0  0  0  0  0
    0.0077   -2.4751    0.0000 Cl  0  0  0  0  0  0  0  0  0  0  0  0
    1.4366   -2.4751    0.0000 C   0  0  0  0  0  0  0  0  0  0  0  0
    1.4366   -3.3001    0.0000 Cl  0  0  0  0  0  0  0  0  0  0  0  0
    2.1511   -2.0626    0.0000 C   0  0  0  0  0  0  0  0  0  0  0  0
    2.8656   -2.4751    0.0000 C   0  0  0  0  0  0  0  0  0  0  0  0
    3.5800   -2.0626    0.0000 O   0  0  0  0  0  0  0  0  0  0  0  0
    2.8656   -3.3001    0.0000 O   0  0  0  0  0  0  0  0  0  0  0  0
    2.8656   -0.8251    0.0000 C   0  0  0  0  0  0  0  0  0  0  0  0
    3.5800   -1.2376    0.0000 N   0  0  0  0  0  0  0  0  0  0  0  0
    2.8656   -0.0001    0.0000 O   0  0  0  0  0  0  0  0  0  0  0  0
  2  1  1  0  0  0  0
  2  3  1  0  0  0  0
  4  2  2  0  0  0  0
  4  5  1  0  0  0  0
  6  4  1  0  0  0  0
  6  7  1  0  0  0  0
  8  6  2  0  0  0  0
  8  9  1  0  0  0  0
 10  8  1  0  0  0  0
  1 10  2  0  0  0  0
 10 11  1  0  0  0  0
 11 12  1  0  0  0  0
 11 13  2  0  0  0  0
  1 14  1  0  0  0  0
 14 15  1  0  0  0  0
 14 16  2  0  0  0  0
M  END
> <ChemID>
100646

> <CAS>
56113-42-9

> <Original_SMILES>
NC(=O)c1c(C(O)=O)c(Cl)c(Cl)c(Cl)c1Cl

> <preferred_name>


> <dsstox_substance_id>
DTXSID40879272

> <dsstox_compound_id>
DTXCID501017285

> <qc_level>


> <Canonical_QSARr>
NC(=O)C1=C(C(O)=O)C(Cl)=C(Cl)C(Cl)=C1Cl

> <InChI_Code_QSARr>
InChI=1S/C8H3Cl4NO3/c9-3-1(7(13)14)2(8(15)16)4(10)6(12)5(3)11/h(H2,13,14)(H,15,16)

> <InChI Key_QSARr>
VLHPTNVVTJTDHN-UHFFFAOYSA-N

> <Salt_Solvent>


> <Salt_Solvent_ID>
0

> <MPID>
98526

> <LogBCF>
0.49

> <Tr_1_Tst_0>
0

$$$$
100647
  Mrv171c012241911322D          

 17 18  0  0  0  0            999 V2000
    4.2558    1.9654    0.0000 Cl  0  0  0  0  0  0  0  0  0  0  0  0
    3.5413    1.5529    0.0000 C   0  0  0  0  0  0  0  0  0  0  0  0
    2.8269    1.9654    0.0000 C   0  0  0  0  0  0  0  0  0  0  0  0
    2.8269    2.7904    0.0000 Cl  0  0  0  0  0  0  0  0  0  0  0  0
    2.1124    1.5529    0.0000 C   0  0  0  0  0  0  0  0  0  0  0  0
    2.1124    0.7279    0.0000 C   0  0  0  0  0  0  0  0  0  0  0  0
    2.8269    0.3154    0.0000 C   0  0  0  0  0  0  0  0  0  0  0  0
    2.8269   -0.5096    0.0000 O   0  0  0  0  0  0  0  0  0  0  0  0
    3.5413   -0.9221    0.0000 C   0  0  0  0  0  0  0  0  0  0  0  0
    3.5413   -1.7471    0.0000 C   0  0  0  0  0  0  0  0  0  0  0  0
    4.2558   -2.1596    0.0000 C   0  0  0  0  0  0  0  0  0  0  0  0
    4.9703   -1.7471    0.0000 C   0  0  0  0  0  0  0  0  0  0  0  0
    5.6847   -2.1596    0.0000 Cl  0  0  0  0  0  0  0  0  0  0  0  0
    4.9703   -0.9221    0.0000 C   0  0  0  0  0  0  0  0  0  0  0  0
    5.6847   -0.5096    0.0000 Cl  0  0  0  0  0  0  0  0  0  0  0  0
    4.2558   -0.5096    0.0000 C   0  0  0  0  0  0  0  0  0  0  0  0
    3.5413    0.7279    0.0000 C   0  0  0  0  0  0  0  0  0  0  0  0
  1  2  1  0  0  0  0
  3  2  2  0  0  0  0
  3  4  1  0  0  0  0
  5  3  1  0  0  0  0
  6  5  2  0  0  0  0
  7  6  1  0  0  0  0
  7  8  1  0  0  0  0
  8  9  1  0  0  0  0
 10  9  1  0  0  0  0
 11 10  2  0  0  0  0
 12 11  1  0  0  0  0
 12 13  1  0  0  0  0
 14 12  2  0  0  0  0
 14 15  1  0  0  0  0
 16 14  1  0  0  0  0
  9 16  2  0  0  0  0
 17  7  2  0  0  0  0
  2 17  1  0  0  0  0
M  END
> <ChemID>
100647

> <CAS>
56348-72-2

> <Original_SMILES>
Clc1ccc(cc1Cl)Oc1cc(Cl)c(Cl)cc1

> <preferred_name>
3,3',4,4'-Tetrachlorodiphenyl ether

> <dsstox_substance_id>
DTXSID20204886

> <dsstox_compound_id>
DTXCID50127377

> <qc_level>
Public_Medium

> <Canonical_QSARr>
ClC1C=CC(=CC=1Cl)OC1=CC(Cl)=C(Cl)C=C1

> <InChI_Code_QSARr>
InChI=1S/C12H6Cl4O/c13-9-3-1-7(5-11(9)15)17-8-2-4-10(14)12(16)6-8/h1-6H

> <InChI Key_QSARr>
DHLVZXZRIZBPKG-UHFFFAOYSA-N

> <Salt_Solvent>


> <Salt_Solvent_ID>
0

> <MPID>
98527

> <LogBCF>
4.51

> <Tr_1_Tst_0>
1

$$$$
100648
  Mrv171c012241911322D          

 16 16  0  0  0  0            999 V2000
    2.9424   -2.3512    0.0000 P   0  0  0  0  0  0  0  0  0  0  0  0
    3.6568   -2.7637    0.0000 O   0  0  0  0  0  0  0  0  0  0  0  0
    4.3713   -2.3512    0.0000 C   0  0  0  0  0  0  0  0  0  0  0  0
    3.3549   -1.6368    0.0000 O   0  0  0  0  0  0  0  0  0  0  0  0
    2.9424   -0.9223    0.0000 C   0  0  0  0  0  0  0  0  0  0  0  0
    2.2279   -1.9387    0.0000 O   0  0  0  0  0  0  0  0  0  0  0  0
    1.5134   -2.3512    0.0000 C   0  0  0  0  0  0  0  0  0  0  0  0
    0.7990   -1.9387    0.0000 C   0  0  0  0  0  0  0  0  0  0  0  0
    0.7990   -1.1137    0.0000 Cl  0  0  0  0  0  0  0  0  0  0  0  0
    0.0845   -2.3512    0.0000 C   0  0  0  0  0  0  0  0  0  0  0  0
    0.0845   -3.1762    0.0000 C   0  0  0  0  0  0  0  0  0  0  0  0
   -0.6300   -3.5887    0.0000 C   0  0  0  0  0  0  0  0  0  0  0  0
    0.7990   -3.5887    0.0000 C   0  0  0  0  0  0  0  0  0  0  0  0
    1.5134   -3.1762    0.0000 C   0  0  0  0  0  0  0  0  0  0  0  0
    2.2279   -3.5887    0.0000 Cl  0  0  0  0  0  0  0  0  0  0  0  0
    2.5299   -3.0657    0.0000 S   0  0  0  0  0  0  0  0  0  0  0  0
  1  2  1  0  0  0  0
  2  3  1  0  0  0  0
  1  4  1  0  0  0  0
  4  5  1  0  0  0  0
  1  6  1  0  0  0  0
  6  7  1  0  0  0  0
  8  7  1  0  0  0  0
  8  9  1  0  0  0  0
 10  8  2  0  0  0  0
 11 10  1  0  0  0  0
 11 12  1  0  0  0  0
 13 11  2  0  0  0  0
 14 13  1  0  0  0  0
  7 14  2  0  0  0  0
 14 15  1  0  0  0  0
  1 16  2  0  0  0  0
M  END
> <ChemID>
100648

> <CAS>
57018-04-9

> <Original_SMILES>
Cc1cc(Cl)c(OP(=S)(OC)OC)c(Cl)c1

> <preferred_name>
Tolclofos-methyl

> <dsstox_substance_id>
DTXSID0034776

> <dsstox_compound_id>
DTXCID8014776

> <qc_level>
DSSTox_Low

> <Canonical_QSARr>
CC1C=C(Cl)C(OP(=S)(OC)OC)=C(Cl)C=1

> <InChI_Code_QSARr>
InChI=1S/C9H11Cl2O3PS/c1-6-4-7(10)9(8(11)5-6)14-15(16,12-2)13-3/h4-5H,1-3H3

> <InChI Key_QSARr>
OBZIQQJJIKNWNO-UHFFFAOYSA-N

> <Salt_Solvent>


> <Salt_Solvent_ID>
0

> <MPID>
98528

> <LogBCF>
2.86

> <Tr_1_Tst_0>
1

$$$$
100650
  Mrv171c012241911322D          

 12 12  0  0  0  0            999 V2000
    2.5029   -1.8651    0.0000 C   0  0  0  0  0  0  0  0  0  0  0  0
    2.5029   -1.0401    0.0000 C   0  0  0  0  0  0  0  0  0  0  0  0
    1.7884   -0.6276    0.0000 C   0  0  0  0  0  0  0  0  0  0  0  0
    1.7884    0.1974    0.0000 Cl  0  0  0  0  0  0  0  0  0  0  0  0
    1.0739   -1.0401    0.0000 C   0  0  0  0  0  0  0  0  0  0  0  0
    0.3595   -0.6276    0.0000 Cl  0  0  0  0  0  0  0  0  0  0  0  0
    1.0739   -1.8651    0.0000 C   0  0  0  0  0  0  0  0  0  0  0  0
    0.3595   -2.2776    0.0000 Cl  0  0  0  0  0  0  0  0  0  0  0  0
    1.7884   -2.2776    0.0000 C   0  0  0  0  0  0  0  0  0  0  0  0
    1.7884   -3.1026    0.0000 O   0  0  0  0  0  0  0  0  0  0  0  0
    2.5029   -3.5151    0.0000 C   0  0  0  0  0  0  0  0  0  0  0  0
    3.2174   -2.2776    0.0000 O   0  0  0  0  0  0  0  0  0  0  0  0
  2  1  2  0  0  0  0
  3  2  1  0  0  0  0
  3  4  1  0  0  0  0
  5  3  2  0  0  0  0
  5  6  1  0  0  0  0
  7  5  1  0  0  0  0
  7  8  1  0  0  0  0
  9  7  2  0  0  0  0
  1  9  1  0  0  0  0
  9 10  1  0  0  0  0
 10 11  1  0  0  0  0
  1 12  1  0  0  0  0
M  END
> <ChemID>
100650

> <CAS>
57057-83-7

> <Original_SMILES>
COc1c(O)cc(Cl)c(Cl)c1Cl

> <preferred_name>
3,4,5-Trichloro-2-methoxyphenol

> <dsstox_substance_id>
DTXSID7052232

> <dsstox_compound_id>
DTXCID2030803

> <qc_level>
DSSTox_High

> <Canonical_QSARr>
COC1C(O)=CC(Cl)=C(Cl)C=1Cl

> <InChI_Code_QSARr>
InChI=1S/C7H5Cl3O2/c1-12-7-4(11)2-3(8)5(9)6(7)10/h2,11H,1H3

> <InChI Key_QSARr>
RKEHLKXRUVUBJN-UHFFFAOYSA-N

> <Salt_Solvent>


> <Salt_Solvent_ID>
0

> <MPID>
98529

> <LogBCF>
2.41

> <Tr_1_Tst_0>
1

$$$$
100651
  Mrv171c012241911322D          

 18 20  0  0  0  0            999 V2000
    3.0261   -0.2650    0.0000 O   0  0  0  0  0  0  0  0  0  0  0  0
    3.6935   -0.7500    0.0000 C   0  0  0  0  0  0  0  0  0  0  0  0
    4.5005   -0.5784    0.0000 C   0  0  0  0  0  0  0  0  0  0  0  0
    5.0525   -1.1915    0.0000 C   0  0  0  0  0  0  0  0  0  0  0  0
    5.8595   -1.0200    0.0000 Cl  0  0  0  0  0  0  0  0  0  0  0  0
    4.7976   -1.9762    0.0000 C   0  0  0  0  0  0  0  0  0  0  0  0
    5.3496   -2.5893    0.0000 Cl  0  0  0  0  0  0  0  0  0  0  0  0
    3.9906   -2.1477    0.0000 C   0  0  0  0  0  0  0  0  0  0  0  0
    3.4386   -1.5346    0.0000 C   0  0  0  0  0  0  0  0  0  0  0  0
    2.6136   -1.5346    0.0000 C   0  0  0  0  0  0  0  0  0  0  0  0
    2.0615   -2.1477    0.0000 C   0  0  0  0  0  0  0  0  0  0  0  0
    1.2546   -1.9762    0.0000 C   0  0  0  0  0  0  0  0  0  0  0  0
    0.7025   -2.5893    0.0000 Cl  0  0  0  0  0  0  0  0  0  0  0  0
    0.9996   -1.1915    0.0000 C   0  0  0  0  0  0  0  0  0  0  0  0
    0.1927   -1.0200    0.0000 Cl  0  0  0  0  0  0  0  0  0  0  0  0
    1.5517   -0.5784    0.0000 C   0  0  0  0  0  0  0  0  0  0  0  0
    1.2967    0.2062    0.0000 Cl  0  0  0  0  0  0  0  0  0  0  0  0
    2.3586   -0.7500    0.0000 C   0  0  0  0  0  0  0  0  0  0  0  0
  2  1  1  0  0  0  0
  2  3  1  0  0  0  0
  3  4  2  0  0  0  0
  4  5  1  0  0  0  0
  4  6  1  0  0  0  0
  6  7  1  0  0  0  0
  6  8  2  0  0  0  0
  8  9  1  0  0  0  0
  9  2  2  0  0  0  0
 10  9  1  0  0  0  0
 10 11  1  0  0  0  0
 11 12  2  0  0  0  0
 12 13  1  0  0  0  0
 12 14  1  0  0  0  0
 14 15  1  0  0  0  0
 14 16  2  0  0  0  0
 16 17  1  0  0  0  0
 16 18  1  0  0  0  0
  1 18  1  0  0  0  0
 18 10  2  0  0  0  0
M  END
> <ChemID>
100651

> <CAS>
57117-31-4

> <Original_SMILES>
Clc1c(Cl)c2oc3cc(Cl)c(Cl)cc3c2cc1Cl

> <preferred_name>
2,3,4,7,8-Pentachlorodibenzofuran

> <dsstox_substance_id>
DTXSID7030066

> <dsstox_compound_id>
DTXCID5010066

> <qc_level>
DSSTox_High

> <Canonical_QSARr>
ClC1=C(Cl)C2OC3C=C(Cl)C(Cl)=CC=3C=2C=C1Cl

> <InChI_Code_QSARr>
InChI=1S/C12H3Cl5O/c13-6-1-4-5-2-8(15)10(16)11(17)12(5)18-9(4)3-7(6)14/h1-3H

> <InChI Key_QSARr>
OGBQILNBLMPPDP-UHFFFAOYSA-N

> <Salt_Solvent>


> <Salt_Solvent_ID>
0

> <MPID>
98530

> <LogBCF>
4.13

> <Tr_1_Tst_0>
0

$$$$
100652
  Mrv171c012241911322D          

 17 19  0  0  0  0            999 V2000
    2.4163    0.5840    0.0000 C   0  0  0  0  0  0  0  0  0  0  0  0
    2.9683    1.1971    0.0000 C   0  0  0  0  0  0  0  0  0  0  0  0
    3.7753    1.0256    0.0000 C   0  0  0  0  0  0  0  0  0  0  0  0
    4.0302    0.2410    0.0000 C   0  0  0  0  0  0  0  0  0  0  0  0
    4.8372    0.0694    0.0000 Cl  0  0  0  0  0  0  0  0  0  0  0  0
    3.4782   -0.3721    0.0000 C   0  0  0  0  0  0  0  0  0  0  0  0
    3.7332   -1.1568    0.0000 Cl  0  0  0  0  0  0  0  0  0  0  0  0
    2.6712   -0.2006    0.0000 C   0  0  0  0  0  0  0  0  0  0  0  0
    2.0038   -0.6855    0.0000 O   0  0  0  0  0  0  0  0  0  0  0  0
    1.3364   -0.2006    0.0000 C   0  0  0  0  0  0  0  0  0  0  0  0
    0.5294   -0.3721    0.0000 C   0  0  0  0  0  0  0  0  0  0  0  0
   -0.0226    0.2410    0.0000 C   0  0  0  0  0  0  0  0  0  0  0  0
    0.2323    1.0256    0.0000 C   0  0  0  0  0  0  0  0  0  0  0  0
   -0.3197    1.6387    0.0000 Cl  0  0  0  0  0  0  0  0  0  0  0  0
    1.0393    1.1971    0.0000 C   0  0  0  0  0  0  0  0  0  0  0  0
    1.5913    0.5840    0.0000 C   0  0  0  0  0  0  0  0  0  0  0  0
   -0.8296    0.0694    0.0000 Cl  0  0  0  0  0  0  0  0  0  0  0  0
  2  1  1  0  0  0  0
  3  2  2  0  0  0  0
  4  3  1  0  0  0  0
  4  5  1  0  0  0  0
  6  4  2  0  0  0  0
  6  7  1  0  0  0  0
  8  6  1  0  0  0  0
  8  1  2  0  0  0  0
  9  8  1  0  0  0  0
 10  9  1  0  0  0  0
 10 11  1  0  0  0  0
 11 12  2  0  0  0  0
 12 13  1  0  0  0  0
 13 14  1  0  0  0  0
 13 15  2  0  0  0  0
 15 16  1  0  0  0  0
  1 16  1  0  0  0  0
 16 10  2  0  0  0  0
 12 17  1  0  0  0  0
M  END
> <ChemID>
100652

> <CAS>
57117-39-2

> <Original_SMILES>
Clc1ccc2c(oc3cc(Cl)c(Cl)cc23)c1Cl

> <preferred_name>
Dibenzofuran, 2,3,6,7-tetrachloro-

> <dsstox_substance_id>
DTXSID3074945

> <dsstox_compound_id>
DTXCID0042167

> <qc_level>
Public_High

> <Canonical_QSARr>
ClC1C=CC2=C(OC3C=C(Cl)C(Cl)=CC=32)C=1Cl

> <InChI_Code_QSARr>
InChI=1S/C12H4Cl4O/c13-7-2-1-5-6-3-8(14)9(15)4-10(6)17-12(5)11(7)16/h1-4H

> <InChI Key_QSARr>
MJCNKMDTLRSHNK-UHFFFAOYSA-N

> <Salt_Solvent>


> <Salt_Solvent_ID>
0

> <MPID>
98531

> <LogBCF>
2.72

> <Tr_1_Tst_0>
1

$$$$
100653
  Mrv171c012241911322D          

 18 20  0  0  0  0            999 V2000
    2.1633   -1.9530    0.0000 C   0  0  0  0  0  0  0  0  0  0  0  0
    2.8307   -2.4379    0.0000 O   0  0  0  0  0  0  0  0  0  0  0  0
    3.4982   -1.9530    0.0000 C   0  0  0  0  0  0  0  0  0  0  0  0
    4.3051   -2.1245    0.0000 C   0  0  0  0  0  0  0  0  0  0  0  0
    4.8572   -1.5114    0.0000 C   0  0  0  0  0  0  0  0  0  0  0  0
    4.6022   -0.7268    0.0000 C   0  0  0  0  0  0  0  0  0  0  0  0
    3.7953   -0.5553    0.0000 C   0  0  0  0  0  0  0  0  0  0  0  0
    3.5403    0.2294    0.0000 Cl  0  0  0  0  0  0  0  0  0  0  0  0
    3.2432   -1.1684    0.0000 C   0  0  0  0  0  0  0  0  0  0  0  0
    2.4182   -1.1684    0.0000 C   0  0  0  0  0  0  0  0  0  0  0  0
    1.8662   -0.5553    0.0000 C   0  0  0  0  0  0  0  0  0  0  0  0
    1.0592   -0.7268    0.0000 C   0  0  0  0  0  0  0  0  0  0  0  0
    0.5072   -0.1137    0.0000 Cl  0  0  0  0  0  0  0  0  0  0  0  0
    0.8043   -1.5114    0.0000 C   0  0  0  0  0  0  0  0  0  0  0  0
   -0.0027   -1.6829    0.0000 Cl  0  0  0  0  0  0  0  0  0  0  0  0
    1.3563   -2.1245    0.0000 C   0  0  0  0  0  0  0  0  0  0  0  0
    5.1543   -0.1137    0.0000 Cl  0  0  0  0  0  0  0  0  0  0  0  0
    5.6641   -1.6829    0.0000 Cl  0  0  0  0  0  0  0  0  0  0  0  0
  2  1  1  0  0  0  0
  3  2  1  0  0  0  0
  3  4  1  0  0  0  0
  4  5  2  0  0  0  0
  5  6  1  0  0  0  0
  6  7  2  0  0  0  0
  7  8  1  0  0  0  0
  7  9  1  0  0  0  0
  9  3  2  0  0  0  0
 10  9  1  0  0  0  0
 10  1  1  0  0  0  0
 11 10  2  0  0  0  0
 12 11  1  0  0  0  0
 12 13  1  0  0  0  0
 14 12  2  0  0  0  0
 14 15  1  0  0  0  0
 16 14  1  0  0  0  0
  1 16  2  0  0  0  0
  6 17  1  0  0  0  0
  5 18  1  0  0  0  0
M  END
> <ChemID>
100653

> <CAS>
57117-41-6

> <Original_SMILES>
Clc1c(Cl)c2c(cc1Cl)oc1cc(Cl)c(Cl)cc12

> <preferred_name>
1,2,3,7,8-Pentachlorodibenzofuran

> <dsstox_substance_id>
DTXSID7052234

> <dsstox_compound_id>
DTXCID2030805

> <qc_level>
DSSTox_High

> <Canonical_QSARr>
ClC1C=C2C3=C(C=C(Cl)C(Cl)=C3Cl)OC2=CC=1Cl

> <InChI_Code_QSARr>
InChI=1S/C12H3Cl5O/c13-5-1-4-8(2-6(5)14)18-9-3-7(15)11(16)12(17)10(4)9/h1-3H

> <InChI Key_QSARr>
SBMIVUVRFPGOEB-UHFFFAOYSA-N

> <Salt_Solvent>


> <Salt_Solvent_ID>
0

> <MPID>
98532

> <LogBCF>
3.58

> <Tr_1_Tst_0>
1

$$$$
100655
  Mrv171c012241911322D          

 19 21  0  0  0  0            999 V2000
    2.2840   -1.2589    0.0000 C   0  0  0  0  0  0  0  0  0  0  0  0
    3.0910   -1.4304    0.0000 C   0  0  0  0  0  0  0  0  0  0  0  0
    3.6430   -0.8173    0.0000 Cl  0  0  0  0  0  0  0  0  0  0  0  0
    3.3459   -2.2150    0.0000 C   0  0  0  0  0  0  0  0  0  0  0  0
    4.1529   -2.3865    0.0000 Cl  0  0  0  0  0  0  0  0  0  0  0  0
    2.7939   -2.8281    0.0000 C   0  0  0  0  0  0  0  0  0  0  0  0
    3.0488   -3.6127    0.0000 Cl  0  0  0  0  0  0  0  0  0  0  0  0
    1.9869   -2.6566    0.0000 C   0  0  0  0  0  0  0  0  0  0  0  0
    1.7320   -1.8719    0.0000 C   0  0  0  0  0  0  0  0  0  0  0  0
    0.9070   -1.8719    0.0000 C   0  0  0  0  0  0  0  0  0  0  0  0
    0.3550   -1.2589    0.0000 C   0  0  0  0  0  0  0  0  0  0  0  0
    0.6099   -0.4742    0.0000 Cl  0  0  0  0  0  0  0  0  0  0  0  0
   -0.4520   -1.4304    0.0000 C   0  0  0  0  0  0  0  0  0  0  0  0
   -1.0040   -0.8173    0.0000 Cl  0  0  0  0  0  0  0  0  0  0  0  0
   -0.7070   -2.2150    0.0000 C   0  0  0  0  0  0  0  0  0  0  0  0
   -1.5139   -2.3865    0.0000 Cl  0  0  0  0  0  0  0  0  0  0  0  0
   -0.1549   -2.8281    0.0000 C   0  0  0  0  0  0  0  0  0  0  0  0
    0.6521   -2.6566    0.0000 C   0  0  0  0  0  0  0  0  0  0  0  0
    1.3195   -3.1415    0.0000 O   0  0  0  0  0  0  0  0  0  0  0  0
  2  1  2  0  0  0  0
  2  3  1  0  0  0  0
  4  2  1  0  0  0  0
  4  5  1  0  0  0  0
  6  4  2  0  0  0  0
  6  7  1  0  0  0  0
  8  6  1  0  0  0  0
  8  9  2  0  0  0  0
  1  9  1  0  0  0  0
  9 10  1  0  0  0  0
 11 10  1  0  0  0  0
 11 12  1  0  0  0  0
 13 11  2  0  0  0  0
 13 14  1  0  0  0  0
 15 13  1  0  0  0  0
 15 16  1  0  0  0  0
 17 15  2  0  0  0  0
 18 17  1  0  0  0  0
 10 18  2  0  0  0  0
 18 19  1  0  0  0  0
 19  8  1  0  0  0  0
M  END
> <ChemID>
100655

> <CAS>
57117-44-9

> <Original_SMILES>
Clc1cc2c(oc3cc(Cl)c(Cl)c(Cl)c23)c(Cl)c1Cl

> <preferred_name>
1,2,3,6,7,8-Hexachlorodibenzofuran

> <dsstox_substance_id>
DTXSID2069155

> <dsstox_compound_id>
DTXCID0042169

> <qc_level>
Public_High

> <Canonical_QSARr>
ClC1=CC2=C(OC3C=C(Cl)C(Cl)=C(Cl)C2=3)C(Cl)=C1Cl

> <InChI_Code_QSARr>
InChI=1S/C12H2Cl6O/c13-4-1-3-7-6(2-5(14)8(15)10(7)17)19-12(3)11(18)9(4)16/h1-2H

> <InChI Key_QSARr>
JEYJJJXOFWNEHN-UHFFFAOYSA-N

> <Salt_Solvent>


> <Salt_Solvent_ID>
0

> <MPID>
98533

> <LogBCF>
3.94

> <Tr_1_Tst_0>
1

$$$$
100656
  Mrv171c012241911322D          

 13 13  0  0  0  0            999 V2000
    1.8358   -2.1562    0.0000 C   0  0  0  0  0  0  0  0  0  0  0  0
    1.8358   -2.9812    0.0000 C   0  0  0  0  0  0  0  0  0  0  0  0
    1.1213   -3.3937    0.0000 O   0  0  0  0  0  0  0  0  0  0  0  0
    2.5503   -3.3937    0.0000 O   0  0  0  0  0  0  0  0  0  0  0  0
    2.5503   -1.7437    0.0000 C   0  0  0  0  0  0  0  0  0  0  0  0
    2.5503   -0.9187    0.0000 C   0  0  0  0  0  0  0  0  0  0  0  0
    1.8358   -0.5062    0.0000 C   0  0  0  0  0  0  0  0  0  0  0  0
    1.8358    0.3188    0.0000 C   0  0  0  0  0  0  0  0  0  0  0  0
    1.1213   -0.9187    0.0000 C   0  0  0  0  0  0  0  0  0  0  0  0
    1.1213   -1.7437    0.0000 C   0  0  0  0  0  0  0  0  0  0  0  0
    0.4069   -2.1562    0.0000 C   0  0  0  0  0  0  0  0  0  0  0  0
    0.4069   -2.9812    0.0000 O   0  0  0  0  0  0  0  0  0  0  0  0
   -0.3076   -1.7437    0.0000 O   0  0  0  0  0  0  0  0  0  0  0  0
  1  2  1  0  0  0  0
  2  3  1  0  0  0  0
  2  4  2  0  0  0  0
  5  1  1  0  0  0  0
  6  5  1  0  0  0  0
  7  6  1  0  0  0  0
  7  8  1  0  0  0  0
  9  7  1  0  0  0  0
 10  9  1  0  0  0  0
  1 10  1  0  0  0  0
 10 11  1  0  0  0  0
 11 12  1  0  0  0  0
 11 13  2  0  0  0  0
M  END
> <ChemID>
100656

> <CAS>
57567-84-7

> <Original_SMILES>
CC1CC(C(CC1)C(O)=O)C(O)=O

> <preferred_name>


> <dsstox_substance_id>
DTXSID50875821

> <dsstox_compound_id>
DTXCID501013938

> <qc_level>


> <Canonical_QSARr>
CC1CC(C(CC1)C(O)=O)C(O)=O

> <InChI_Code_QSARr>
InChI=1S/C9H14O4/c1-5-2-3-6(8(10)11)7(4-5)9(12)13/h5-7H,2-4H2,1H3,(H,10,11)(H,12,13)

> <InChI Key_QSARr>
YWVFNWVZBAWOOY-UHFFFAOYSA-N

> <Salt_Solvent>


> <Salt_Solvent_ID>
0

> <MPID>
98534

> <LogBCF>
0.38

> <Tr_1_Tst_0>
0

$$$$
100657
  Mrv171c012241911322D          

 20 22  0  0  0  0            999 V2000
    2.1452   -2.0614    0.0000 C   0  0  0  0  0  0  0  0  0  0  0  0
    2.8597   -2.4739    0.0000 O   0  0  0  0  0  0  0  0  0  0  0  0
    3.5741   -2.0614    0.0000 C   0  0  0  0  0  0  0  0  0  0  0  0
    3.5741   -1.2364    0.0000 C   0  0  0  0  0  0  0  0  0  0  0  0
    4.2886   -0.8239    0.0000 C   0  0  0  0  0  0  0  0  0  0  0  0
    4.2886    0.0011    0.0000 Cl  0  0  0  0  0  0  0  0  0  0  0  0
    5.0031   -1.2364    0.0000 C   0  0  0  0  0  0  0  0  0  0  0  0
    5.7176   -0.8239    0.0000 Cl  0  0  0  0  0  0  0  0  0  0  0  0
    5.0031   -2.0614    0.0000 C   0  0  0  0  0  0  0  0  0  0  0  0
    5.7176   -2.4739    0.0000 Cl  0  0  0  0  0  0  0  0  0  0  0  0
    4.2886   -2.4739    0.0000 C   0  0  0  0  0  0  0  0  0  0  0  0
    2.8597   -0.8239    0.0000 O   0  0  0  0  0  0  0  0  0  0  0  0
    2.1452   -1.2364    0.0000 C   0  0  0  0  0  0  0  0  0  0  0  0
    1.4307   -0.8239    0.0000 C   0  0  0  0  0  0  0  0  0  0  0  0
    0.7163   -1.2364    0.0000 C   0  0  0  0  0  0  0  0  0  0  0  0
    0.0018   -0.8239    0.0000 Cl  0  0  0  0  0  0  0  0  0  0  0  0
    0.7163   -2.0614    0.0000 C   0  0  0  0  0  0  0  0  0  0  0  0
    0.0018   -2.4739    0.0000 Cl  0  0  0  0  0  0  0  0  0  0  0  0
    1.4307   -2.4739    0.0000 C   0  0  0  0  0  0  0  0  0  0  0  0
    1.4307   -3.2989    0.0000 Cl  0  0  0  0  0  0  0  0  0  0  0  0
  2  1  1  0  0  0  0
  3  2  1  0  0  0  0
  3  4  2  0  0  0  0
  4  5  1  0  0  0  0
  5  6  1  0  0  0  0
  5  7  2  0  0  0  0
  7  8  1  0  0  0  0
  7  9  1  0  0  0  0
  9 10  1  0  0  0  0
  9 11  2  0  0  0  0
 11  3  1  0  0  0  0
 12  4  1  0  0  0  0
 13 12  1  0  0  0  0
 13  1  1  0  0  0  0
 14 13  2  0  0  0  0
 15 14  1  0  0  0  0
 15 16  1  0  0  0  0
 17 15  2  0  0  0  0
 17 18  1  0  0  0  0
 19 17  1  0  0  0  0
  1 19  2  0  0  0  0
 19 20  1  0  0  0  0
M  END
> <ChemID>
100657

> <CAS>
57653-85-7

> <Original_SMILES>
Clc1cc2Oc3c(cc(Cl)c(Cl)c3Cl)Oc2c(Cl)c1Cl

> <preferred_name>
1,2,3,6,7,8-Hexachlorodibenzo-p-dioxin

> <dsstox_substance_id>
DTXSID0023824

> <dsstox_compound_id>
DTXCID103824

> <qc_level>
DSSTox_Low

> <Canonical_QSARr>
ClC1C=C2OC3=C(C=C(Cl)C(Cl)=C3Cl)OC2=C(Cl)C=1Cl

> <InChI_Code_QSARr>
InChI=1S/C12H2Cl6O2/c13-3-1-5-11(9(17)7(3)15)20-6-2-4(14)8(16)10(18)12(6)19-5/h1-2H

> <InChI Key_QSARr>
YCLUIPQDHHPDJJ-UHFFFAOYSA-N

> <Salt_Solvent>


> <Salt_Solvent_ID>
0

> <MPID>
98535

> <LogBCF>
3.93

> <Tr_1_Tst_0>
1

$$$$
100658
  Mrv171c012241911322D          

 15 16  0  0  0  0            999 V2000
    0.7145   -0.9075    0.0000 C   0  0  0  0  0  0  0  0  0  0  0  0
    0.7145   -1.7325    0.0000 C   0  0  0  0  0  0  0  0  0  0  0  0
   -0.0000   -2.1450    0.0000 C   0  0  0  0  0  0  0  0  0  0  0  0
   -0.0000   -2.9700    0.0000 C   0  0  0  0  0  0  0  0  0  0  0  0
    0.7145   -3.3825    0.0000 C   0  0  0  0  0  0  0  0  0  0  0  0
    1.4289   -2.9700    0.0000 C   0  0  0  0  0  0  0  0  0  0  0  0
    1.4289   -2.1450    0.0000 C   0  0  0  0  0  0  0  0  0  0  0  0
    1.4289   -0.4950    0.0000 C   0  0  0  0  0  0  0  0  0  0  0  0
    2.1434   -0.9075    0.0000 Br  0  0  0  0  0  0  0  0  0  0  0  0
    1.4289    0.3300    0.0000 C   0  0  0  0  0  0  0  0  0  0  0  0
    0.7145    0.7425    0.0000 C   0  0  0  0  0  0  0  0  0  0  0  0
    0.7145    1.5675    0.0000 Br  0  0  0  0  0  0  0  0  0  0  0  0
   -0.0000    0.3300    0.0000 C   0  0  0  0  0  0  0  0  0  0  0  0
   -0.0000   -0.4950    0.0000 C   0  0  0  0  0  0  0  0  0  0  0  0
   -0.7145   -0.9075    0.0000 Br  0  0  0  0  0  0  0  0  0  0  0  0
  1  2  1  0  0  0  0
  3  2  1  0  0  0  0
  4  3  2  0  0  0  0
  5  4  1  0  0  0  0
  6  5  2  0  0  0  0
  7  6  1  0  0  0  0
  2  7  2  0  0  0  0
  8  1  1  0  0  0  0
  8  9  1  0  0  0  0
 10  8  2  0  0  0  0
 11 10  1  0  0  0  0
 11 12  1  0  0  0  0
 13 11  2  0  0  0  0
 14 13  1  0  0  0  0
  1 14  2  0  0  0  0
 14 15  1  0  0  0  0
M  END
> <ChemID>
100658

> <CAS>
59080-33-0

> <Original_SMILES>
Brc1cc(Br)c(-c2ccccc2)c(Br)c1

> <preferred_name>
PBB 030

> <dsstox_substance_id>
DTXSID5074767

> <dsstox_compound_id>
DTXCID5042532

> <qc_level>
Public_High

> <Canonical_QSARr>
BrC1C=C(Br)C=C(Br)C=1C1C=CC=CC=1

> <InChI_Code_QSARr>
InChI=1S/C12H7Br3/c13-9-6-10(14)12(11(15)7-9)8-4-2-1-3-5-8/h1-7H

> <InChI Key_QSARr>
YCLZBYQDXVJFII-UHFFFAOYSA-N

> <Salt_Solvent>


> <Salt_Solvent_ID>
0

> <MPID>
98536

> <LogBCF>
3.87

> <Tr_1_Tst_0>
1

$$$$
100660
  Mrv171c012241911322D          

 18 19  0  0  0  0            999 V2000
    0.3573    1.4438    0.0000 C   0  0  0  0  0  0  0  0  0  0  0  0
   -0.3572    1.8563    0.0000 C   0  0  0  0  0  0  0  0  0  0  0  0
   -0.3572    2.6813    0.0000 Br  0  0  0  0  0  0  0  0  0  0  0  0
   -1.0717    1.4438    0.0000 C   0  0  0  0  0  0  0  0  0  0  0  0
   -1.0717    0.6188    0.0000 C   0  0  0  0  0  0  0  0  0  0  0  0
   -1.7862    0.2063    0.0000 Br  0  0  0  0  0  0  0  0  0  0  0  0
   -0.3572    0.2063    0.0000 C   0  0  0  0  0  0  0  0  0  0  0  0
    0.3573    0.6188    0.0000 C   0  0  0  0  0  0  0  0  0  0  0  0
    1.0717    0.2063    0.0000 Br  0  0  0  0  0  0  0  0  0  0  0  0
    1.0717    1.8563    0.0000 C   0  0  0  0  0  0  0  0  0  0  0  0
    1.7862    1.4438    0.0000 C   0  0  0  0  0  0  0  0  0  0  0  0
    1.7862    0.6188    0.0000 Br  0  0  0  0  0  0  0  0  0  0  0  0
    2.5007    1.8563    0.0000 C   0  0  0  0  0  0  0  0  0  0  0  0
    2.5007    2.6813    0.0000 C   0  0  0  0  0  0  0  0  0  0  0  0
    3.2151    3.0938    0.0000 Br  0  0  0  0  0  0  0  0  0  0  0  0
    1.7862    3.0938    0.0000 C   0  0  0  0  0  0  0  0  0  0  0  0
    1.0717    2.6813    0.0000 C   0  0  0  0  0  0  0  0  0  0  0  0
    0.3573    3.0938    0.0000 Br  0  0  0  0  0  0  0  0  0  0  0  0
  2  1  1  0  0  0  0
  2  3  1  0  0  0  0
  4  2  2  0  0  0  0
  5  4  1  0  0  0  0
  5  6  1  0  0  0  0
  7  5  2  0  0  0  0
  8  7  1  0  0  0  0
  1  8  2  0  0  0  0
  8  9  1  0  0  0  0
  1 10  1  0  0  0  0
 11 10  1  0  0  0  0
 11 12  1  0  0  0  0
 13 11  2  0  0  0  0
 14 13  1  0  0  0  0
 14 15  1  0  0  0  0
 16 14  2  0  0  0  0
 17 16  1  0  0  0  0
 10 17  2  0  0  0  0
 17 18  1  0  0  0  0
M  END
> <ChemID>
100660

> <CAS>
59261-08-4

> <Original_SMILES>
Brc1cc(Br)c(-c2c(Br)cc(Br)cc2Br)c(Br)c1

> <preferred_name>
PBB 155

> <dsstox_substance_id>
DTXSID4074772

> <dsstox_compound_id>
DTXCID5042586

> <qc_level>
Public_High

> <Canonical_QSARr>
BrC1=CC(Br)=C(C2C(Br)=CC(Br)=CC=2Br)C(Br)=C1

> <InChI_Code_QSARr>
InChI=1S/C12H4Br6/c13-5-1-7(15)11(8(16)2-5)12-9(17)3-6(14)4-10(12)18/h1-4H

> <InChI Key_QSARr>
LNFYSRMCCKKDEH-UHFFFAOYSA-N

> <Salt_Solvent>


> <Salt_Solvent_ID>
0

> <MPID>
98537

> <LogBCF>
4.66

> <Tr_1_Tst_0>
1

$$$$
100662
  Mrv171c012241911322D          

 26 29  0  0  0  0            999 V2000
   -0.7145    2.0625    0.0000 O   0  0  0  0  0  0  0  0  0  0  0  0
   -0.7145    1.2375    0.0000 C   0  0  0  0  0  0  0  0  0  0  0  0
   -0.0000    0.8250    0.0000 C   0  0  0  0  0  0  0  0  0  0  0  0
   -0.0000   -0.0000    0.0000 C   0  0  0  0  0  0  0  0  0  0  0  0
    0.7145   -0.4125    0.0000 C   0  0  0  0  0  0  0  0  0  0  0  0
    1.4289   -0.0000    0.0000 C   0  0  0  0  0  0  0  0  0  0  0  0
    1.4289    0.8250    0.0000 C   0  0  0  0  0  0  0  0  0  0  0  0
    0.7145    1.2375    0.0000 C   0  0  0  0  0  0  0  0  0  0  0  0
    0.7145    2.0625    0.0000 O   0  0  0  0  0  0  0  0  0  0  0  0
    2.1434   -0.4125    0.0000 O   0  0  0  0  0  0  0  0  0  0  0  0
    2.8579   -0.0000    0.0000 C   0  0  0  0  0  0  0  0  0  0  0  0
    3.5723   -0.4125    0.0000 C   0  0  0  0  0  0  0  0  0  0  0  0
    4.2868   -0.0000    0.0000 C   0  0  0  0  0  0  0  0  0  0  0  0
    4.2868    0.8250    0.0000 C   0  0  0  0  0  0  0  0  0  0  0  0
    5.0013    1.2375    0.0000 Br  0  0  0  0  0  0  0  0  0  0  0  0
    3.5723    1.2375    0.0000 C   0  0  0  0  0  0  0  0  0  0  0  0
    2.8579    0.8250    0.0000 C   0  0  0  0  0  0  0  0  0  0  0  0
    0.7145   -1.2375    0.0000 N   0  0  0  0  0  0  0  0  0  0  0  0
   -0.7145   -0.4125    0.0000 C   0  0  0  0  0  0  0  0  0  0  0  0
   -0.7145   -1.2375    0.0000 O   0  0  0  0  0  0  0  0  0  0  0  0
   -1.4290   -0.0000    0.0000 C   0  0  0  0  0  0  0  0  0  0  0  0
   -2.1434   -0.4125    0.0000 C   0  0  0  0  0  0  0  0  0  0  0  0
   -2.8579   -0.0000    0.0000 C   0  0  0  0  0  0  0  0  0  0  0  0
   -2.8579    0.8250    0.0000 C   0  0  0  0  0  0  0  0  0  0  0  0
   -2.1434    1.2375    0.0000 C   0  0  0  0  0  0  0  0  0  0  0  0
   -1.4290    0.8250    0.0000 C   0  0  0  0  0  0  0  0  0  0  0  0
  1  2  2  0  0  0  0
  3  2  1  0  0  0  0
  3  4  1  0  0  0  0
  4  5  2  0  0  0  0
  5  6  1  0  0  0  0
  6  7  2  0  0  0  0
  7  8  1  0  0  0  0
  8  3  2  0  0  0  0
  8  9  1  0  0  0  0
  6 10  1  0  0  0  0
 10 11  1  0  0  0  0
 12 11  1  0  0  0  0
 13 12  2  0  0  0  0
 14 13  1  0  0  0  0
 14 15  1  0  0  0  0
 16 14  2  0  0  0  0
 17 16  1  0  0  0  0
 11 17  2  0  0  0  0
  5 18  1  0  0  0  0
 19  4  1  0  0  0  0
 19 20  2  0  0  0  0
 21 19  1  0  0  0  0
 21 22  1  0  0  0  0
 22 23  2  0  0  0  0
 23 24  1  0  0  0  0
 24 25  2  0  0  0  0
 25 26  1  0  0  0  0
  2 26  1  0  0  0  0
 26 21  2  0  0  0  0
M  END
> <ChemID>
100662

> <CAS>
59722-76-8

> <Original_SMILES>
Nc1c2c(c(O)cc1Oc1ccc(Br)cc1)C(=O)c1ccccc1C2=O

> <preferred_name>
9,10-Anthracenedione, 1-amino-2-(4-bromophenoxy)-4-hydroxy-

> <dsstox_substance_id>
DTXSID8069351

> <dsstox_compound_id>
DTXCID9042677

> <qc_level>
Public_High

> <Canonical_QSARr>
NC1=C2C(=C(O)C=C1OC1C=CC(Br)=CC=1)C(=O)C1C=CC=CC=1C2=O

> <InChI_Code_QSARr>
InChI=1S/C20H12BrNO4/c21-10-5-7-11(8-6-10)26-15-9-14(23)16-17(18(15)22)20(25)13-4-2-1-3-12(13)19(16)24/h1-9,23H,22H2

> <InChI Key_QSARr>
NXLZYWCPIVGZKC-UHFFFAOYSA-N

> <Salt_Solvent>


> <Salt_Solvent_ID>
0

> <MPID>
98538

> <LogBCF>
2.05

> <Tr_1_Tst_0>
0

$$$$
100663
  Mrv171c012241911322D          

 20 19  0  0  0  0            999 V2000
    0.9004   -4.2537    0.0000 Si  0  0  0  0  0  0  0  0  0  0  0  0
    1.3129   -4.9682    0.0000 C   0  0  0  0  0  0  0  0  0  0  0  0
    2.1379   -4.9682    0.0000 C   0  0  0  0  0  0  0  0  0  0  0  0
    2.5504   -5.6826    0.0000 C   0  0  0  0  0  0  0  0  0  0  0  0
    3.3754   -5.6826    0.0000 C   0  0  0  0  0  0  0  0  0  0  0  0
    3.7879   -6.3971    0.0000 C   0  0  0  0  0  0  0  0  0  0  0  0
    4.6129   -6.3971    0.0000 C   0  0  0  0  0  0  0  0  0  0  0  0
    0.4879   -3.5392    0.0000 C   0  0  0  0  0  0  0  0  0  0  0  0
   -0.3371   -3.5392    0.0000 C   0  0  0  0  0  0  0  0  0  0  0  0
   -0.7496   -2.8247    0.0000 C   0  0  0  0  0  0  0  0  0  0  0  0
   -1.5746   -2.8247    0.0000 C   0  0  0  0  0  0  0  0  0  0  0  0
   -1.9871   -2.1103    0.0000 C   0  0  0  0  0  0  0  0  0  0  0  0
   -2.8121   -2.1103    0.0000 C   0  0  0  0  0  0  0  0  0  0  0  0
    1.6149   -3.8412    0.0000 C   0  0  0  0  0  0  0  0  0  0  0  0
    1.6149   -3.0162    0.0000 C   0  0  0  0  0  0  0  0  0  0  0  0
    2.3293   -2.6037    0.0000 C   0  0  0  0  0  0  0  0  0  0  0  0
    3.0438   -3.0162    0.0000 C   0  0  0  0  0  0  0  0  0  0  0  0
    3.7583   -2.6037    0.0000 C   0  0  0  0  0  0  0  0  0  0  0  0
    4.4728   -3.0162    0.0000 C   0  0  0  0  0  0  0  0  0  0  0  0
    0.1859   -4.6662    0.0000 O   0  0  0  0  0  0  0  0  0  0  0  0
  1  2  1  0  0  0  0
  2  3  1  0  0  0  0
  3  4  1  0  0  0  0
  4  5  1  0  0  0  0
  5  6  1  0  0  0  0
  6  7  1  0  0  0  0
  1  8  1  0  0  0  0
  8  9  1  0  0  0  0
  9 10  1  0  0  0  0
 10 11  1  0  0  0  0
 11 12  1  0  0  0  0
 12 13  1  0  0  0  0
  1 14  1  0  0  0  0
 14 15  1  0  0  0  0
 15 16  1  0  0  0  0
 16 17  1  0  0  0  0
 17 18  1  0  0  0  0
 18 19  1  0  0  0  0
  1 20  1  0  0  0  0
M  END
> <ChemID>
100663

> <CAS>
60782-58-3

> <Original_SMILES>
CCCCCC[Si](O)(CCCCCC)CCCCCC

> <preferred_name>


> <dsstox_substance_id>
DTXSID30878375

> <dsstox_compound_id>
DTXCID801016424

> <qc_level>


> <Canonical_QSARr>
CCCCCC[Si](O)(CCCCCC)CCCCCC

> <InChI_Code_QSARr>
InChI=1S/C18H40OSi/c1-4-7-10-13-16-20(19,17-14-11-8-5-2)18-15-12-9-6-3/h19H,4-18H2,1-3H3

> <InChI Key_QSARr>
NOVLNRUYLAGEMC-UHFFFAOYSA-N

> <Salt_Solvent>


> <Salt_Solvent_ID>
0

> <MPID>
98539

> <LogBCF>
2.7

> <Tr_1_Tst_0>
1

$$$$
100664
  Mrv171c012241911322D          

 19 21  0  0  0  0            999 V2000
    2.1638   -1.9221    0.0000 C   0  0  0  0  0  0  0  0  0  0  0  0
    2.8313   -2.4070    0.0000 O   0  0  0  0  0  0  0  0  0  0  0  0
    3.4987   -1.9221    0.0000 C   0  0  0  0  0  0  0  0  0  0  0  0
    4.3057   -2.0936    0.0000 C   0  0  0  0  0  0  0  0  0  0  0  0
    4.8577   -1.4805    0.0000 C   0  0  0  0  0  0  0  0  0  0  0  0
    4.6028   -0.6959    0.0000 C   0  0  0  0  0  0  0  0  0  0  0  0
    3.7958   -0.5244    0.0000 C   0  0  0  0  0  0  0  0  0  0  0  0
    3.2438   -1.1375    0.0000 C   0  0  0  0  0  0  0  0  0  0  0  0
    2.4188   -1.1375    0.0000 C   0  0  0  0  0  0  0  0  0  0  0  0
    1.8667   -0.5244    0.0000 C   0  0  0  0  0  0  0  0  0  0  0  0
    1.0598   -0.6959    0.0000 C   0  0  0  0  0  0  0  0  0  0  0  0
    0.5077   -0.0828    0.0000 Cl  0  0  0  0  0  0  0  0  0  0  0  0
    0.8048   -1.4805    0.0000 C   0  0  0  0  0  0  0  0  0  0  0  0
   -0.0021   -1.6521    0.0000 Cl  0  0  0  0  0  0  0  0  0  0  0  0
    1.3569   -2.0936    0.0000 C   0  0  0  0  0  0  0  0  0  0  0  0
    1.1019   -2.8782    0.0000 Cl  0  0  0  0  0  0  0  0  0  0  0  0
    5.1548   -0.0828    0.0000 Cl  0  0  0  0  0  0  0  0  0  0  0  0
    5.6647   -1.6521    0.0000 Cl  0  0  0  0  0  0  0  0  0  0  0  0
    4.5606   -2.8782    0.0000 Cl  0  0  0  0  0  0  0  0  0  0  0  0
  2  1  1  0  0  0  0
  3  2  1  0  0  0  0
  3  4  1  0  0  0  0
  4  5  2  0  0  0  0
  5  6  1  0  0  0  0
  6  7  2  0  0  0  0
  7  8  1  0  0  0  0
  8  3  2  0  0  0  0
  9  8  1  0  0  0  0
  9  1  1  0  0  0  0
 10  9  2  0  0  0  0
 11 10  1  0  0  0  0
 11 12  1  0  0  0  0
 13 11  2  0  0  0  0
 13 14  1  0  0  0  0
 15 13  1  0  0  0  0
  1 15  2  0  0  0  0
 15 16  1  0  0  0  0
  6 17  1  0  0  0  0
  5 18  1  0  0  0  0
  4 19  1  0  0  0  0
M  END
> <ChemID>
100664

> <CAS>
60851-34-5

> <Original_SMILES>
Clc1cc2c(oc3c2cc(Cl)c(Cl)c3Cl)c(Cl)c1Cl

> <preferred_name>
2,3,4,6,7,8-Hexachlorodibenzo[b,d]furan

> <dsstox_substance_id>
DTXSID3052276

> <dsstox_compound_id>
DTXCID3030848

> <qc_level>
DSSTox_High

> <Canonical_QSARr>
ClC1C=C2C(OC3=C2C=C(Cl)C(Cl)=C3Cl)=C(Cl)C=1Cl

> <InChI_Code_QSARr>
InChI=1S/C12H2Cl6O/c13-5-1-3-4-2-6(14)8(16)10(18)12(4)19-11(3)9(17)7(5)15/h1-2H

> <InChI Key_QSARr>
XTAHLACQOVXINQ-UHFFFAOYSA-N

> <Salt_Solvent>


> <Salt_Solvent_ID>
0

> <MPID>
98540

> <LogBCF>
3.98

> <Tr_1_Tst_0>
1

$$$$
100665
  Mrv171c012241911322D          

 26 28  0  0  0  0            999 V2000
    2.8410    0.6505    0.0000 C   0  0  0  0  0  0  0  0  0  0  0  0
    2.2090    1.1808    0.0000 C   0  0  0  0  0  0  0  0  0  0  0  0
    3.4730    1.1808    0.0000 C   0  0  0  0  0  0  0  0  0  0  0  0
    2.4285   -0.0640    0.0000 C   0  0  0  0  0  0  0  0  0  0  0  0
    1.7140   -0.4765    0.0000 C   0  0  0  0  0  0  0  0  0  0  0  0
    1.7140   -1.3015    0.0000 O   0  0  0  0  0  0  0  0  0  0  0  0
    0.9996   -0.0640    0.0000 O   0  0  0  0  0  0  0  0  0  0  0  0
    0.2851   -0.4765    0.0000 C   0  0  0  0  0  0  0  0  0  0  0  0
   -0.4294   -0.0640    0.0000 C   0  0  0  0  0  0  0  0  0  0  0  0
   -0.4294    0.7610    0.0000 C   0  0  0  0  0  0  0  0  0  0  0  0
   -1.1438    1.1735    0.0000 C   0  0  0  0  0  0  0  0  0  0  0  0
   -1.8583    0.7610    0.0000 C   0  0  0  0  0  0  0  0  0  0  0  0
   -1.8583   -0.0640    0.0000 C   0  0  0  0  0  0  0  0  0  0  0  0
   -2.5728   -0.4765    0.0000 O   0  0  0  0  0  0  0  0  0  0  0  0
   -3.2873   -0.0640    0.0000 C   0  0  0  0  0  0  0  0  0  0  0  0
   -3.2873    0.7610    0.0000 C   0  0  0  0  0  0  0  0  0  0  0  0
   -4.0017    1.1735    0.0000 C   0  0  0  0  0  0  0  0  0  0  0  0
   -4.7162    0.7610    0.0000 C   0  0  0  0  0  0  0  0  0  0  0  0
   -4.7162   -0.0640    0.0000 C   0  0  0  0  0  0  0  0  0  0  0  0
   -4.0017   -0.4765    0.0000 C   0  0  0  0  0  0  0  0  0  0  0  0
   -1.1438   -0.4765    0.0000 C   0  0  0  0  0  0  0  0  0  0  0  0
    3.2535   -0.0640    0.0000 C   0  0  0  0  0  0  0  0  0  0  0  0
    3.9680   -0.4765    0.0000 C   0  0  0  0  0  0  0  0  0  0  0  0
    4.6825   -0.0640    0.0000 C   0  0  0  0  0  0  0  0  0  0  0  0
    4.6825    0.7610    0.0000 Cl  0  0  0  0  0  0  0  0  0  0  0  0
    5.3969   -0.4765    0.0000 Cl  0  0  0  0  0  0  0  0  0  0  0  0
  1  2  1  0  0  0  0
  1  3  1  0  0  0  0
  4  1  1  0  0  0  0
  4  5  1  0  0  0  0
  5  6  2  0  0  0  0
  5  7  1  0  0  0  0
  7  8  1  0  0  0  0
  8  9  1  0  0  0  0
 10  9  2  0  0  0  0
 11 10  1  0  0  0  0
 12 11  2  0  0  0  0
 13 12  1  0  0  0  0
 13 14  1  0  0  0  0
 14 15  1  0  0  0  0
 16 15  1  0  0  0  0
 17 16  2  0  0  0  0
 18 17  1  0  0  0  0
 19 18  2  0  0  0  0
 20 19  1  0  0  0  0
 15 20  2  0  0  0  0
 21 13  2  0  0  0  0
  9 21  1  0  0  0  0
 22  4  1  0  0  0  0
  1 22  1  0  0  0  0
 22 23  1  0  0  0  0
 23 24  2  0  0  0  0
 24 25  1  0  0  0  0
 24 26  1  0  0  0  0
M  END
> <ChemID>
100665

> <CAS>
61949-76-6

> <Original_SMILES>
CC1(C)[C@@H]([C@@H]1C=C(Cl)Cl)C(=O)OCc1cccc(c1)Oc1ccccc1

> <preferred_name>
(+/-)-cis-Permethrin

> <dsstox_substance_id>
DTXSID0038338

> <dsstox_compound_id>
DTXCID50196588

> <qc_level>
DSSTox_High

> <Canonical_QSARr>
CC1(C)C(C1C=C(Cl)Cl)C(=O)OCC1C=C(C=CC=1)OC1C=CC=CC=1

> <InChI_Code_QSARr>
InChI=1S/C21H20Cl2O3/c1-21(2)17(12-18(22)23)19(21)20(24)25-13-14-7-6-10-16(11-14)26-15-8-4-3-5-9-15/h3-12,17,19H,13H2,1-2H3

> <InChI Key_QSARr>
RLLPVAHGXHCWKJ-UHFFFAOYSA-N

> <Salt_Solvent>


> <Salt_Solvent_ID>
0

> <MPID>
98541

> <LogBCF>
2.65

> <Tr_1_Tst_0>
1

$$$$
100666
  Mrv171c012241911322D          

 23 24  0  0  0  0            999 V2000
    4.3303   -3.7700    0.0000 C   0  0  0  0  0  0  0  0  0  0  0  0
    4.3303   -4.5950    0.0000 C   0  0  0  0  0  0  0  0  0  0  0  0
    5.0448   -5.0075    0.0000 C   0  0  0  0  0  0  0  0  0  0  0  0
    5.7593   -4.5950    0.0000 C   0  0  0  0  0  0  0  0  0  0  0  0
    5.7593   -3.7700    0.0000 C   0  0  0  0  0  0  0  0  0  0  0  0
    5.0448   -3.3575    0.0000 C   0  0  0  0  0  0  0  0  0  0  0  0
    5.0448   -2.5325    0.0000 C   0  0  0  0  0  0  0  0  0  0  0  0
    5.0448   -1.7075    0.0000 F   0  0  0  0  0  0  0  0  0  0  0  0
    4.2198   -2.5325    0.0000 F   0  0  0  0  0  0  0  0  0  0  0  0
    5.8698   -2.5325    0.0000 F   0  0  0  0  0  0  0  0  0  0  0  0
    3.6159   -3.3575    0.0000 C   0  0  0  0  0  0  0  0  0  0  0  0
    3.6159   -2.5325    0.0000 O   0  0  0  0  0  0  0  0  0  0  0  0
    2.9014   -3.7700    0.0000 N   0  0  0  0  0  0  0  0  0  0  0  0
    2.1869   -3.3575    0.0000 C   0  0  0  0  0  0  0  0  0  0  0  0
    2.1869   -2.5325    0.0000 C   0  0  0  0  0  0  0  0  0  0  0  0
    1.4724   -2.1200    0.0000 C   0  0  0  0  0  0  0  0  0  0  0  0
    0.7580   -2.5325    0.0000 C   0  0  0  0  0  0  0  0  0  0  0  0
    0.7580   -3.3575    0.0000 C   0  0  0  0  0  0  0  0  0  0  0  0
    0.0435   -3.7700    0.0000 O   0  0  0  0  0  0  0  0  0  0  0  0
   -0.6710   -3.3575    0.0000 C   0  0  0  0  0  0  0  0  0  0  0  0
   -1.3854   -3.7700    0.0000 C   0  0  0  0  0  0  0  0  0  0  0  0
   -0.6710   -2.5325    0.0000 C   0  0  0  0  0  0  0  0  0  0  0  0
    1.4724   -3.7700    0.0000 C   0  0  0  0  0  0  0  0  0  0  0  0
  2  1  1  0  0  0  0
  3  2  2  0  0  0  0
  4  3  1  0  0  0  0
  5  4  2  0  0  0  0
  6  5  1  0  0  0  0
  1  6  2  0  0  0  0
  6  7  1  0  0  0  0
  7  8  1  0  0  0  0
  7  9  1  0  0  0  0
  7 10  1  0  0  0  0
  1 11  1  0  0  0  0
 11 12  2  0  0  0  0
 11 13  1  0  0  0  0
 13 14  1  0  0  0  0
 15 14  2  0  0  0  0
 16 15  1  0  0  0  0
 17 16  2  0  0  0  0
 18 17  1  0  0  0  0
 18 19  1  0  0  0  0
 19 20  1  0  0  0  0
 20 21  1  0  0  0  0
 20 22  1  0  0  0  0
 23 18  2  0  0  0  0
 14 23  1  0  0  0  0
M  END
> <ChemID>
100666

> <CAS>
66332-96-5

> <Original_SMILES>
CC(C)Oc1cc(ccc1)NC(=O)c1ccccc1C(F)(F)F

> <preferred_name>
Flutolanil

> <dsstox_substance_id>
DTXSID8024109

> <dsstox_compound_id>
DTXCID204109

> <qc_level>
DSSTox_Low

> <Canonical_QSARr>
CC(C)OC1=CC(=CC=C1)NC(=O)C1C=CC=CC=1C(F)(F)F

> <InChI_Code_QSARr>
InChI=1S/C17H16F3NO2/c1-11(2)23-13-7-5-6-12(10-13)21-16(22)14-8-3-4-9-15(14)17(18,19)20/h3-11H,1-2H3,(H,21,22)

> <InChI Key_QSARr>
PTCGDEVVHUXTMP-UHFFFAOYSA-N

> <Salt_Solvent>


> <Salt_Solvent_ID>
0

> <MPID>
98542

> <LogBCF>
1.29

> <Tr_1_Tst_0>
0

$$$$
100669
  Mrv171c012241911322D          

 20 22  0  0  0  0            999 V2000
    2.1631   -2.0898    0.0000 C   0  0  0  0  0  0  0  0  0  0  0  0
    2.8306   -2.5747    0.0000 O   0  0  0  0  0  0  0  0  0  0  0  0
    3.4980   -2.0898    0.0000 C   0  0  0  0  0  0  0  0  0  0  0  0
    4.3050   -2.2613    0.0000 C   0  0  0  0  0  0  0  0  0  0  0  0
    4.8570   -1.6482    0.0000 C   0  0  0  0  0  0  0  0  0  0  0  0
    4.6021   -0.8636    0.0000 C   0  0  0  0  0  0  0  0  0  0  0  0
    3.7951   -0.6921    0.0000 C   0  0  0  0  0  0  0  0  0  0  0  0
    3.2431   -1.3051    0.0000 C   0  0  0  0  0  0  0  0  0  0  0  0
    2.4181   -1.3051    0.0000 C   0  0  0  0  0  0  0  0  0  0  0  0
    1.8660   -0.6921    0.0000 C   0  0  0  0  0  0  0  0  0  0  0  0
    2.1210    0.0926    0.0000 Cl  0  0  0  0  0  0  0  0  0  0  0  0
    1.0591   -0.8636    0.0000 C   0  0  0  0  0  0  0  0  0  0  0  0
    0.5070   -0.2505    0.0000 Cl  0  0  0  0  0  0  0  0  0  0  0  0
    0.8041   -1.6482    0.0000 C   0  0  0  0  0  0  0  0  0  0  0  0
   -0.0028   -1.8197    0.0000 Cl  0  0  0  0  0  0  0  0  0  0  0  0
    1.3562   -2.2613    0.0000 C   0  0  0  0  0  0  0  0  0  0  0  0
    1.1012   -3.0459    0.0000 Cl  0  0  0  0  0  0  0  0  0  0  0  0
    5.1541   -0.2505    0.0000 Cl  0  0  0  0  0  0  0  0  0  0  0  0
    5.6640   -1.8197    0.0000 Cl  0  0  0  0  0  0  0  0  0  0  0  0
    4.5599   -3.0459    0.0000 Cl  0  0  0  0  0  0  0  0  0  0  0  0
  2  1  1  0  0  0  0
  3  2  1  0  0  0  0
  3  4  1  0  0  0  0
  4  5  2  0  0  0  0
  5  6  1  0  0  0  0
  6  7  2  0  0  0  0
  7  8  1  0  0  0  0
  8  3  2  0  0  0  0
  9  8  1  0  0  0  0
  9  1  1  0  0  0  0
 10  9  2  0  0  0  0
 10 11  1  0  0  0  0
 12 10  1  0  0  0  0
 12 13  1  0  0  0  0
 14 12  2  0  0  0  0
 14 15  1  0  0  0  0
 16 14  1  0  0  0  0
  1 16  2  0  0  0  0
 16 17  1  0  0  0  0
  6 18  1  0  0  0  0
  5 19  1  0  0  0  0
  4 20  1  0  0  0  0
M  END
> <ChemID>
100669

> <CAS>
67562-39-4

> <Original_SMILES>
Clc1cc2c(oc3c2c(Cl)c(Cl)c(Cl)c3Cl)c(Cl)c1Cl

> <preferred_name>
1,2,3,4,6,7,8-Heptachlorodibenzo[b,d]furan

> <dsstox_substance_id>
DTXSID8052350

> <dsstox_compound_id>
DTXCID8030922

> <qc_level>
DSSTox_Low

> <Canonical_QSARr>
ClC1=CC2=C(OC3C2=C(Cl)C(Cl)=C(Cl)C=3Cl)C(Cl)=C1Cl

> <InChI_Code_QSARr>
InChI=1S/C12HCl7O/c13-3-1-2-4-6(15)7(16)8(17)10(19)12(4)20-11(2)9(18)5(3)14/h1H

> <InChI Key_QSARr>
WDMKCPIVJOGHBF-UHFFFAOYSA-N

> <Salt_Solvent>


> <Salt_Solvent_ID>
0

> <MPID>
98544

> <LogBCF>
3.45

> <Tr_1_Tst_0>
1

$$$$
100670
  Mrv171c012241911322D          

 25 26  0  0  0  0            999 V2000
    0.5406   -3.5019    0.0000 C   0  0  0  0  0  0  0  0  0  0  0  0
    0.5406   -4.3269    0.0000 O   0  0  0  0  0  0  0  0  0  0  0  0
   -0.1738   -3.0894    0.0000 O   0  0  0  0  0  0  0  0  0  0  0  0
   -0.8883   -3.5019    0.0000 C   0  0  0  0  0  0  0  0  0  0  0  0
    1.2551   -3.0894    0.0000 C   0  0  0  0  0  0  0  0  0  0  0  0
    1.9696   -3.5019    0.0000 O   0  0  0  0  0  0  0  0  0  0  0  0
    2.6841   -3.0894    0.0000 C   0  0  0  0  0  0  0  0  0  0  0  0
    3.3985   -3.5019    0.0000 C   0  0  0  0  0  0  0  0  0  0  0  0
    4.1130   -3.0894    0.0000 C   0  0  0  0  0  0  0  0  0  0  0  0
    4.1130   -2.2644    0.0000 C   0  0  0  0  0  0  0  0  0  0  0  0
    4.8275   -1.8519    0.0000 O   0  0  0  0  0  0  0  0  0  0  0  0
    5.5419   -2.2644    0.0000 C   0  0  0  0  0  0  0  0  0  0  0  0
    5.5419   -3.0894    0.0000 C   0  0  0  0  0  0  0  0  0  0  0  0
    4.8275   -3.5019    0.0000 Cl  0  0  0  0  0  0  0  0  0  0  0  0
    6.2564   -3.5019    0.0000 C   0  0  0  0  0  0  0  0  0  0  0  0
    6.9709   -3.0894    0.0000 C   0  0  0  0  0  0  0  0  0  0  0  0
    7.6853   -3.5019    0.0000 C   0  0  0  0  0  0  0  0  0  0  0  0
    8.3998   -3.9144    0.0000 F   0  0  0  0  0  0  0  0  0  0  0  0
    7.2728   -4.2164    0.0000 F   0  0  0  0  0  0  0  0  0  0  0  0
    8.0978   -2.7875    0.0000 F   0  0  0  0  0  0  0  0  0  0  0  0
    6.9709   -2.2644    0.0000 C   0  0  0  0  0  0  0  0  0  0  0  0
    6.2564   -1.8519    0.0000 N   0  0  0  0  0  0  0  0  0  0  0  0
    3.3985   -1.8519    0.0000 C   0  0  0  0  0  0  0  0  0  0  0  0
    2.6841   -2.2644    0.0000 C   0  0  0  0  0  0  0  0  0  0  0  0
    1.2551   -2.2644    0.0000 C   0  0  0  0  0  0  0  0  0  0  0  0
  1  2  2  0  0  0  0
  1  3  1  0  0  0  0
  3  4  1  0  0  0  0
  1  5  1  0  0  0  0
  5  6  1  0  0  0  0
  6  7  1  0  0  0  0
  8  7  1  0  0  0  0
  9  8  2  0  0  0  0
 10  9  1  0  0  0  0
 10 11  1  0  0  0  0
 11 12  1  0  0  0  0
 13 12  1  0  0  0  0
 13 14  1  0  0  0  0
 15 13  2  0  0  0  0
 16 15  1  0  0  0  0
 16 17  1  0  0  0  0
 17 18  1  0  0  0  0
 17 19  1  0  0  0  0
 17 20  1  0  0  0  0
 21 16  2  0  0  0  0
 22 21  1  0  0  0  0
 12 22  2  0  0  0  0
 23 10  2  0  0  0  0
 24 23  1  0  0  0  0
  7 24  2  0  0  0  0
  5 25  1  0  0  0  0
M  END
> <ChemID>
100670

> <CAS>
69806-40-2

> <Original_SMILES>
COC(=O)C(C)Oc1ccc(cc1)Oc1[n]cc(cc1Cl)C(F)(F)F

> <preferred_name>
Haloxyfop-methyl

> <dsstox_substance_id>
DTXSID6024123

> <dsstox_compound_id>
DTXCID404123

> <qc_level>
DSSTox_Low

> <Canonical_QSARr>
COC(=O)C(C)OC1C=CC(=CC=1)OC1=NC=C(C=C1Cl)C(F)(F)F

> <InChI_Code_QSARr>
InChI=1S/C16H13ClF3NO4/c1-9(15(22)23-2)24-11-3-5-12(6-4-11)25-14-13(17)7-10(8-21-14)16(18,19)20/h3-9H,1-2H3

> <InChI Key_QSARr>
MFSWTRQUCLNFOM-UHFFFAOYSA-N

> <Salt_Solvent>


> <Salt_Solvent_ID>
0

> <MPID>
98545

> <LogBCF>
1.23

> <Tr_1_Tst_0>
1

$$$$
100671
  Mrv171c012241911322D          

 19 21  0  0  0  0            999 V2000
    3.0957   -0.4040    0.0000 O   0  0  0  0  0  0  0  0  0  0  0  0
    3.7632   -0.8889    0.0000 C   0  0  0  0  0  0  0  0  0  0  0  0
    4.5702   -0.7174    0.0000 C   0  0  0  0  0  0  0  0  0  0  0  0
    5.1222   -1.3305    0.0000 C   0  0  0  0  0  0  0  0  0  0  0  0
    5.9292   -1.1590    0.0000 Cl  0  0  0  0  0  0  0  0  0  0  0  0
    4.8673   -2.1151    0.0000 C   0  0  0  0  0  0  0  0  0  0  0  0
    5.4193   -2.7282    0.0000 Cl  0  0  0  0  0  0  0  0  0  0  0  0
    4.0603   -2.2867    0.0000 C   0  0  0  0  0  0  0  0  0  0  0  0
    3.5082   -1.6736    0.0000 C   0  0  0  0  0  0  0  0  0  0  0  0
    2.6832   -1.6736    0.0000 C   0  0  0  0  0  0  0  0  0  0  0  0
    2.1312   -2.2867    0.0000 C   0  0  0  0  0  0  0  0  0  0  0  0
    2.3862   -3.0713    0.0000 Cl  0  0  0  0  0  0  0  0  0  0  0  0
    1.3242   -2.1151    0.0000 C   0  0  0  0  0  0  0  0  0  0  0  0
    0.7722   -2.7282    0.0000 Cl  0  0  0  0  0  0  0  0  0  0  0  0
    1.0693   -1.3305    0.0000 C   0  0  0  0  0  0  0  0  0  0  0  0
    0.2623   -1.1590    0.0000 Cl  0  0  0  0  0  0  0  0  0  0  0  0
    1.6213   -0.7174    0.0000 C   0  0  0  0  0  0  0  0  0  0  0  0
    1.3664    0.0672    0.0000 Cl  0  0  0  0  0  0  0  0  0  0  0  0
    2.4283   -0.8889    0.0000 C   0  0  0  0  0  0  0  0  0  0  0  0
  2  1  1  0  0  0  0
  2  3  1  0  0  0  0
  3  4  2  0  0  0  0
  4  5  1  0  0  0  0
  4  6  1  0  0  0  0
  6  7  1  0  0  0  0
  6  8  2  0  0  0  0
  8  9  1  0  0  0  0
  9  2  2  0  0  0  0
 10  9  1  0  0  0  0
 10 11  1  0  0  0  0
 11 12  1  0  0  0  0
 11 13  2  0  0  0  0
 13 14  1  0  0  0  0
 13 15  1  0  0  0  0
 15 16  1  0  0  0  0
 15 17  2  0  0  0  0
 17 18  1  0  0  0  0
 17 19  1  0  0  0  0
  1 19  1  0  0  0  0
 19 10  2  0  0  0  0
M  END
> <ChemID>
100671

> <CAS>
70648-26-9

> <Original_SMILES>
Clc1cc2c3c(oc2cc1Cl)c(Cl)c(Cl)c(Cl)c3Cl

> <preferred_name>
1,2,3,4,7,8-Hexachlorodibenzofuran

> <dsstox_substance_id>
DTXSID6029915

> <dsstox_compound_id>
DTXCID009915

> <qc_level>
DSSTox_Low

> <Canonical_QSARr>
ClC1=CC2C3=C(OC=2C=C1Cl)C(Cl)=C(Cl)C(Cl)=C3Cl

> <InChI_Code_QSARr>
InChI=1S/C12H2Cl6O/c13-4-1-3-6(2-5(4)14)19-12-7(3)8(15)9(16)10(17)11(12)18/h1-2H

> <InChI Key_QSARr>
LVYBAQIVPKCOEE-UHFFFAOYSA-N

> <Salt_Solvent>


> <Salt_Solvent_ID>
0

> <MPID>
98546

> <LogBCF>
3.9

> <Tr_1_Tst_0>
1

$$$$
100672
  Mrv171c012241911322D          

 19 21  0  0  0  0            999 V2000
    2.4001    0.5840    0.0000 C   0  0  0  0  0  0  0  0  0  0  0  0
    2.9521    1.1971    0.0000 C   0  0  0  0  0  0  0  0  0  0  0  0
    2.6972    1.9817    0.0000 Cl  0  0  0  0  0  0  0  0  0  0  0  0
    3.7591    1.0256    0.0000 C   0  0  0  0  0  0  0  0  0  0  0  0
    4.3111    1.6387    0.0000 Cl  0  0  0  0  0  0  0  0  0  0  0  0
    4.0140    0.2410    0.0000 C   0  0  0  0  0  0  0  0  0  0  0  0
    3.4620   -0.3721    0.0000 C   0  0  0  0  0  0  0  0  0  0  0  0
    3.7169   -1.1567    0.0000 Cl  0  0  0  0  0  0  0  0  0  0  0  0
    2.6550   -0.2006    0.0000 C   0  0  0  0  0  0  0  0  0  0  0  0
    1.9876   -0.6855    0.0000 O   0  0  0  0  0  0  0  0  0  0  0  0
    1.3202   -0.2006    0.0000 C   0  0  0  0  0  0  0  0  0  0  0  0
    0.5132   -0.3721    0.0000 C   0  0  0  0  0  0  0  0  0  0  0  0
    0.2582   -1.1567    0.0000 Cl  0  0  0  0  0  0  0  0  0  0  0  0
   -0.0389    0.2410    0.0000 C   0  0  0  0  0  0  0  0  0  0  0  0
    0.2161    1.0256    0.0000 C   0  0  0  0  0  0  0  0  0  0  0  0
    1.0231    1.1971    0.0000 C   0  0  0  0  0  0  0  0  0  0  0  0
    1.2780    1.9817    0.0000 Cl  0  0  0  0  0  0  0  0  0  0  0  0
    1.5751    0.5840    0.0000 C   0  0  0  0  0  0  0  0  0  0  0  0
   -0.8458    0.0694    0.0000 Cl  0  0  0  0  0  0  0  0  0  0  0  0
  2  1  1  0  0  0  0
  2  3  1  0  0  0  0
  4  2  2  0  0  0  0
  4  5  1  0  0  0  0
  6  4  1  0  0  0  0
  7  6  2  0  0  0  0
  7  8  1  0  0  0  0
  9  7  1  0  0  0  0
  9  1  2  0  0  0  0
 10  9  1  0  0  0  0
 11 10  1  0  0  0  0
 11 12  1  0  0  0  0
 12 13  1  0  0  0  0
 12 14  2  0  0  0  0
 14 15  1  0  0  0  0
 15 16  2  0  0  0  0
 16 17  1  0  0  0  0
 16 18  1  0  0  0  0
  1 18  1  0  0  0  0
 18 11  2  0  0  0  0
 14 19  1  0  0  0  0
M  END
> <ChemID>
100672

> <CAS>
75627-02-0

> <Original_SMILES>
Clc1cc(Cl)c(Cl)c2c1oc1c2c(Cl)cc(Cl)c1Cl

> <preferred_name>
Dibenzofuran, 1,2,4,6,7,9-hexachloro-

> <dsstox_substance_id>
DTXSID7075268

> <dsstox_compound_id>
DTXCID5047796

> <qc_level>
Public_High

> <Canonical_QSARr>
ClC1=CC(Cl)=C(Cl)C2=C1OC1=C2C(Cl)=CC(Cl)=C1Cl

> <InChI_Code_QSARr>
InChI=1S/C12H2Cl6O/c13-3-1-5(15)10(18)12-7(3)8-9(17)4(14)2-6(16)11(8)19-12/h1-2H

> <InChI Key_QSARr>
FAHIPPHRJJJQOG-UHFFFAOYSA-N

> <Salt_Solvent>


> <Salt_Solvent_ID>
0

> <MPID>
98547

> <LogBCF>
2.96

> <Tr_1_Tst_0>
0

$$$$
100673
  Mrv171c012241911322D          

 19 21  0  0  0  0            999 V2000
    2.0271    0.5840    0.0000 C   0  0  0  0  0  0  0  0  0  0  0  0
    2.5792    1.1971    0.0000 C   0  0  0  0  0  0  0  0  0  0  0  0
    2.3242    1.9817    0.0000 Cl  0  0  0  0  0  0  0  0  0  0  0  0
    3.3861    1.0256    0.0000 C   0  0  0  0  0  0  0  0  0  0  0  0
    3.9382    1.6387    0.0000 Cl  0  0  0  0  0  0  0  0  0  0  0  0
    3.6411    0.2410    0.0000 C   0  0  0  0  0  0  0  0  0  0  0  0
    4.4480    0.0694    0.0000 Cl  0  0  0  0  0  0  0  0  0  0  0  0
    3.0890   -0.3721    0.0000 C   0  0  0  0  0  0  0  0  0  0  0  0
    3.3440   -1.1567    0.0000 Cl  0  0  0  0  0  0  0  0  0  0  0  0
    2.2821   -0.2006    0.0000 C   0  0  0  0  0  0  0  0  0  0  0  0
    1.6146   -0.6855    0.0000 O   0  0  0  0  0  0  0  0  0  0  0  0
    0.9472   -0.2006    0.0000 C   0  0  0  0  0  0  0  0  0  0  0  0
    0.1402   -0.3721    0.0000 C   0  0  0  0  0  0  0  0  0  0  0  0
   -0.1147   -1.1567    0.0000 Cl  0  0  0  0  0  0  0  0  0  0  0  0
   -0.4118    0.2410    0.0000 C   0  0  0  0  0  0  0  0  0  0  0  0
   -0.1569    1.0256    0.0000 C   0  0  0  0  0  0  0  0  0  0  0  0
    0.6501    1.1971    0.0000 C   0  0  0  0  0  0  0  0  0  0  0  0
    1.2021    0.5840    0.0000 C   0  0  0  0  0  0  0  0  0  0  0  0
   -1.2188    0.0694    0.0000 Cl  0  0  0  0  0  0  0  0  0  0  0  0
  2  1  1  0  0  0  0
  2  3  1  0  0  0  0
  4  2  2  0  0  0  0
  4  5  1  0  0  0  0
  6  4  1  0  0  0  0
  6  7  1  0  0  0  0
  8  6  2  0  0  0  0
  8  9  1  0  0  0  0
 10  8  1  0  0  0  0
 10  1  2  0  0  0  0
 11 10  1  0  0  0  0
 12 11  1  0  0  0  0
 12 13  1  0  0  0  0
 13 14  1  0  0  0  0
 13 15  2  0  0  0  0
 15 16  1  0  0  0  0
 16 17  2  0  0  0  0
 17 18  1  0  0  0  0
  1 18  1  0  0  0  0
 18 12  2  0  0  0  0
 15 19  1  0  0  0  0
M  END
> <ChemID>
100673

> <CAS>
79060-60-9

> <Original_SMILES>
Clc1ccc2c(oc3c2c(Cl)c(Cl)c(Cl)c3Cl)c1Cl

> <preferred_name>
Dibenzofuran, 1,2,3,4,6,7-hexachloro-

> <dsstox_substance_id>
DTXSID1075270

> <dsstox_compound_id>
DTXCID4048145

> <qc_level>
Public_High

> <Canonical_QSARr>
ClC1C=CC2=C(OC3=C2C(Cl)=C(Cl)C(Cl)=C3Cl)C=1Cl

> <InChI_Code_QSARr>
InChI=1S/C12H2Cl6O/c13-4-2-1-3-5-7(15)8(16)9(17)10(18)12(5)19-11(3)6(4)14/h1-2H

> <InChI Key_QSARr>
SNWFMKXFMVHBKD-UHFFFAOYSA-N

> <Salt_Solvent>


> <Salt_Solvent_ID>
0

> <MPID>
98548

> <LogBCF>
2.78

> <Tr_1_Tst_0>
1

$$$$
100675
  Mrv171c012241911322D          

 19 21  0  0  0  0            999 V2000
    2.4089    0.5840    0.0000 C   0  0  0  0  0  0  0  0  0  0  0  0
    2.9610    1.1971    0.0000 C   0  0  0  0  0  0  0  0  0  0  0  0
    2.7060    1.9817    0.0000 Cl  0  0  0  0  0  0  0  0  0  0  0  0
    3.7679    1.0256    0.0000 C   0  0  0  0  0  0  0  0  0  0  0  0
    4.0229    0.2410    0.0000 C   0  0  0  0  0  0  0  0  0  0  0  0
    4.8299    0.0694    0.0000 Cl  0  0  0  0  0  0  0  0  0  0  0  0
    3.4709   -0.3721    0.0000 C   0  0  0  0  0  0  0  0  0  0  0  0
    3.7258   -1.1568    0.0000 Cl  0  0  0  0  0  0  0  0  0  0  0  0
    2.6639   -0.2006    0.0000 C   0  0  0  0  0  0  0  0  0  0  0  0
    1.9964   -0.6855    0.0000 O   0  0  0  0  0  0  0  0  0  0  0  0
    1.3290   -0.2006    0.0000 C   0  0  0  0  0  0  0  0  0  0  0  0
    0.5220   -0.3721    0.0000 C   0  0  0  0  0  0  0  0  0  0  0  0
   -0.0300    0.2410    0.0000 C   0  0  0  0  0  0  0  0  0  0  0  0
    0.2249    1.0256    0.0000 C   0  0  0  0  0  0  0  0  0  0  0  0
   -0.3271    1.6387    0.0000 Cl  0  0  0  0  0  0  0  0  0  0  0  0
    1.0319    1.1971    0.0000 C   0  0  0  0  0  0  0  0  0  0  0  0
    1.2868    1.9817    0.0000 Cl  0  0  0  0  0  0  0  0  0  0  0  0
    1.5839    0.5840    0.0000 C   0  0  0  0  0  0  0  0  0  0  0  0
   -0.8370    0.0694    0.0000 Cl  0  0  0  0  0  0  0  0  0  0  0  0
  2  1  1  0  0  0  0
  2  3  1  0  0  0  0
  4  2  2  0  0  0  0
  5  4  1  0  0  0  0
  5  6  1  0  0  0  0
  7  5  2  0  0  0  0
  7  8  1  0  0  0  0
  9  7  1  0  0  0  0
  9  1  2  0  0  0  0
 10  9  1  0  0  0  0
 11 10  1  0  0  0  0
 11 12  1  0  0  0  0
 12 13  2  0  0  0  0
 13 14  1  0  0  0  0
 14 15  1  0  0  0  0
 14 16  2  0  0  0  0
 16 17  1  0  0  0  0
 16 18  1  0  0  0  0
  1 18  1  0  0  0  0
 18 11  2  0  0  0  0
 13 19  1  0  0  0  0
M  END
> <ChemID>
100675

> <CAS>
92341-06-5

> <Original_SMILES>
Clc1cc2oc3c(c2c(Cl)c1Cl)c(Cl)cc(Cl)c3Cl

> <preferred_name>
Dibenzofuran, 1,2,3,6,7,9-hexachloro-

> <dsstox_substance_id>
DTXSID6075275

> <dsstox_compound_id>
DTXCID7048792

> <qc_level>
Public_High

> <Canonical_QSARr>
ClC1C=C(Cl)C2=C(OC3C=C(Cl)C(Cl)=C(Cl)C=32)C=1Cl

> <InChI_Code_QSARr>
InChI=1S/C12H2Cl6O/c13-3-1-4(14)10(17)12-7(3)8-6(19-12)2-5(15)9(16)11(8)18/h1-2H

> <InChI Key_QSARr>
JZVOLXQREJNTTL-UHFFFAOYSA-N

> <Salt_Solvent>


> <Salt_Solvent_ID>
0

> <MPID>
98549

> <LogBCF>
3.2

> <Tr_1_Tst_0>
1

$$$$
100676
  Mrv171c012241911322D          

 23 24  0  0  0  0            999 V2000
    4.7694    0.6164    0.0000 N   0  0  0  0  0  0  0  0  0  0  0  0
    4.1019    1.1014    0.0000 C   0  0  0  0  0  0  0  0  0  0  0  0
    4.1019    1.9264    0.0000 C   0  0  0  0  0  0  0  0  0  0  0  0
    4.8164    2.3389    0.0000 C   0  0  0  0  0  0  0  0  0  0  0  0
    3.4345    0.6164    0.0000 C   0  0  0  0  0  0  0  0  0  0  0  0
    2.6499    0.8714    0.0000 Cl  0  0  0  0  0  0  0  0  0  0  0  0
    3.6894   -0.1682    0.0000 C   0  0  0  0  0  0  0  0  0  0  0  0
    3.2045   -0.8356    0.0000 C   0  0  0  0  0  0  0  0  0  0  0  0
    3.5401   -1.5893    0.0000 N   0  0  0  0  0  0  0  0  0  0  0  0
    3.0551   -2.2567    0.0000 C   0  0  0  0  0  0  0  0  0  0  0  0
    3.3907   -3.0104    0.0000 C   0  0  0  0  0  0  0  0  0  0  0  0
    2.9058   -3.6778    0.0000 C   0  0  0  0  0  0  0  0  0  0  0  0
    3.2413   -4.4315    0.0000 C   0  0  0  0  0  0  0  0  0  0  0  0
    4.0618   -4.5178    0.0000 C   0  0  0  0  0  0  0  0  0  0  0  0
    4.3974   -5.2714    0.0000 C   0  0  0  0  0  0  0  0  0  0  0  0
    4.7329   -6.0251    0.0000 C   0  0  0  0  0  0  0  0  0  0  0  0
    3.6437   -5.6070    0.0000 C   0  0  0  0  0  0  0  0  0  0  0  0
    5.1510   -4.9359    0.0000 C   0  0  0  0  0  0  0  0  0  0  0  0
    4.5467   -3.8503    0.0000 C   0  0  0  0  0  0  0  0  0  0  0  0
    4.2112   -3.0966    0.0000 C   0  0  0  0  0  0  0  0  0  0  0  0
    2.3840   -0.7494    0.0000 O   0  0  0  0  0  0  0  0  0  0  0  0
    4.5144   -0.1682    0.0000 N   0  0  0  0  0  0  0  0  0  0  0  0
    4.9994   -0.8356    0.0000 C   0  0  0  0  0  0  0  0  0  0  0  0
  2  1  2  0  0  0  0
  2  3  1  0  0  0  0
  3  4  1  0  0  0  0
  5  2  1  0  0  0  0
  5  6  1  0  0  0  0
  7  5  2  0  0  0  0
  7  8  1  0  0  0  0
  8  9  1  0  0  0  0
  9 10  1  0  0  0  0
 10 11  1  0  0  0  0
 12 11  1  0  0  0  0
 13 12  2  0  0  0  0
 14 13  1  0  0  0  0
 14 15  1  0  0  0  0
 15 16  1  0  0  0  0
 15 17  1  0  0  0  0
 15 18  1  0  0  0  0
 19 14  2  0  0  0  0
 20 19  1  0  0  0  0
 11 20  2  0  0  0  0
  8 21  2  0  0  0  0
 22  7  1  0  0  0  0
  1 22  1  0  0  0  0
 22 23  1  0  0  0  0
M  END
> <ChemID>
100676

> <CAS>
119168-77-3

> <Original_SMILES>
CCc1[n][n](C)c(C(=O)NCc2ccc(cc2)C(C)(C)C)c1Cl

> <preferred_name>
Tebufenpyrad

> <dsstox_substance_id>
DTXSID0034223

> <dsstox_compound_id>
DTXCID8014223

> <qc_level>
DSSTox_Low

> <Canonical_QSARr>
CCC1=NN(C)C(C(=O)NCC2C=CC(=CC=2)C(C)(C)C)=C1Cl

> <InChI_Code_QSARr>
InChI=1S/C18H24ClN3O/c1-6-14-15(19)16(22(5)21-14)17(23)20-11-12-7-9-13(10-8-12)18(2,3)4/h7-10H,6,11H2,1-5H3,(H,20,23)

> <InChI Key_QSARr>
ZZYSLNWGKKDOML-UHFFFAOYSA-N

> <Salt_Solvent>


> <Salt_Solvent_ID>
0

> <MPID>
98550

> <LogBCF>
1.15

> <Tr_1_Tst_0>
1

$$$$
200703
  Mrv171c012241911322D          

 22 23  0  0  0  0            999 V2000
   -0.0553    0.2062    0.0000 C   0  0  0  0  0  0  0  0  0  0  0  0
   -0.7697   -0.2062    0.0000 C   0  0  0  0  0  0  0  0  0  0  0  0
   -1.4842    0.2063    0.0000 C   0  0  0  0  0  0  0  0  0  0  0  0
   -1.4842    1.0313    0.0000 Br  0  0  0  0  0  0  0  0  0  0  0  0
   -2.1987   -0.2062    0.0000 C   0  0  0  0  0  0  0  0  0  0  0  0
   -2.9132    0.2063    0.0000 Br  0  0  0  0  0  0  0  0  0  0  0  0
   -2.1987   -1.0312    0.0000 C   0  0  0  0  0  0  0  0  0  0  0  0
   -2.9132   -1.4437    0.0000 Br  0  0  0  0  0  0  0  0  0  0  0  0
   -1.4842   -1.4437    0.0000 C   0  0  0  0  0  0  0  0  0  0  0  0
   -1.4842   -2.2687    0.0000 Br  0  0  0  0  0  0  0  0  0  0  0  0
   -0.7697   -1.0312    0.0000 C   0  0  0  0  0  0  0  0  0  0  0  0
   -0.0553   -1.4438    0.0000 Br  0  0  0  0  0  0  0  0  0  0  0  0
    0.6592   -0.2063    0.0000 C   0  0  0  0  0  0  0  0  0  0  0  0
    0.6592   -1.0313    0.0000 Br  0  0  0  0  0  0  0  0  0  0  0  0
    1.3737    0.2062    0.0000 C   0  0  0  0  0  0  0  0  0  0  0  0
    2.0881   -0.2063    0.0000 Br  0  0  0  0  0  0  0  0  0  0  0  0
    1.3737    1.0312    0.0000 C   0  0  0  0  0  0  0  0  0  0  0  0
    2.0881    1.4437    0.0000 Br  0  0  0  0  0  0  0  0  0  0  0  0
    0.6592    1.4437    0.0000 C   0  0  0  0  0  0  0  0  0  0  0  0
    0.6592    2.2687    0.0000 Br  0  0  0  0  0  0  0  0  0  0  0  0
   -0.0553    1.0312    0.0000 C   0  0  0  0  0  0  0  0  0  0  0  0
   -0.7697    1.4438    0.0000 Br  0  0  0  0  0  0  0  0  0  0  0  0
  1  2  1  0  0  0  0
  3  2  2  0  0  0  0
  3  4  1  0  0  0  0
  5  3  1  0  0  0  0
  5  6  1  0  0  0  0
  7  5  2  0  0  0  0
  7  8  1  0  0  0  0
  9  7  1  0  0  0  0
  9 10  1  0  0  0  0
 11  9  2  0  0  0  0
  2 11  1  0  0  0  0
 11 12  1  0  0  0  0
 13  1  2  0  0  0  0
 13 14  1  0  0  0  0
 15 13  1  0  0  0  0
 15 16  1  0  0  0  0
 17 15  2  0  0  0  0
 17 18  1  0  0  0  0
 19 17  1  0  0  0  0
 19 20  1  0  0  0  0
 21 19  2  0  0  0  0
  1 21  1  0  0  0  0
 21 22  1  0  0  0  0
M  END
> <ChemID>
200703

> <CAS>
13654-09-6

> <Original_SMILES>
Brc1c(-c2c(Br)c(Br)c(Br)c(Br)c2Br)c(Br)c(Br)c(Br)c1Br

> <preferred_name>
1,1'-Biphenyl, 2,2',3,3',4,4',5,5',6,6'-decabromo-

> <dsstox_substance_id>
DTXSID9065572

> <dsstox_compound_id>
DTXCID8034372

> <qc_level>


> <Canonical_QSARr>
BrC1C(C2=C(Br)C(Br)=C(Br)C(Br)=C2Br)=C(Br)C(Br)=C(Br)C=1Br

> <InChI_Code_QSARr>
InChI=1S/C12Br10/c13-3-1(4(14)8(18)11(21)7(3)17)2-5(15)9(19)12(22)10(20)6(2)16

> <InChI Key_QSARr>
AQPHBYQUCKHJLT-UHFFFAOYSA-N

> <Salt_Solvent>


> <Salt_Solvent_ID>
0

> <MPID>
98551

> <LogBCF>
5.19

> <Tr_1_Tst_0>
1

$$$$
200705
  Mrv171c012241911322D          

 22 23  0  0  0  0            999 V2000
    0.6443   -1.1102    0.0000 C   0  0  0  0  0  0  0  0  0  0  0  0
   -0.0702   -0.6977    0.0000 C   0  0  0  0  0  0  0  0  0  0  0  0
   -0.0702    0.1273    0.0000 Br  0  0  0  0  0  0  0  0  0  0  0  0
   -0.7846   -1.1102    0.0000 C   0  0  0  0  0  0  0  0  0  0  0  0
   -1.4991   -0.6977    0.0000 Br  0  0  0  0  0  0  0  0  0  0  0  0
   -0.7846   -1.9352    0.0000 C   0  0  0  0  0  0  0  0  0  0  0  0
   -1.4991   -2.3477    0.0000 Br  0  0  0  0  0  0  0  0  0  0  0  0
   -0.0702   -2.3477    0.0000 C   0  0  0  0  0  0  0  0  0  0  0  0
   -0.0702   -3.1727    0.0000 Br  0  0  0  0  0  0  0  0  0  0  0  0
    0.6443   -1.9352    0.0000 C   0  0  0  0  0  0  0  0  0  0  0  0
    1.3588   -2.3477    0.0000 Br  0  0  0  0  0  0  0  0  0  0  0  0
    1.3588   -0.6977    0.0000 O   0  0  0  0  0  0  0  0  0  0  0  0
    1.3588    0.1273    0.0000 C   0  0  0  0  0  0  0  0  0  0  0  0
    2.0732    0.5398    0.0000 C   0  0  0  0  0  0  0  0  0  0  0  0
    2.7877    0.1273    0.0000 Br  0  0  0  0  0  0  0  0  0  0  0  0
    2.0732    1.3648    0.0000 C   0  0  0  0  0  0  0  0  0  0  0  0
    2.7877    1.7773    0.0000 Br  0  0  0  0  0  0  0  0  0  0  0  0
    1.3588    1.7773    0.0000 C   0  0  0  0  0  0  0  0  0  0  0  0
    0.6443    1.3648    0.0000 C   0  0  0  0  0  0  0  0  0  0  0  0
   -0.0702    1.7773    0.0000 Br  0  0  0  0  0  0  0  0  0  0  0  0
    0.6443    0.5398    0.0000 C   0  0  0  0  0  0  0  0  0  0  0  0
   -0.1762    0.6261    0.0000 Br  0  0  0  0  0  0  0  0  0  0  0  0
  2  1  2  0  0  0  0
  2  3  1  0  0  0  0
  4  2  1  0  0  0  0
  4  5  1  0  0  0  0
  6  4  2  0  0  0  0
  6  7  1  0  0  0  0
  8  6  1  0  0  0  0
  8  9  1  0  0  0  0
 10  8  2  0  0  0  0
  1 10  1  0  0  0  0
 10 11  1  0  0  0  0
  1 12  1  0  0  0  0
 12 13  1  0  0  0  0
 14 13  2  0  0  0  0
 14 15  1  0  0  0  0
 16 14  1  0  0  0  0
 16 17  1  0  0  0  0
 18 16  2  0  0  0  0
 19 18  1  0  0  0  0
 19 20  1  0  0  0  0
 21 19  2  0  0  0  0
 13 21  1  0  0  0  0
 21 22  1  0  0  0  0
M  END
> <ChemID>
200705

> <CAS>
437701-78-5

> <Original_SMILES>
Brc1c(Oc2c(Br)c(Br)c(Br)c(Br)c2Br)c(Br)c(Br)cc1Br

> <preferred_name>
1,2,3,4,5-Pentabromo-6-(2,3,5,6-tetrabromophenoxy)benzene

> <dsstox_substance_id>
DTXSID40556652

> <dsstox_compound_id>
DTXCID10507434

> <qc_level>


> <Canonical_QSARr>
BrC1=CC(Br)=C(Br)C(OC2=C(Br)C(Br)=C(Br)C(Br)=C2Br)=C1Br

> <InChI_Code_QSARr>
InChI=1S/C12HBr9O/c13-2-1-3(14)5(16)11(4(2)15)22-12-9(20)7(18)6(17)8(19)10(12)21/h1H

> <InChI Key_QSARr>
ASGZXYIDLFWXID-UHFFFAOYSA-N

> <Salt_Solvent>


> <Salt_Solvent_ID>
0

> <MPID>
98552

> <LogBCF>
5.57

> <Tr_1_Tst_0>
0

$$$$
200706
  Mrv171c012241911322D          

 22 23  0  0  0  0            999 V2000
    0.6443   -1.1101    0.0000 C   0  0  0  0  0  0  0  0  0  0  0  0
   -0.0702   -0.6976    0.0000 C   0  0  0  0  0  0  0  0  0  0  0  0
   -0.0702    0.1274    0.0000 Br  0  0  0  0  0  0  0  0  0  0  0  0
   -0.7846   -1.1101    0.0000 C   0  0  0  0  0  0  0  0  0  0  0  0
   -1.4991   -0.6976    0.0000 Br  0  0  0  0  0  0  0  0  0  0  0  0
   -0.7846   -1.9351    0.0000 C   0  0  0  0  0  0  0  0  0  0  0  0
   -1.4991   -2.3476    0.0000 Br  0  0  0  0  0  0  0  0  0  0  0  0
   -0.0702   -2.3476    0.0000 C   0  0  0  0  0  0  0  0  0  0  0  0
   -0.0702   -3.1726    0.0000 Br  0  0  0  0  0  0  0  0  0  0  0  0
    0.6443   -1.9351    0.0000 C   0  0  0  0  0  0  0  0  0  0  0  0
    1.3588   -2.3476    0.0000 Br  0  0  0  0  0  0  0  0  0  0  0  0
    1.3588   -0.6976    0.0000 O   0  0  0  0  0  0  0  0  0  0  0  0
    1.3588    0.1274    0.0000 C   0  0  0  0  0  0  0  0  0  0  0  0
    2.0732    0.5399    0.0000 C   0  0  0  0  0  0  0  0  0  0  0  0
    2.7877    0.1274    0.0000 Br  0  0  0  0  0  0  0  0  0  0  0  0
    2.0732    1.3649    0.0000 C   0  0  0  0  0  0  0  0  0  0  0  0
    2.7877    1.7774    0.0000 Br  0  0  0  0  0  0  0  0  0  0  0  0
    1.3588    1.7774    0.0000 C   0  0  0  0  0  0  0  0  0  0  0  0
    1.3588    2.6024    0.0000 Br  0  0  0  0  0  0  0  0  0  0  0  0
    0.6443    1.3649    0.0000 C   0  0  0  0  0  0  0  0  0  0  0  0
    0.6443    0.5399    0.0000 C   0  0  0  0  0  0  0  0  0  0  0  0
   -0.1762    0.6261    0.0000 Br  0  0  0  0  0  0  0  0  0  0  0  0
  2  1  2  0  0  0  0
  2  3  1  0  0  0  0
  4  2  1  0  0  0  0
  4  5  1  0  0  0  0
  6  4  2  0  0  0  0
  6  7  1  0  0  0  0
  8  6  1  0  0  0  0
  8  9  1  0  0  0  0
 10  8  2  0  0  0  0
  1 10  1  0  0  0  0
 10 11  1  0  0  0  0
  1 12  1  0  0  0  0
 12 13  1  0  0  0  0
 14 13  2  0  0  0  0
 14 15  1  0  0  0  0
 16 14  1  0  0  0  0
 16 17  1  0  0  0  0
 18 16  2  0  0  0  0
 18 19  1  0  0  0  0
 20 18  1  0  0  0  0
 21 20  2  0  0  0  0
 13 21  1  0  0  0  0
 21 22  1  0  0  0  0
M  END
> <ChemID>
200706

> <CAS>
437701-79-6

> <Original_SMILES>
Brc1cc(Br)c(Br)c(Br)c1Oc1c(Br)c(Br)c(Br)c(Br)c1Br

> <preferred_name>
BDE No 207 solution

> <dsstox_substance_id>
DTXSID30451985

> <dsstox_compound_id>
DTXCID60402804

> <qc_level>


> <Canonical_QSARr>
BrC1=CC(Br)=C(Br)C(Br)=C1OC1C(Br)=C(Br)C(Br)=C(Br)C=1Br

> <InChI_Code_QSARr>
InChI=1S/C12HBr9O/c13-2-1-3(14)11(8(19)4(2)15)22-12-9(20)6(17)5(16)7(18)10(12)21/h1H

> <InChI Key_QSARr>
IEEVDIAVLGLVOW-UHFFFAOYSA-N

> <Salt_Solvent>


> <Salt_Solvent_ID>
0

> <MPID>
98553

> <LogBCF>
5.75

> <Tr_1_Tst_0>
1

$$$$
200707
  Mrv171c012241911322D          

 21 22  0  0  0  0            999 V2000
    0.6515   -1.0753    0.0000 C   0  0  0  0  0  0  0  0  0  0  0  0
   -0.0630   -0.6628    0.0000 C   0  0  0  0  0  0  0  0  0  0  0  0
   -0.0630    0.1622    0.0000 Br  0  0  0  0  0  0  0  0  0  0  0  0
   -0.7775   -1.0753    0.0000 C   0  0  0  0  0  0  0  0  0  0  0  0
   -0.7775   -1.9003    0.0000 C   0  0  0  0  0  0  0  0  0  0  0  0
   -1.4919   -2.3128    0.0000 Br  0  0  0  0  0  0  0  0  0  0  0  0
   -0.0630   -2.3128    0.0000 C   0  0  0  0  0  0  0  0  0  0  0  0
   -0.0630   -3.1378    0.0000 Br  0  0  0  0  0  0  0  0  0  0  0  0
    0.6515   -1.9003    0.0000 C   0  0  0  0  0  0  0  0  0  0  0  0
    1.3660   -2.3128    0.0000 Br  0  0  0  0  0  0  0  0  0  0  0  0
    1.3660   -0.6628    0.0000 O   0  0  0  0  0  0  0  0  0  0  0  0
    1.3660    0.1622    0.0000 C   0  0  0  0  0  0  0  0  0  0  0  0
    2.0804    0.5747    0.0000 C   0  0  0  0  0  0  0  0  0  0  0  0
    2.7949    0.1622    0.0000 Br  0  0  0  0  0  0  0  0  0  0  0  0
    2.0804    1.3997    0.0000 C   0  0  0  0  0  0  0  0  0  0  0  0
    2.7949    1.8122    0.0000 Br  0  0  0  0  0  0  0  0  0  0  0  0
    1.3660    1.8122    0.0000 C   0  0  0  0  0  0  0  0  0  0  0  0
    1.3660    2.6372    0.0000 Br  0  0  0  0  0  0  0  0  0  0  0  0
    0.6515    1.3997    0.0000 C   0  0  0  0  0  0  0  0  0  0  0  0
    0.6515    0.5747    0.0000 C   0  0  0  0  0  0  0  0  0  0  0  0
   -0.1690    0.6609    0.0000 Br  0  0  0  0  0  0  0  0  0  0  0  0
  2  1  2  0  0  0  0
  2  3  1  0  0  0  0
  4  2  1  0  0  0  0
  5  4  2  0  0  0  0
  5  6  1  0  0  0  0
  7  5  1  0  0  0  0
  7  8  1  0  0  0  0
  9  7  2  0  0  0  0
  1  9  1  0  0  0  0
  9 10  1  0  0  0  0
  1 11  1  0  0  0  0
 11 12  1  0  0  0  0
 13 12  2  0  0  0  0
 13 14  1  0  0  0  0
 15 13  1  0  0  0  0
 15 16  1  0  0  0  0
 17 15  2  0  0  0  0
 17 18  1  0  0  0  0
 19 17  1  0  0  0  0
 20 19  2  0  0  0  0
 12 20  1  0  0  0  0
 20 21  1  0  0  0  0
M  END
> <ChemID>
200707

> <CAS>
117964-21-3

> <Original_SMILES>
Brc1cc(Br)c(Br)c(Br)c1Oc1c(Br)c(Br)c(Br)cc1Br

> <preferred_name>
PBDE 197

> <dsstox_substance_id>
DTXSID9074775

> <dsstox_compound_id>
DTXCID4033423

> <qc_level>


> <Canonical_QSARr>
BrC1C(OC2=C(Br)C(Br)=C(Br)C=C2Br)=C(Br)C=C(Br)C=1Br

> <InChI_Code_QSARr>
InChI=1S/C12H2Br8O/c13-3-1-5(15)11(9(19)7(3)17)21-12-6(16)2-4(14)8(18)10(12)20/h1-2H

> <InChI Key_QSARr>
AAFUUKPTSPVXJH-UHFFFAOYSA-N

> <Salt_Solvent>


> <Salt_Solvent_ID>
0

> <MPID>
98554

> <LogBCF>
5.3

> <Tr_1_Tst_0>
1

$$$$
200708
  Mrv171c012241911322D          

 19 20  0  0  0  0            999 V2000
   -0.0058   -0.8901    0.0000 C   0  0  0  0  0  0  0  0  0  0  0  0
   -0.0058   -0.0651    0.0000 C   0  0  0  0  0  0  0  0  0  0  0  0
   -0.7203    0.3474    0.0000 C   0  0  0  0  0  0  0  0  0  0  0  0
   -0.7203    1.1724    0.0000 Br  0  0  0  0  0  0  0  0  0  0  0  0
   -1.4347   -0.0651    0.0000 C   0  0  0  0  0  0  0  0  0  0  0  0
   -2.1492    0.3474    0.0000 Br  0  0  0  0  0  0  0  0  0  0  0  0
   -1.4347   -0.8901    0.0000 C   0  0  0  0  0  0  0  0  0  0  0  0
   -0.7203   -1.3026    0.0000 C   0  0  0  0  0  0  0  0  0  0  0  0
   -0.7203   -2.1276    0.0000 Br  0  0  0  0  0  0  0  0  0  0  0  0
    0.7087   -1.3026    0.0000 O   0  0  0  0  0  0  0  0  0  0  0  0
    1.4231   -0.8901    0.0000 C   0  0  0  0  0  0  0  0  0  0  0  0
    2.1376   -1.3026    0.0000 C   0  0  0  0  0  0  0  0  0  0  0  0
    2.1376   -2.1276    0.0000 Br  0  0  0  0  0  0  0  0  0  0  0  0
    2.8521   -0.8901    0.0000 C   0  0  0  0  0  0  0  0  0  0  0  0
    2.8521   -0.0651    0.0000 C   0  0  0  0  0  0  0  0  0  0  0  0
    3.5666    0.3474    0.0000 Br  0  0  0  0  0  0  0  0  0  0  0  0
    2.1376    0.3474    0.0000 C   0  0  0  0  0  0  0  0  0  0  0  0
    2.1376    1.1724    0.0000 Br  0  0  0  0  0  0  0  0  0  0  0  0
    1.4231   -0.0651    0.0000 C   0  0  0  0  0  0  0  0  0  0  0  0
  2  1  2  0  0  0  0
  3  2  1  0  0  0  0
  3  4  1  0  0  0  0
  5  3  2  0  0  0  0
  5  6  1  0  0  0  0
  7  5  1  0  0  0  0
  8  7  2  0  0  0  0
  1  8  1  0  0  0  0
  8  9  1  0  0  0  0
  1 10  1  0  0  0  0
 10 11  1  0  0  0  0
 12 11  2  0  0  0  0
 12 13  1  0  0  0  0
 14 12  1  0  0  0  0
 15 14  2  0  0  0  0
 15 16  1  0  0  0  0
 17 15  1  0  0  0  0
 17 18  1  0  0  0  0
 19 17  2  0  0  0  0
 11 19  1  0  0  0  0
M  END
> <ChemID>
200708

> <CAS>
68631-49-2

> <Original_SMILES>
Brc1cc(Br)c(Br)cc1Oc1cc(Br)c(Br)cc1Br

> <preferred_name>
2,2',4,4',5,5'-Hexabromodiphenyl ether

> <dsstox_substance_id>
DTXSID4030047

> <dsstox_compound_id>
DTXCID2010047

> <qc_level>


> <Canonical_QSARr>
BrC1=CC(Br)=C(C=C1Br)OC1=CC(Br)=C(Br)C=C1Br

> <InChI_Code_QSARr>
InChI=1S/C12H4Br6O/c13-5-1-9(17)11(3-7(5)15)19-12-4-8(16)6(14)2-10(12)18/h1-4H

> <InChI Key_QSARr>
RZXIRSKYBISPGF-UHFFFAOYSA-N

> <Salt_Solvent>


> <Salt_Solvent_ID>
0

> <MPID>
98555

> <LogBCF>
6.13

> <Tr_1_Tst_0>
1

$$$$
200709
  Mrv171c012241911322D          

 21 22  0  0  0  0            999 V2000
    0.6017   -1.0255    0.0000 C   0  0  0  0  0  0  0  0  0  0  0  0
   -0.1128   -0.6130    0.0000 C   0  0  0  0  0  0  0  0  0  0  0  0
   -0.1128    0.2120    0.0000 Br  0  0  0  0  0  0  0  0  0  0  0  0
   -0.8273   -1.0255    0.0000 C   0  0  0  0  0  0  0  0  0  0  0  0
   -1.5417   -0.6130    0.0000 Br  0  0  0  0  0  0  0  0  0  0  0  0
   -0.8273   -1.8505    0.0000 C   0  0  0  0  0  0  0  0  0  0  0  0
   -1.5417   -2.2630    0.0000 Br  0  0  0  0  0  0  0  0  0  0  0  0
   -0.1128   -2.2630    0.0000 C   0  0  0  0  0  0  0  0  0  0  0  0
   -0.1128   -3.0880    0.0000 Br  0  0  0  0  0  0  0  0  0  0  0  0
    0.6017   -1.8505    0.0000 C   0  0  0  0  0  0  0  0  0  0  0  0
    1.3161   -2.2630    0.0000 Br  0  0  0  0  0  0  0  0  0  0  0  0
    1.3161   -0.6130    0.0000 O   0  0  0  0  0  0  0  0  0  0  0  0
    1.3161    0.2120    0.0000 C   0  0  0  0  0  0  0  0  0  0  0  0
    2.0306    0.6245    0.0000 C   0  0  0  0  0  0  0  0  0  0  0  0
    2.7451    0.2120    0.0000 Br  0  0  0  0  0  0  0  0  0  0  0  0
    2.0306    1.4495    0.0000 C   0  0  0  0  0  0  0  0  0  0  0  0
    1.3161    1.8620    0.0000 C   0  0  0  0  0  0  0  0  0  0  0  0
    1.3161    2.6870    0.0000 Br  0  0  0  0  0  0  0  0  0  0  0  0
    0.6017    1.4495    0.0000 C   0  0  0  0  0  0  0  0  0  0  0  0
    0.6017    0.6245    0.0000 C   0  0  0  0  0  0  0  0  0  0  0  0
   -0.2188    0.7107    0.0000 Br  0  0  0  0  0  0  0  0  0  0  0  0
  2  1  2  0  0  0  0
  2  3  1  0  0  0  0
  4  2  1  0  0  0  0
  4  5  1  0  0  0  0
  6  4  2  0  0  0  0
  6  7  1  0  0  0  0
  8  6  1  0  0  0  0
  8  9  1  0  0  0  0
 10  8  2  0  0  0  0
  1 10  1  0  0  0  0
 10 11  1  0  0  0  0
  1 12  1  0  0  0  0
 12 13  1  0  0  0  0
 14 13  2  0  0  0  0
 14 15  1  0  0  0  0
 16 14  1  0  0  0  0
 17 16  2  0  0  0  0
 17 18  1  0  0  0  0
 19 17  1  0  0  0  0
 20 19  2  0  0  0  0
 13 20  1  0  0  0  0
 20 21  1  0  0  0  0
M  END
> <ChemID>
200709

> <CAS>
446255-54-5

> <Original_SMILES>
Brc1cc(Br)c(Oc2c(Br)c(Br)c(Br)c(Br)c2Br)c(Br)c1

> <preferred_name>


> <dsstox_substance_id>
DTXSID00196255

> <dsstox_compound_id>
DTXCID10118746

> <qc_level>


> <Canonical_QSARr>
BrC1C=C(Br)C=C(Br)C=1OC1C(Br)=C(Br)C(Br)=C(Br)C=1Br

> <InChI_Code_QSARr>
InChI=1S/C12H2Br8O/c13-3-1-4(14)11(5(15)2-3)21-12-9(19)7(17)6(16)8(18)10(12)20/h1-2H

> <InChI Key_QSARr>
YZABCBOJTHQTSX-UHFFFAOYSA-N

> <Salt_Solvent>


> <Salt_Solvent_ID>
0

> <MPID>
98556|98557|98566|98567

> <LogBCF>
5.715

> <Tr_1_Tst_0>
0

$$$$
200710
  Mrv171c012241911322D          

 18 19  0  0  0  0            999 V2000
    0.0336    0.0336    0.0000 C   0  0  0  0  0  0  0  0  0  0  0  0
    0.7480    0.4461    0.0000 C   0  0  0  0  0  0  0  0  0  0  0  0
    0.7480    1.2711    0.0000 C   0  0  0  0  0  0  0  0  0  0  0  0
    0.0336    1.6836    0.0000 C   0  0  0  0  0  0  0  0  0  0  0  0
    0.0336    2.5086    0.0000 Br  0  0  0  0  0  0  0  0  0  0  0  0
   -0.6809    1.2711    0.0000 C   0  0  0  0  0  0  0  0  0  0  0  0
   -1.3954    1.6836    0.0000 Br  0  0  0  0  0  0  0  0  0  0  0  0
   -0.6809    0.4461    0.0000 C   0  0  0  0  0  0  0  0  0  0  0  0
    0.0336   -0.7914    0.0000 O   0  0  0  0  0  0  0  0  0  0  0  0
    0.7480   -1.2039    0.0000 C   0  0  0  0  0  0  0  0  0  0  0  0
    0.7480   -2.0289    0.0000 C   0  0  0  0  0  0  0  0  0  0  0  0
    0.0336   -2.4414    0.0000 Br  0  0  0  0  0  0  0  0  0  0  0  0
    1.4625   -2.4414    0.0000 C   0  0  0  0  0  0  0  0  0  0  0  0
    2.1770   -2.0289    0.0000 C   0  0  0  0  0  0  0  0  0  0  0  0
    2.8914   -2.4414    0.0000 Br  0  0  0  0  0  0  0  0  0  0  0  0
    2.1770   -1.2039    0.0000 C   0  0  0  0  0  0  0  0  0  0  0  0
    1.4625   -0.7914    0.0000 C   0  0  0  0  0  0  0  0  0  0  0  0
    1.4625    0.0336    0.0000 Br  0  0  0  0  0  0  0  0  0  0  0  0
  2  1  2  0  0  0  0
  3  2  1  0  0  0  0
  4  3  2  0  0  0  0
  4  5  1  0  0  0  0
  6  4  1  0  0  0  0
  6  7  1  0  0  0  0
  8  6  2  0  0  0  0
  1  8  1  0  0  0  0
  1  9  1  0  0  0  0
  9 10  1  0  0  0  0
 11 10  2  0  0  0  0
 11 12  1  0  0  0  0
 13 11  1  0  0  0  0
 14 13  2  0  0  0  0
 14 15  1  0  0  0  0
 16 14  1  0  0  0  0
 17 16  2  0  0  0  0
 10 17  1  0  0  0  0
 17 18  1  0  0  0  0
M  END
> <ChemID>
200710

> <CAS>
189084-66-0

> <Original_SMILES>
Brc1cc(Br)c(Oc2cc(Br)c(Br)cc2)c(Br)c1

> <preferred_name>


> <dsstox_substance_id>
DTXSID50873928

> <dsstox_compound_id>
DTXCID401012113

> <qc_level>


> <Canonical_QSARr>
BrC1C=C(Br)C=C(Br)C=1OC1C=C(Br)C(Br)=CC=1

> <InChI_Code_QSARr>
InChI=1S/C12H5Br5O/c13-6-3-10(16)12(11(17)4-6)18-7-1-2-8(14)9(15)5-7/h1-5H

> <InChI Key_QSARr>
KXEOYBYEJCRPGB-UHFFFAOYSA-N

> <Salt_Solvent>


> <Salt_Solvent_ID>
0

> <MPID>
98558

> <LogBCF>
6.29

> <Tr_1_Tst_0>
1

$$$$
200711
  Mrv171c012241911322D          

 19 20  0  0  0  0            999 V2000
   -0.0058   -0.8033    0.0000 C   0  0  0  0  0  0  0  0  0  0  0  0
   -0.0058    0.0217    0.0000 C   0  0  0  0  0  0  0  0  0  0  0  0
   -0.7203    0.4342    0.0000 C   0  0  0  0  0  0  0  0  0  0  0  0
   -0.7203    1.2592    0.0000 Br  0  0  0  0  0  0  0  0  0  0  0  0
   -1.4347    0.0217    0.0000 C   0  0  0  0  0  0  0  0  0  0  0  0
   -2.1492    0.4342    0.0000 Br  0  0  0  0  0  0  0  0  0  0  0  0
   -1.4347   -0.8033    0.0000 C   0  0  0  0  0  0  0  0  0  0  0  0
   -0.7203   -1.2158    0.0000 C   0  0  0  0  0  0  0  0  0  0  0  0
   -0.7203   -2.0408    0.0000 Br  0  0  0  0  0  0  0  0  0  0  0  0
    0.7087   -1.2158    0.0000 O   0  0  0  0  0  0  0  0  0  0  0  0
    1.4231   -0.8033    0.0000 C   0  0  0  0  0  0  0  0  0  0  0  0
    2.1376   -1.2158    0.0000 C   0  0  0  0  0  0  0  0  0  0  0  0
    2.1376   -2.0408    0.0000 Br  0  0  0  0  0  0  0  0  0  0  0  0
    2.8521   -0.8033    0.0000 C   0  0  0  0  0  0  0  0  0  0  0  0
    2.8521    0.0217    0.0000 C   0  0  0  0  0  0  0  0  0  0  0  0
    3.5666    0.4342    0.0000 Br  0  0  0  0  0  0  0  0  0  0  0  0
    2.1376    0.4342    0.0000 C   0  0  0  0  0  0  0  0  0  0  0  0
    1.4231    0.0217    0.0000 C   0  0  0  0  0  0  0  0  0  0  0  0
    0.7087    0.4342    0.0000 Br  0  0  0  0  0  0  0  0  0  0  0  0
  2  1  2  0  0  0  0
  3  2  1  0  0  0  0
  3  4  1  0  0  0  0
  5  3  2  0  0  0  0
  5  6  1  0  0  0  0
  7  5  1  0  0  0  0
  8  7  2  0  0  0  0
  1  8  1  0  0  0  0
  8  9  1  0  0  0  0
  1 10  1  0  0  0  0
 10 11  1  0  0  0  0
 12 11  2  0  0  0  0
 12 13  1  0  0  0  0
 14 12  1  0  0  0  0
 15 14  2  0  0  0  0
 15 16  1  0  0  0  0
 17 15  1  0  0  0  0
 18 17  2  0  0  0  0
 11 18  1  0  0  0  0
 18 19  1  0  0  0  0
M  END
> <ChemID>
200711

> <CAS>
207122-15-4

> <Original_SMILES>
Brc1cc(Br)c(Oc2cc(Br)c(Br)cc2Br)c(Br)c1

> <preferred_name>
2,2',4,4',5,6'-Hexabromodiphenyl ether (BDE 154)

> <dsstox_substance_id>
DTXSID3052692

> <dsstox_compound_id>
DTXCID7031290

> <qc_level>


> <Canonical_QSARr>
BrC1C=C(Br)C(OC2=CC(Br)=C(Br)C=C2Br)=C(Br)C=1

> <InChI_Code_QSARr>
InChI=1S/C12H4Br6O/c13-5-1-9(17)12(10(18)2-5)19-11-4-7(15)6(14)3-8(11)16/h1-4H

> <InChI Key_QSARr>
VHNPZYZQKWIWOD-UHFFFAOYSA-N

> <Salt_Solvent>


> <Salt_Solvent_ID>
0

> <MPID>
98559

> <LogBCF>
6.15

> <Tr_1_Tst_0>
1

$$$$
200712
  Mrv171c012241911322D          

 18 19  0  0  0  0            999 V2000
    0.1252    0.1252    0.0000 C   0  0  0  0  0  0  0  0  0  0  0  0
    0.8397    0.5377    0.0000 C   0  0  0  0  0  0  0  0  0  0  0  0
    0.8397    1.3627    0.0000 C   0  0  0  0  0  0  0  0  0  0  0  0
    0.1252    1.7752    0.0000 C   0  0  0  0  0  0  0  0  0  0  0  0
    0.1252    2.6002    0.0000 Br  0  0  0  0  0  0  0  0  0  0  0  0
   -0.5892    1.3627    0.0000 C   0  0  0  0  0  0  0  0  0  0  0  0
   -0.5892    0.5377    0.0000 C   0  0  0  0  0  0  0  0  0  0  0  0
   -1.3037    0.1252    0.0000 Br  0  0  0  0  0  0  0  0  0  0  0  0
    0.1252   -0.6998    0.0000 O   0  0  0  0  0  0  0  0  0  0  0  0
    0.8397   -1.1123    0.0000 C   0  0  0  0  0  0  0  0  0  0  0  0
    0.8397   -1.9373    0.0000 C   0  0  0  0  0  0  0  0  0  0  0  0
    0.1252   -2.3498    0.0000 Br  0  0  0  0  0  0  0  0  0  0  0  0
    1.5542   -2.3498    0.0000 C   0  0  0  0  0  0  0  0  0  0  0  0
    2.2686   -1.9373    0.0000 C   0  0  0  0  0  0  0  0  0  0  0  0
    2.9831   -2.3498    0.0000 Br  0  0  0  0  0  0  0  0  0  0  0  0
    2.2686   -1.1123    0.0000 C   0  0  0  0  0  0  0  0  0  0  0  0
    1.5542   -0.6998    0.0000 C   0  0  0  0  0  0  0  0  0  0  0  0
    1.5542    0.1252    0.0000 Br  0  0  0  0  0  0  0  0  0  0  0  0
  2  1  2  0  0  0  0
  3  2  1  0  0  0  0
  4  3  2  0  0  0  0
  4  5  1  0  0  0  0
  6  4  1  0  0  0  0
  7  6  2  0  0  0  0
  1  7  1  0  0  0  0
  7  8  1  0  0  0  0
  1  9  1  0  0  0  0
  9 10  1  0  0  0  0
 11 10  2  0  0  0  0
 11 12  1  0  0  0  0
 13 11  1  0  0  0  0
 14 13  2  0  0  0  0
 14 15  1  0  0  0  0
 16 14  1  0  0  0  0
 17 16  2  0  0  0  0
 10 17  1  0  0  0  0
 17 18  1  0  0  0  0
M  END
> <ChemID>
200712

> <CAS>
189084-64-8

> <Original_SMILES>
Brc1cc(Br)c(Oc2ccc(Br)cc2Br)c(Br)c1

> <preferred_name>
2,2',4,4',6-Pentabromodiphenyl ether

> <dsstox_substance_id>
DTXSID4052689

> <dsstox_compound_id>
DTXCID8031287

> <qc_level>


> <Canonical_QSARr>
BrC1C=C(Br)C=C(Br)C=1OC1=CC=C(Br)C=C1Br

> <InChI_Code_QSARr>
InChI=1S/C12H5Br5O/c13-6-1-2-11(8(15)3-6)18-12-9(16)4-7(14)5-10(12)17/h1-5H

> <InChI Key_QSARr>
NSKIRYMHNFTRLR-UHFFFAOYSA-N

> <Salt_Solvent>


> <Salt_Solvent_ID>
0

> <MPID>
98560

> <LogBCF>
6.36

> <Tr_1_Tst_0>
1

$$$$
200713
  Mrv171c012241911322D          

 17 18  0  0  0  0            999 V2000
    0.6920   -1.2375    0.0000 C   0  0  0  0  0  0  0  0  0  0  0  0
   -0.0225   -0.8250    0.0000 C   0  0  0  0  0  0  0  0  0  0  0  0
   -0.0225    0.0000    0.0000 Br  0  0  0  0  0  0  0  0  0  0  0  0
   -0.7370   -1.2375    0.0000 C   0  0  0  0  0  0  0  0  0  0  0  0
   -0.7370   -2.0625    0.0000 C   0  0  0  0  0  0  0  0  0  0  0  0
   -0.0225   -2.4750    0.0000 C   0  0  0  0  0  0  0  0  0  0  0  0
    0.6920   -2.0625    0.0000 C   0  0  0  0  0  0  0  0  0  0  0  0
    1.4064   -2.4750    0.0000 Br  0  0  0  0  0  0  0  0  0  0  0  0
    1.4064   -0.8250    0.0000 O   0  0  0  0  0  0  0  0  0  0  0  0
    1.4064    0.0000    0.0000 C   0  0  0  0  0  0  0  0  0  0  0  0
    2.1209    0.4125    0.0000 C   0  0  0  0  0  0  0  0  0  0  0  0
    2.8354    0.0000    0.0000 Br  0  0  0  0  0  0  0  0  0  0  0  0
    2.1209    1.2375    0.0000 C   0  0  0  0  0  0  0  0  0  0  0  0
    1.4064    1.6500    0.0000 C   0  0  0  0  0  0  0  0  0  0  0  0
    1.4064    2.4750    0.0000 Br  0  0  0  0  0  0  0  0  0  0  0  0
    0.6920    1.2375    0.0000 C   0  0  0  0  0  0  0  0  0  0  0  0
    0.6920    0.4125    0.0000 C   0  0  0  0  0  0  0  0  0  0  0  0
  2  1  2  0  0  0  0
  2  3  1  0  0  0  0
  4  2  1  0  0  0  0
  5  4  2  0  0  0  0
  6  5  1  0  0  0  0
  7  6  2  0  0  0  0
  1  7  1  0  0  0  0
  7  8  1  0  0  0  0
  1  9  1  0  0  0  0
  9 10  1  0  0  0  0
 11 10  2  0  0  0  0
 11 12  1  0  0  0  0
 13 11  1  0  0  0  0
 14 13  2  0  0  0  0
 14 15  1  0  0  0  0
 16 14  1  0  0  0  0
 17 16  2  0  0  0  0
 10 17  1  0  0  0  0
M  END
> <ChemID>
200713

> <CAS>
189084-57-9

> <Original_SMILES>
Brc1cc(Br)c(cc1)Oc1c(Br)cccc1Br

> <preferred_name>
1,3-Dibromo-2-(2,4-dibromophenoxy)benzene

> <dsstox_substance_id>
DTXSID40616285

> <dsstox_compound_id>
DTXCID80567040

> <qc_level>


> <Canonical_QSARr>
BrC1C=C(Br)C=CC=1OC1C(Br)=CC=CC=1Br

> <InChI_Code_QSARr>
InChI=1S/C12H6Br4O/c13-7-4-5-11(10(16)6-7)17-12-8(14)2-1-3-9(12)15/h1-6H

> <InChI Key_QSARr>
WKBBBTLDLKYGBI-UHFFFAOYSA-N

> <Salt_Solvent>


> <Salt_Solvent_ID>
0

> <MPID>
98561

> <LogBCF>
5.88

> <Tr_1_Tst_0>
0

$$$$
200714
  Mrv171c012241911322D          

 17 18  0  0  0  0            999 V2000
    0.1681    0.2297    0.0000 C   0  0  0  0  0  0  0  0  0  0  0  0
    0.8826    0.6422    0.0000 C   0  0  0  0  0  0  0  0  0  0  0  0
    0.8826    1.4672    0.0000 C   0  0  0  0  0  0  0  0  0  0  0  0
    0.1681    1.8797    0.0000 C   0  0  0  0  0  0  0  0  0  0  0  0
    0.1681    2.7047    0.0000 Br  0  0  0  0  0  0  0  0  0  0  0  0
   -0.5463    1.4672    0.0000 C   0  0  0  0  0  0  0  0  0  0  0  0
   -0.5463    0.6422    0.0000 C   0  0  0  0  0  0  0  0  0  0  0  0
   -1.2608    0.2297    0.0000 Br  0  0  0  0  0  0  0  0  0  0  0  0
    0.1681   -0.5953    0.0000 O   0  0  0  0  0  0  0  0  0  0  0  0
    0.8826   -1.0078    0.0000 C   0  0  0  0  0  0  0  0  0  0  0  0
    0.8826   -1.8328    0.0000 C   0  0  0  0  0  0  0  0  0  0  0  0
    1.5971   -2.2453    0.0000 C   0  0  0  0  0  0  0  0  0  0  0  0
    1.5971   -3.0703    0.0000 Br  0  0  0  0  0  0  0  0  0  0  0  0
    2.3115   -1.8328    0.0000 C   0  0  0  0  0  0  0  0  0  0  0  0
    3.0260   -2.2453    0.0000 Br  0  0  0  0  0  0  0  0  0  0  0  0
    2.3115   -1.0078    0.0000 C   0  0  0  0  0  0  0  0  0  0  0  0
    1.5971   -0.5953    0.0000 C   0  0  0  0  0  0  0  0  0  0  0  0
  2  1  2  0  0  0  0
  3  2  1  0  0  0  0
  4  3  2  0  0  0  0
  4  5  1  0  0  0  0
  6  4  1  0  0  0  0
  7  6  2  0  0  0  0
  1  7  1  0  0  0  0
  7  8  1  0  0  0  0
  1  9  1  0  0  0  0
  9 10  1  0  0  0  0
 11 10  2  0  0  0  0
 12 11  1  0  0  0  0
 12 13  1  0  0  0  0
 14 12  2  0  0  0  0
 14 15  1  0  0  0  0
 16 14  1  0  0  0  0
 17 16  2  0  0  0  0
 10 17  1  0  0  0  0
M  END
> <ChemID>
200714

> <CAS>
189084-61-5

> <Original_SMILES>
Brc1cc(Br)c(cc1)Oc1cc(Br)c(Br)cc1

> <preferred_name>
2,3',4,4'-Tetrabromodiphenyl ether (BDE 66)

> <dsstox_substance_id>
DTXSID9052688

> <dsstox_compound_id>
DTXCID3031286

> <qc_level>


> <Canonical_QSARr>
BrC1C=C(Br)C(=CC=1)OC1=CC(Br)=C(Br)C=C1

> <InChI_Code_QSARr>
InChI=1S/C12H6Br4O/c13-7-1-4-12(11(16)5-7)17-8-2-3-9(14)10(15)6-8/h1-6H

> <InChI Key_QSARr>
DHUMTYRHKMCVAG-UHFFFAOYSA-N

> <Salt_Solvent>


> <Salt_Solvent_ID>
0

> <MPID>
98562

> <LogBCF>
6.05

> <Tr_1_Tst_0>
1

$$$$
200715
  Mrv171c012241911322D          

 18 19  0  0  0  0            999 V2000
    0.1252    0.1252    0.0000 C   0  0  0  0  0  0  0  0  0  0  0  0
    0.8397    0.5377    0.0000 C   0  0  0  0  0  0  0  0  0  0  0  0
    0.8397    1.3627    0.0000 C   0  0  0  0  0  0  0  0  0  0  0  0
    0.1252    1.7752    0.0000 C   0  0  0  0  0  0  0  0  0  0  0  0
    0.1252    2.6002    0.0000 Br  0  0  0  0  0  0  0  0  0  0  0  0
   -0.5892    1.3627    0.0000 C   0  0  0  0  0  0  0  0  0  0  0  0
   -0.5892    0.5377    0.0000 C   0  0  0  0  0  0  0  0  0  0  0  0
   -1.3037    0.1252    0.0000 Br  0  0  0  0  0  0  0  0  0  0  0  0
    0.1252   -0.6998    0.0000 O   0  0  0  0  0  0  0  0  0  0  0  0
    0.8397   -1.1123    0.0000 C   0  0  0  0  0  0  0  0  0  0  0  0
    0.8397   -1.9373    0.0000 C   0  0  0  0  0  0  0  0  0  0  0  0
    0.1252   -2.3498    0.0000 Br  0  0  0  0  0  0  0  0  0  0  0  0
    1.5542   -2.3498    0.0000 C   0  0  0  0  0  0  0  0  0  0  0  0
    2.2686   -1.9373    0.0000 C   0  0  0  0  0  0  0  0  0  0  0  0
    2.9831   -2.3498    0.0000 Br  0  0  0  0  0  0  0  0  0  0  0  0
    2.2686   -1.1123    0.0000 C   0  0  0  0  0  0  0  0  0  0  0  0
    2.9831   -0.6998    0.0000 Br  0  0  0  0  0  0  0  0  0  0  0  0
    1.5542   -0.6998    0.0000 C   0  0  0  0  0  0  0  0  0  0  0  0
  2  1  2  0  0  0  0
  3  2  1  0  0  0  0
  4  3  2  0  0  0  0
  4  5  1  0  0  0  0
  6  4  1  0  0  0  0
  7  6  2  0  0  0  0
  1  7  1  0  0  0  0
  7  8  1  0  0  0  0
  1  9  1  0  0  0  0
  9 10  1  0  0  0  0
 11 10  2  0  0  0  0
 11 12  1  0  0  0  0
 13 11  1  0  0  0  0
 14 13  2  0  0  0  0
 14 15  1  0  0  0  0
 16 14  1  0  0  0  0
 16 17  1  0  0  0  0
 18 16  2  0  0  0  0
 10 18  1  0  0  0  0
M  END
> <ChemID>
200715

> <CAS>
60348-60-9

> <Original_SMILES>
Brc1cc(Br)c(cc1)Oc1cc(Br)c(Br)cc1Br

> <preferred_name>


> <dsstox_substance_id>
DTXSID9030048

> <dsstox_compound_id>
DTXCID404246

> <qc_level>


> <Canonical_QSARr>
BrC1C=C(Br)C(Br)=CC=1OC1=CC=C(Br)C=C1Br

> <InChI_Code_QSARr>
InChI=1S/C12H5Br5O/c13-6-1-2-11(9(16)3-6)18-12-5-8(15)7(14)4-10(12)17/h1-5H

> <InChI Key_QSARr>
WHPVYXDFIXRKLN-UHFFFAOYSA-N

> <Salt_Solvent>


> <Salt_Solvent_ID>
0

> <MPID>
98563

> <LogBCF>
6.01

> <Tr_1_Tst_0>
1

$$$$
200716
  Mrv171c012241911322D          

 17 18  0  0  0  0            999 V2000
    0.1681    0.2297    0.0000 C   0  0  0  0  0  0  0  0  0  0  0  0
    0.8826    0.6422    0.0000 C   0  0  0  0  0  0  0  0  0  0  0  0
    0.8826    1.4672    0.0000 C   0  0  0  0  0  0  0  0  0  0  0  0
    0.1681    1.8797    0.0000 C   0  0  0  0  0  0  0  0  0  0  0  0
    0.1681    2.7047    0.0000 Br  0  0  0  0  0  0  0  0  0  0  0  0
   -0.5463    1.4672    0.0000 C   0  0  0  0  0  0  0  0  0  0  0  0
   -0.5463    0.6422    0.0000 C   0  0  0  0  0  0  0  0  0  0  0  0
   -1.2608    0.2297    0.0000 Br  0  0  0  0  0  0  0  0  0  0  0  0
    0.1681   -0.5953    0.0000 O   0  0  0  0  0  0  0  0  0  0  0  0
    0.8826   -1.0078    0.0000 C   0  0  0  0  0  0  0  0  0  0  0  0
    0.8826   -1.8328    0.0000 C   0  0  0  0  0  0  0  0  0  0  0  0
    0.1681   -2.2453    0.0000 Br  0  0  0  0  0  0  0  0  0  0  0  0
    1.5971   -2.2453    0.0000 C   0  0  0  0  0  0  0  0  0  0  0  0
    2.3115   -1.8328    0.0000 C   0  0  0  0  0  0  0  0  0  0  0  0
    3.0260   -2.2453    0.0000 Br  0  0  0  0  0  0  0  0  0  0  0  0
    2.3115   -1.0078    0.0000 C   0  0  0  0  0  0  0  0  0  0  0  0
    1.5971   -0.5953    0.0000 C   0  0  0  0  0  0  0  0  0  0  0  0
  2  1  2  0  0  0  0
  3  2  1  0  0  0  0
  4  3  2  0  0  0  0
  4  5  1  0  0  0  0
  6  4  1  0  0  0  0
  7  6  2  0  0  0  0
  1  7  1  0  0  0  0
  7  8  1  0  0  0  0
  1  9  1  0  0  0  0
  9 10  1  0  0  0  0
 11 10  2  0  0  0  0
 11 12  1  0  0  0  0
 13 11  1  0  0  0  0
 14 13  2  0  0  0  0
 14 15  1  0  0  0  0
 16 14  1  0  0  0  0
 17 16  2  0  0  0  0
 10 17  1  0  0  0  0
M  END
> <ChemID>
200716

> <CAS>
5436-43-1

> <Original_SMILES>
Brc1cc(Br)c(cc1)Oc1ccc(Br)cc1Br

> <preferred_name>
2,2'4,4'-Tetrabromodiphenyl ether

> <dsstox_substance_id>
DTXSID3030056

> <dsstox_compound_id>
DTXCID1010056

> <qc_level>


> <Canonical_QSARr>
BrC1C=C(Br)C=CC=1OC1=CC=C(Br)C=C1Br

> <InChI_Code_QSARr>
InChI=1S/C12H6Br4O/c13-7-1-3-11(9(15)5-7)17-12-4-2-8(14)6-10(12)16/h1-6H

> <InChI Key_QSARr>
XYBSIYMGXVUVGY-UHFFFAOYSA-N

> <Salt_Solvent>


> <Salt_Solvent_ID>
0

> <MPID>
98564

> <LogBCF>
5.84

> <Tr_1_Tst_0>
1

$$$$
200717
  Mrv171c012241911322D          

 16 17  0  0  0  0            999 V2000
    0.0378    0.0378    0.0000 C   0  0  0  0  0  0  0  0  0  0  0  0
    0.7522    0.4503    0.0000 C   0  0  0  0  0  0  0  0  0  0  0  0
    0.7522    1.2753    0.0000 C   0  0  0  0  0  0  0  0  0  0  0  0
    0.0378    1.6878    0.0000 C   0  0  0  0  0  0  0  0  0  0  0  0
    0.0378    2.5128    0.0000 Br  0  0  0  0  0  0  0  0  0  0  0  0
   -0.6767    1.2753    0.0000 C   0  0  0  0  0  0  0  0  0  0  0  0
   -0.6767    0.4503    0.0000 C   0  0  0  0  0  0  0  0  0  0  0  0
   -1.3912    0.0378    0.0000 Br  0  0  0  0  0  0  0  0  0  0  0  0
    0.0378   -0.7872    0.0000 O   0  0  0  0  0  0  0  0  0  0  0  0
    0.7522   -1.1997    0.0000 C   0  0  0  0  0  0  0  0  0  0  0  0
    0.7522   -2.0247    0.0000 C   0  0  0  0  0  0  0  0  0  0  0  0
    1.4667   -2.4372    0.0000 C   0  0  0  0  0  0  0  0  0  0  0  0
    2.1812   -2.0247    0.0000 C   0  0  0  0  0  0  0  0  0  0  0  0
    2.8956   -2.4372    0.0000 Br  0  0  0  0  0  0  0  0  0  0  0  0
    2.1812   -1.1997    0.0000 C   0  0  0  0  0  0  0  0  0  0  0  0
    1.4667   -0.7872    0.0000 C   0  0  0  0  0  0  0  0  0  0  0  0
  2  1  2  0  0  0  0
  3  2  1  0  0  0  0
  4  3  2  0  0  0  0
  4  5  1  0  0  0  0
  6  4  1  0  0  0  0
  7  6  2  0  0  0  0
  1  7  1  0  0  0  0
  7  8  1  0  0  0  0
  1  9  1  0  0  0  0
  9 10  1  0  0  0  0
 11 10  2  0  0  0  0
 12 11  1  0  0  0  0
 13 12  2  0  0  0  0
 13 14  1  0  0  0  0
 15 13  1  0  0  0  0
 16 15  2  0  0  0  0
 10 16  1  0  0  0  0
M  END
> <ChemID>
200717

> <CAS>
41318-75-6

> <Original_SMILES>
Brc1cc(Br)ccc1Oc1ccc(Br)cc1

> <preferred_name>
2,4,4'-Tribromodiphenyl ether (BDE 28)

> <dsstox_substance_id>
DTXSID4052710

> <dsstox_compound_id>
DTXCID4031304

> <qc_level>


> <Canonical_QSARr>
BrC1C=C(Br)C(=CC=1)OC1C=CC(Br)=CC=1

> <InChI_Code_QSARr>
InChI=1S/C12H7Br3O/c13-8-1-4-10(5-2-8)16-12-6-3-9(14)7-11(12)15/h1-7H

> <InChI Key_QSARr>
UPNBETHEXPIWQX-UHFFFAOYSA-N

> <Salt_Solvent>


> <Salt_Solvent_ID>
0

> <MPID>
98565

> <LogBCF>
5.83

> <Tr_1_Tst_0>
0

$$$$
200718
  Mrv171c012241911322D          

 21 22  0  0  0  0            999 V2000
    0.5966   -1.0018    0.0000 C   0  0  0  0  0  0  0  0  0  0  0  0
   -0.1178   -0.5893    0.0000 C   0  0  0  0  0  0  0  0  0  0  0  0
   -0.1178    0.2357    0.0000 Br  0  0  0  0  0  0  0  0  0  0  0  0
   -0.8323   -1.0018    0.0000 C   0  0  0  0  0  0  0  0  0  0  0  0
   -1.5468   -0.5893    0.0000 Br  0  0  0  0  0  0  0  0  0  0  0  0
   -0.8323   -1.8268    0.0000 C   0  0  0  0  0  0  0  0  0  0  0  0
   -1.5468   -2.2393    0.0000 Br  0  0  0  0  0  0  0  0  0  0  0  0
   -0.1178   -2.2393    0.0000 C   0  0  0  0  0  0  0  0  0  0  0  0
   -0.1178   -3.0643    0.0000 Br  0  0  0  0  0  0  0  0  0  0  0  0
    0.5966   -1.8268    0.0000 C   0  0  0  0  0  0  0  0  0  0  0  0
    1.3111   -2.2393    0.0000 Br  0  0  0  0  0  0  0  0  0  0  0  0
    1.3111   -0.5893    0.0000 O   0  0  0  0  0  0  0  0  0  0  0  0
    1.3111    0.2357    0.0000 C   0  0  0  0  0  0  0  0  0  0  0  0
    2.0256    0.6482    0.0000 C   0  0  0  0  0  0  0  0  0  0  0  0
    2.7400    0.2357    0.0000 Br  0  0  0  0  0  0  0  0  0  0  0  0
    2.0256    1.4732    0.0000 C   0  0  0  0  0  0  0  0  0  0  0  0
    2.7400    1.8857    0.0000 Br  0  0  0  0  0  0  0  0  0  0  0  0
    1.3111    1.8857    0.0000 C   0  0  0  0  0  0  0  0  0  0  0  0
    0.5966    1.4732    0.0000 C   0  0  0  0  0  0  0  0  0  0  0  0
   -0.1178    1.8857    0.0000 Br  0  0  0  0  0  0  0  0  0  0  0  0
    0.5966    0.6482    0.0000 C   0  0  0  0  0  0  0  0  0  0  0  0
  2  1  2  0  0  0  0
  2  3  1  0  0  0  0
  4  2  1  0  0  0  0
  4  5  1  0  0  0  0
  6  4  2  0  0  0  0
  6  7  1  0  0  0  0
  8  6  1  0  0  0  0
  8  9  1  0  0  0  0
 10  8  2  0  0  0  0
  1 10  1  0  0  0  0
 10 11  1  0  0  0  0
  1 12  1  0  0  0  0
 12 13  1  0  0  0  0
 14 13  2  0  0  0  0
 14 15  1  0  0  0  0
 16 14  1  0  0  0  0
 16 17  1  0  0  0  0
 18 16  2  0  0  0  0
 19 18  1  0  0  0  0
 19 20  1  0  0  0  0
 21 19  2  0  0  0  0
 13 21  1  0  0  0  0
M  END
> <ChemID>
200718

> <CAS>
446255-54-5

> <Original_SMILES>
Brc1cc(Oc2c(Br)c(Br)c(Br)c(Br)c2Br)c(Br)c(Br)c1

> <preferred_name>


> <dsstox_substance_id>
DTXSID00196255

> <dsstox_compound_id>
DTXCID10118746

> <qc_level>


> <Canonical_QSARr>
BrC1C=C(Br)C(Br)=C(C=1)OC1C(Br)=C(Br)C(Br)=C(Br)C=1Br

> <InChI_Code_QSARr>
InChI=1S/C12H2Br8O/c13-3-1-4(14)6(15)5(2-3)21-12-10(19)8(17)7(16)9(18)11(12)20/h1-2H

> <InChI Key_QSARr>
IBKRHVDFFHQOSC-UHFFFAOYSA-N

> <Salt_Solvent>


> <Salt_Solvent_ID>
0

> <MPID>
98556|98557|98566|98567

> <LogBCF>
5.715

> <Tr_1_Tst_0>
1

$$$$
200719
  Mrv171c012241911322D          

 22 23  0  0  0  0            999 V2000
    0.7044   -1.2000    0.0000 C   0  0  0  0  0  0  0  0  0  0  0  0
   -0.0100   -0.7875    0.0000 C   0  0  0  0  0  0  0  0  0  0  0  0
   -0.0100    0.0375    0.0000 Br  0  0  0  0  0  0  0  0  0  0  0  0
   -0.7245   -1.2000    0.0000 C   0  0  0  0  0  0  0  0  0  0  0  0
   -1.4390   -0.7875    0.0000 Br  0  0  0  0  0  0  0  0  0  0  0  0
   -0.7245   -2.0250    0.0000 C   0  0  0  0  0  0  0  0  0  0  0  0
   -1.4390   -2.4375    0.0000 Br  0  0  0  0  0  0  0  0  0  0  0  0
   -0.0100   -2.4375    0.0000 C   0  0  0  0  0  0  0  0  0  0  0  0
   -0.0100   -3.2625    0.0000 Br  0  0  0  0  0  0  0  0  0  0  0  0
    0.7044   -2.0250    0.0000 C   0  0  0  0  0  0  0  0  0  0  0  0
    1.4189   -2.4375    0.0000 Br  0  0  0  0  0  0  0  0  0  0  0  0
    1.4189   -0.7875    0.0000 O   0  0  0  0  0  0  0  0  0  0  0  0
    1.4189    0.0375    0.0000 C   0  0  0  0  0  0  0  0  0  0  0  0
    2.1334    0.4500    0.0000 C   0  0  0  0  0  0  0  0  0  0  0  0
    2.8479    0.0375    0.0000 Br  0  0  0  0  0  0  0  0  0  0  0  0
    2.1334    1.2750    0.0000 C   0  0  0  0  0  0  0  0  0  0  0  0
    2.8479    1.6875    0.0000 Br  0  0  0  0  0  0  0  0  0  0  0  0
    1.4189    1.6875    0.0000 C   0  0  0  0  0  0  0  0  0  0  0  0
    1.4189    2.5125    0.0000 Br  0  0  0  0  0  0  0  0  0  0  0  0
    0.7044    1.2750    0.0000 C   0  0  0  0  0  0  0  0  0  0  0  0
   -0.0100    1.6875    0.0000 Br  0  0  0  0  0  0  0  0  0  0  0  0
    0.7044    0.4500    0.0000 C   0  0  0  0  0  0  0  0  0  0  0  0
  2  1  2  0  0  0  0
  2  3  1  0  0  0  0
  4  2  1  0  0  0  0
  4  5  1  0  0  0  0
  6  4  2  0  0  0  0
  6  7  1  0  0  0  0
  8  6  1  0  0  0  0
  8  9  1  0  0  0  0
 10  8  2  0  0  0  0
  1 10  1  0  0  0  0
 10 11  1  0  0  0  0
  1 12  1  0  0  0  0
 12 13  1  0  0  0  0
 14 13  2  0  0  0  0
 14 15  1  0  0  0  0
 16 14  1  0  0  0  0
 16 17  1  0  0  0  0
 18 16  2  0  0  0  0
 18 19  1  0  0  0  0
 20 18  1  0  0  0  0
 20 21  1  0  0  0  0
 22 20  2  0  0  0  0
 13 22  1  0  0  0  0
M  END
> <ChemID>
200719

> <CAS>
63936-56-1

> <Original_SMILES>
Brc1cc(Oc2c(Br)c(Br)c(Br)c(Br)c2Br)c(Br)c(Br)c1Br

> <preferred_name>
Nonabromodiphenyl ether

> <dsstox_substance_id>
DTXSID3024233

> <dsstox_compound_id>
DTXCID401323314

> <qc_level>


> <Canonical_QSARr>
BrC1=C(OC2C=C(Br)C(Br)=C(Br)C=2Br)C(Br)=C(Br)C(Br)=C1Br

> <InChI_Code_QSARr>
InChI=1S/C12HBr9O/c13-2-1-3(5(15)6(16)4(2)14)22-12-10(20)8(18)7(17)9(19)11(12)21/h1H

> <InChI Key_QSARr>
CYRHBNRLQMLULE-UHFFFAOYSA-N

> <Salt_Solvent>


> <Salt_Solvent_ID>
0

> <MPID>
98568

> <LogBCF>
5.44

> <Tr_1_Tst_0>
1

$$$$
200720
  Mrv171c012241911322D          

 21 22  0  0  0  0            999 V2000
    0.6647   -1.1196    0.0000 C   0  0  0  0  0  0  0  0  0  0  0  0
   -0.0498   -0.7071    0.0000 C   0  0  0  0  0  0  0  0  0  0  0  0
   -0.0498    0.1179    0.0000 Br  0  0  0  0  0  0  0  0  0  0  0  0
   -0.7643   -1.1196    0.0000 C   0  0  0  0  0  0  0  0  0  0  0  0
   -1.4787   -0.7071    0.0000 Br  0  0  0  0  0  0  0  0  0  0  0  0
   -0.7643   -1.9446    0.0000 C   0  0  0  0  0  0  0  0  0  0  0  0
   -1.4787   -2.3571    0.0000 Br  0  0  0  0  0  0  0  0  0  0  0  0
   -0.0498   -2.3571    0.0000 C   0  0  0  0  0  0  0  0  0  0  0  0
   -0.0498   -3.1821    0.0000 Br  0  0  0  0  0  0  0  0  0  0  0  0
    0.6647   -1.9446    0.0000 C   0  0  0  0  0  0  0  0  0  0  0  0
    1.3791   -2.3571    0.0000 Br  0  0  0  0  0  0  0  0  0  0  0  0
    1.3791   -0.7071    0.0000 O   0  0  0  0  0  0  0  0  0  0  0  0
    1.3791    0.1179    0.0000 C   0  0  0  0  0  0  0  0  0  0  0  0
    2.0936    0.5304    0.0000 C   0  0  0  0  0  0  0  0  0  0  0  0
    2.8081    0.1179    0.0000 Br  0  0  0  0  0  0  0  0  0  0  0  0
    2.0936    1.3554    0.0000 C   0  0  0  0  0  0  0  0  0  0  0  0
    1.3791    1.7679    0.0000 C   0  0  0  0  0  0  0  0  0  0  0  0
    1.3791    2.5929    0.0000 Br  0  0  0  0  0  0  0  0  0  0  0  0
    0.6647    1.3554    0.0000 C   0  0  0  0  0  0  0  0  0  0  0  0
   -0.0498    1.7679    0.0000 Br  0  0  0  0  0  0  0  0  0  0  0  0
    0.6647    0.5304    0.0000 C   0  0  0  0  0  0  0  0  0  0  0  0
  2  1  2  0  0  0  0
  2  3  1  0  0  0  0
  4  2  1  0  0  0  0
  4  5  1  0  0  0  0
  6  4  2  0  0  0  0
  6  7  1  0  0  0  0
  8  6  1  0  0  0  0
  8  9  1  0  0  0  0
 10  8  2  0  0  0  0
  1 10  1  0  0  0  0
 10 11  1  0  0  0  0
  1 12  1  0  0  0  0
 12 13  1  0  0  0  0
 14 13  2  0  0  0  0
 14 15  1  0  0  0  0
 16 14  1  0  0  0  0
 17 16  2  0  0  0  0
 17 18  1  0  0  0  0
 19 17  1  0  0  0  0
 19 20  1  0  0  0  0
 21 19  2  0  0  0  0
 13 21  1  0  0  0  0
M  END
> <ChemID>
200720

> <CAS>
337513-72-1

> <Original_SMILES>
Brc1cc(Oc2c(Br)c(Br)c(Br)c(Br)c2Br)c(Br)cc1Br

> <preferred_name>
Benzene, 1,2,3,4,5-pentabromo-6-(2,4,5-tribromophenoxy)-

> <dsstox_substance_id>
DTXSID7074749

> <dsstox_compound_id>
DTXCID6038742

> <qc_level>


> <Canonical_QSARr>
BrC1C=C(Br)C(Br)=CC=1OC1C(Br)=C(Br)C(Br)=C(Br)C=1Br

> <InChI_Code_QSARr>
InChI=1S/C12H2Br8O/c13-3-1-5(15)6(2-4(3)14)21-12-10(19)8(17)7(16)9(18)11(12)20/h1-2H

> <InChI Key_QSARr>
RTUZOQFRIPIWPS-UHFFFAOYSA-N

> <Salt_Solvent>


> <Salt_Solvent_ID>
0

> <MPID>
98569

> <LogBCF>
5.93

> <Tr_1_Tst_0>
1

$$$$
200721
  Mrv171c012241911322D          

 18 19  0  0  0  0            999 V2000
   -0.0246   -0.8250    0.0000 C   0  0  0  0  0  0  0  0  0  0  0  0
   -0.0246    0.0000    0.0000 C   0  0  0  0  0  0  0  0  0  0  0  0
   -0.7390    0.4125    0.0000 C   0  0  0  0  0  0  0  0  0  0  0  0
   -0.7390    1.2375    0.0000 Br  0  0  0  0  0  0  0  0  0  0  0  0
   -1.4535    0.0000    0.0000 C   0  0  0  0  0  0  0  0  0  0  0  0
   -2.1680    0.4125    0.0000 Br  0  0  0  0  0  0  0  0  0  0  0  0
   -1.4535   -0.8250    0.0000 C   0  0  0  0  0  0  0  0  0  0  0  0
   -2.1680   -1.2375    0.0000 Br  0  0  0  0  0  0  0  0  0  0  0  0
   -0.7390   -1.2375    0.0000 C   0  0  0  0  0  0  0  0  0  0  0  0
    0.6899   -1.2375    0.0000 O   0  0  0  0  0  0  0  0  0  0  0  0
    1.4044   -0.8250    0.0000 C   0  0  0  0  0  0  0  0  0  0  0  0
    2.1189   -1.2375    0.0000 C   0  0  0  0  0  0  0  0  0  0  0  0
    2.8333   -0.8250    0.0000 C   0  0  0  0  0  0  0  0  0  0  0  0
    3.5478   -1.2375    0.0000 Br  0  0  0  0  0  0  0  0  0  0  0  0
    2.8333    0.0000    0.0000 C   0  0  0  0  0  0  0  0  0  0  0  0
    3.5478    0.4125    0.0000 Br  0  0  0  0  0  0  0  0  0  0  0  0
    2.1189    0.4125    0.0000 C   0  0  0  0  0  0  0  0  0  0  0  0
    1.4044    0.0000    0.0000 C   0  0  0  0  0  0  0  0  0  0  0  0
  2  1  2  0  0  0  0
  3  2  1  0  0  0  0
  3  4  1  0  0  0  0
  5  3  2  0  0  0  0
  5  6  1  0  0  0  0
  7  5  1  0  0  0  0
  7  8  1  0  0  0  0
  9  7  2  0  0  0  0
  1  9  1  0  0  0  0
  1 10  1  0  0  0  0
 10 11  1  0  0  0  0
 12 11  2  0  0  0  0
 13 12  1  0  0  0  0
 13 14  1  0  0  0  0
 15 13  2  0  0  0  0
 15 16  1  0  0  0  0
 17 15  1  0  0  0  0
 18 17  2  0  0  0  0
 11 18  1  0  0  0  0
M  END
> <ChemID>
200721

> <CAS>
366791-32-4

> <Original_SMILES>
Brc1ccc(cc1Br)Oc1cc(Br)c(Br)c(Br)c1

> <preferred_name>
1,2,3-Tribromo-5-(3,4-dibromophenoxy)benzene

> <dsstox_substance_id>
DTXSID50573491

> <dsstox_compound_id>
DTXCID70524263

> <qc_level>


> <Canonical_QSARr>
BrC1C=CC(=CC=1Br)OC1=CC(Br)=C(Br)C(Br)=C1

> <InChI_Code_QSARr>
InChI=1S/C12H5Br5O/c13-8-2-1-6(3-9(8)14)18-7-4-10(15)12(17)11(16)5-7/h1-5H

> <InChI Key_QSARr>
SJNIIWPIAVQNRK-UHFFFAOYSA-N

> <Salt_Solvent>


> <Salt_Solvent_ID>
0

> <MPID>
98570

> <LogBCF>
6.43

> <Tr_1_Tst_0>
0

$$$$
200722
  Mrv171c012241911322D          

 17 18  0  0  0  0            999 V2000
    0.0711    0.1326    0.0000 C   0  0  0  0  0  0  0  0  0  0  0  0
    0.7855    0.5451    0.0000 C   0  0  0  0  0  0  0  0  0  0  0  0
    0.7855    1.3701    0.0000 C   0  0  0  0  0  0  0  0  0  0  0  0
    0.0711    1.7826    0.0000 C   0  0  0  0  0  0  0  0  0  0  0  0
    0.0711    2.6076    0.0000 Br  0  0  0  0  0  0  0  0  0  0  0  0
   -0.6434    1.3701    0.0000 C   0  0  0  0  0  0  0  0  0  0  0  0
   -1.3579    1.7826    0.0000 Br  0  0  0  0  0  0  0  0  0  0  0  0
   -0.6434    0.5451    0.0000 C   0  0  0  0  0  0  0  0  0  0  0  0
    0.0711   -0.6924    0.0000 O   0  0  0  0  0  0  0  0  0  0  0  0
    0.7855   -1.1049    0.0000 C   0  0  0  0  0  0  0  0  0  0  0  0
    0.7855   -1.9299    0.0000 C   0  0  0  0  0  0  0  0  0  0  0  0
    1.5000   -2.3424    0.0000 C   0  0  0  0  0  0  0  0  0  0  0  0
    1.5000   -3.1674    0.0000 Br  0  0  0  0  0  0  0  0  0  0  0  0
    2.2145   -1.9299    0.0000 C   0  0  0  0  0  0  0  0  0  0  0  0
    2.9289   -2.3424    0.0000 Br  0  0  0  0  0  0  0  0  0  0  0  0
    2.2145   -1.1049    0.0000 C   0  0  0  0  0  0  0  0  0  0  0  0
    1.5000   -0.6924    0.0000 C   0  0  0  0  0  0  0  0  0  0  0  0
  2  1  2  0  0  0  0
  3  2  1  0  0  0  0
  4  3  2  0  0  0  0
  4  5  1  0  0  0  0
  6  4  1  0  0  0  0
  6  7  1  0  0  0  0
  8  6  2  0  0  0  0
  1  8  1  0  0  0  0
  1  9  1  0  0  0  0
  9 10  1  0  0  0  0
 11 10  2  0  0  0  0
 12 11  1  0  0  0  0
 12 13  1  0  0  0  0
 14 12  2  0  0  0  0
 14 15  1  0  0  0  0
 16 14  1  0  0  0  0
 17 16  2  0  0  0  0
 10 17  1  0  0  0  0
M  END
> <ChemID>
200722

> <CAS>
93703-48-1

> <Original_SMILES>
Brc1ccc(cc1Br)Oc1cc(Br)c(Br)cc1

> <preferred_name>


> <dsstox_substance_id>
DTXSID80877030

> <dsstox_compound_id>
DTXCID301015114

> <qc_level>


> <Canonical_QSARr>
BrC1=CC=C(C=C1Br)OC1=CC(Br)=C(Br)C=C1

> <InChI_Code_QSARr>
InChI=1S/C12H6Br4O/c13-9-3-1-7(5-11(9)15)17-8-2-4-10(14)12(16)6-8/h1-6H

> <InChI Key_QSARr>
RYGLOWMCGZHYRQ-UHFFFAOYSA-N

> <Salt_Solvent>


> <Salt_Solvent_ID>
0

> <MPID>
98571

> <LogBCF>
6.29

> <Tr_1_Tst_0>
1

$$$$
